MODEL 1
REMARK VINA RESULT: -6.573251518      0.000      0.000
REMARK  15 active torsions:
REMARK  status: ('A' for Active; 'I' for Inactive)
REMARK    1  A    between atoms: O1_2  and  C2_3 
REMARK    2  A    between atoms: C2_3  and  C3_8 
REMARK    3  A    between atoms: N1_4  and  O2_6 
REMARK    4  A    between atoms: C4_11  and  C5_12 
REMARK    5  A    between atoms: C5_12  and  O3_13 
REMARK    6  A    between atoms: O3_13  and  C6_14 
REMARK    7  A    between atoms: C6_14  and  N3_15 
REMARK    8  A    between atoms: C6_14  and  N7_22 
REMARK    9  A    between atoms: N3_15  and  N4_16 
REMARK   10  A    between atoms: N4_16  and  N5_17 
REMARK   11  A    between atoms: N5_17  and  N6_19 
REMARK   12  A    between atoms: N7_22  and  C7_24 
REMARK   13  A    between atoms: C8_30  and  C9_31 
REMARK   14  A    between atoms: C9_31  and  O5_32 
REMARK   15  A    between atoms: C9_31  and  N10_34 
REMARK       I    between atoms: N10_34  and  C10_36 
REMARK       I    between atoms: C10_36  and  N11_37 
REMARK       I    between atoms: C10_36  and  N12_41 
ROOT
HETATM    1  C6  UNL     1       5.561  -8.694  25.233  1.00  0.00     0.320 C 
ENDROOT
BRANCH   1   2
HETATM    2  O3  UNL     1       6.516  -7.913  25.834  1.00  0.00    -0.304 OA
BRANCH   2   3
HETATM    3  C5  UNL     1       7.258  -7.597  26.844  1.00  0.00     0.239 C 
BRANCH   3   4
HETATM    4  C4  UNL     1       6.623  -7.673  28.241  1.00  0.00     0.066 A 
HETATM    5  N2  UNL     1       5.351  -7.454  28.444  1.00  0.00    -0.347 N 
HETATM    6  C3  UNL     1       4.784  -7.697  29.593  1.00  0.00     0.129 A 
ATOM      7  H2  UNL     1       4.784  -7.082  27.682  1.00  0.00     0.166 HD
HETATM    8  S1  UNL     1       6.144  -8.293  30.519  1.00  0.00    -0.051 SA
HETATM    9  C11 UNL     1       7.335  -8.177  29.305  1.00  0.00     0.114 A 
HETATM   10  N13 UNL     1       8.725  -8.505  29.366  1.00  0.00    -0.092 NA
BRANCH   6  11
HETATM   11  C2  UNL     1       3.408  -7.831  30.091  1.00  0.00     0.196 C 
HETATM   12  N1  UNL     1       2.348  -7.769  29.499  1.00  0.00    -0.245 N 
ATOM     13  H1  UNL     1       1.619  -7.893  30.202  1.00  0.00     0.196 HD
BRANCH  11  14
HETATM   14  O1  UNL     1       3.301  -8.057  31.522  1.00  0.00    -0.337 OA
HETATM   15  C1  UNL     1       2.494  -7.132  32.260  1.00  0.00     0.211 C 
ENDBRANCH  11  14
BRANCH  12  16
HETATM   16  O2  UNL     1       1.743  -7.616  28.372  1.00  0.00    -0.288 OA
ATOM     17  H2  UNL     1       1.583  -7.953  27.499  1.00  0.00     0.244 HD
ENDBRANCH  12  16
ENDBRANCH   6  11
ENDBRANCH   3   4
ENDBRANCH   2   3
ENDBRANCH   1   2
BRANCH   1  18
HETATM   18  N3  UNL     1       4.459  -8.509  25.623  1.00  0.00    -0.264 NA
BRANCH  18  19
HETATM   19  N4  UNL     1       3.294  -8.564  26.248  1.00  0.00     0.078 NA
BRANCH  19  20
HETATM   20  N5  UNL     1       2.682  -9.754  26.132  1.00  0.00    -0.221 N 
ATOM     21  H5  UNL     1       3.071 -10.477  25.528  1.00  0.00     0.206 HD
BRANCH  20  22
HETATM   22  N6  UNL     1       1.548  -9.980  26.823  1.00  0.00    -0.332 N 
ATOM     23  H62 UNL     1       0.769  -9.327  26.735  1.00  0.00     0.178 HD
ATOM     24  H61 UNL     1       1.487 -10.802  27.425  1.00  0.00     0.178 HD
ENDBRANCH  20  22
ENDBRANCH  19  20
ENDBRANCH  18  19
ENDBRANCH   1  18
BRANCH   1  25
HETATM   25  N7  UNL     1       6.104  -9.547  24.253  1.00  0.00    -0.291 N 
ATOM     26  H7  UNL     1       5.726  -9.356  23.325  1.00  0.00     0.172 HD
BRANCH  25  27
HETATM   27  C7  UNL     1       6.923 -10.467  24.238  1.00  0.00     0.164 A 
HETATM   28  N8  UNL     1       7.993 -10.816  25.010  1.00  0.00    -0.223 N 
HETATM   29  O4  UNL     1       8.435 -11.944  24.659  1.00  0.00    -0.155 OA
ATOM     30  H8  UNL     1       8.379 -10.247  25.764  1.00  0.00     0.198 HD
HETATM   31  N9  UNL     1       7.761 -12.451  23.682  1.00  0.00    -0.234 N 
HETATM   32  C8  UNL     1       6.781 -11.574  23.357  1.00  0.00     0.153 A 
ATOM     33  H9  UNL     1       7.935 -13.351  23.234  1.00  0.00     0.197 HD
BRANCH  32  34
HETATM   34  C9  UNL     1       5.820 -11.742  22.274  1.00  0.00     0.172 C 
BRANCH  34  35
HETATM   35  O5  UNL     1       4.595 -11.988  22.642  1.00  0.00    -0.344 OA
ATOM     36  H5  UNL     1       3.937 -11.908  21.960  1.00  0.00     0.219 HD
ENDBRANCH  34  35
BRANCH  34  37
HETATM   37  N10 UNL     1       6.240 -11.628  20.978  1.00  0.00    -0.320 N 
HETATM   38  C10 UNL     1       7.244 -12.251  20.185  1.00  0.00     0.482 C 
HETATM   39  N11 UNL     1       6.961 -12.129  18.753  1.00  0.00    -0.033 N 
HETATM   40  N12 UNL     1       8.556 -11.598  20.369  1.00  0.00    -0.033 N 
ATOM     41 3H11 UNL     1       6.034 -12.487  18.527  1.00  0.00     0.278 HD
ATOM     42 2H11 UNL     1       6.826 -11.154  18.483  1.00  0.00     0.278 HD
ATOM     43 1H11 UNL     1       7.681 -12.575  18.185  1.00  0.00     0.278 HD
ATOM     44 3H12 UNL     1       8.504 -10.595  20.187  1.00  0.00     0.278 HD
ATOM     45 2H12 UNL     1       8.823 -11.566  21.354  1.00  0.00     0.278 HD
ATOM     46 1H12 UNL     1       9.276 -12.045  19.801  1.00  0.00     0.278 HD
ATOM     47  H10 UNL     1       5.708 -10.932  20.456  1.00  0.00     0.165 HD
ENDBRANCH  34  37
ENDBRANCH  32  34
ENDBRANCH  25  27
ENDBRANCH   1  25
TORSDOF 15
ENDMDL
MODEL 2
REMARK VINA RESULT: -6.563988533      2.898      4.746
REMARK  15 active torsions:
REMARK  status: ('A' for Active; 'I' for Inactive)
REMARK    1  A    between atoms: O1_2  and  C2_3 
REMARK    2  A    between atoms: C2_3  and  C3_8 
REMARK    3  A    between atoms: N1_4  and  O2_6 
REMARK    4  A    between atoms: C4_11  and  C5_12 
REMARK    5  A    between atoms: C5_12  and  O3_13 
REMARK    6  A    between atoms: O3_13  and  C6_14 
REMARK    7  A    between atoms: C6_14  and  N3_15 
REMARK    8  A    between atoms: C6_14  and  N7_22 
REMARK    9  A    between atoms: N3_15  and  N4_16 
REMARK   10  A    between atoms: N4_16  and  N5_17 
REMARK   11  A    between atoms: N5_17  and  N6_19 
REMARK   12  A    between atoms: N7_22  and  C7_24 
REMARK   13  A    between atoms: C8_30  and  C9_31 
REMARK   14  A    between atoms: C9_31  and  O5_32 
REMARK   15  A    between atoms: C9_31  and  N10_34 
REMARK       I    between atoms: N10_34  and  C10_36 
REMARK       I    between atoms: C10_36  and  N11_37 
REMARK       I    between atoms: C10_36  and  N12_41 
ROOT
HETATM    1  C6  UNL     1       6.943 -11.269  22.610  1.00  0.00     0.320 C 
ENDROOT
BRANCH   1   2
HETATM    2  O3  UNL     1       6.334 -10.124  23.061  1.00  0.00    -0.304 OA
BRANCH   2   3
HETATM    3  C5  UNL     1       6.260  -9.115  23.866  1.00  0.00     0.239 C 
BRANCH   3   4
HETATM    4  C4  UNL     1       5.586  -9.343  25.228  1.00  0.00     0.066 A 
HETATM    5  N2  UNL     1       4.296  -9.222  25.398  1.00  0.00    -0.347 N 
HETATM    6  C3  UNL     1       3.709  -9.590  26.502  1.00  0.00     0.129 A 
ATOM      7  H2  UNL     1       3.731  -8.827  24.646  1.00  0.00     0.166 HD
HETATM    8  S1  UNL     1       5.074 -10.171  27.431  1.00  0.00    -0.051 SA
HETATM    9  C11 UNL     1       6.294  -9.883  26.276  1.00  0.00     0.114 A 
HETATM   10  N13 UNL     1       7.700 -10.126  26.364  1.00  0.00    -0.092 NA
BRANCH   6  11
HETATM   11  C2  UNL     1       2.329  -9.850  26.936  1.00  0.00     0.196 C 
HETATM   12  N1  UNL     1       1.423  -9.077  27.180  1.00  0.00    -0.245 N 
ATOM     13  H1  UNL     1       0.629  -9.647  27.469  1.00  0.00     0.196 HD
BRANCH  11  14
HETATM   14  O1  UNL     1       2.005 -11.254  27.116  1.00  0.00    -0.337 OA
HETATM   15  C1  UNL     1       1.391 -11.617  28.358  1.00  0.00     0.211 C 
ENDBRANCH  11  14
BRANCH  12  16
HETATM   16  O2  UNL     1       1.028  -7.852  27.232  1.00  0.00    -0.288 OA
ATOM     17  H2  UNL     1       0.570  -7.180  27.723  1.00  0.00     0.244 HD
ENDBRANCH  12  16
ENDBRANCH   6  11
ENDBRANCH   3   4
ENDBRANCH   2   3
ENDBRANCH   1   2
BRANCH   1  18
HETATM   18  N3  UNL     1       6.494 -11.700  21.605  1.00  0.00    -0.264 NA
BRANCH  18  19
HETATM   19  N4  UNL     1       6.278 -12.348  20.472  1.00  0.00     0.078 NA
BRANCH  19  20
HETATM   20  N5  UNL     1       7.107 -11.982  19.480  1.00  0.00    -0.221 N 
ATOM     21  H5  UNL     1       8.069 -11.712  19.685  1.00  0.00     0.206 HD
BRANCH  20  22
HETATM   22  N6  UNL     1       6.653 -11.977  18.212  1.00  0.00    -0.332 N 
ATOM     23  H62 UNL     1       5.834 -11.417  17.975  1.00  0.00     0.178 HD
ATOM     24  H61 UNL     1       7.137 -12.534  17.507  1.00  0.00     0.178 HD
ENDBRANCH  20  22
ENDBRANCH  19  20
ENDBRANCH  18  19
ENDBRANCH   1  18
BRANCH   1  25
HETATM   25  N7  UNL     1       8.002 -11.676  23.445  1.00  0.00    -0.291 N 
ATOM     26  H7  UNL     1       8.695 -10.939  23.574  1.00  0.00     0.172 HD
BRANCH  25  27
HETATM   27  C7  UNL     1       8.299 -12.703  24.057  1.00  0.00     0.164 A 
HETATM   28  N8  UNL     1       8.211 -13.108  25.357  1.00  0.00    -0.223 N 
HETATM   29  O4  UNL     1       8.528 -14.325  25.457  1.00  0.00    -0.155 OA
ATOM     30  H8  UNL     1       7.930 -12.513  26.136  1.00  0.00     0.198 HD
HETATM   31  N9  UNL     1       8.840 -14.845  24.317  1.00  0.00    -0.234 N 
HETATM   32  C8  UNL     1       8.718 -13.879  23.375  1.00  0.00     0.153 A 
ATOM     33  H9  UNL     1       9.127 -15.810  24.154  1.00  0.00     0.197 HD
BRANCH  32  34
HETATM   34  C9  UNL     1       9.017 -14.036  21.958  1.00  0.00     0.172 C 
BRANCH  34  35
HETATM   35  O5  UNL     1       9.289 -12.937  21.314  1.00  0.00    -0.344 OA
ATOM     36  H5  UNL     1       8.611 -12.271  21.333  1.00  0.00     0.219 HD
ENDBRANCH  34  35
BRANCH  34  37
HETATM   37  N10 UNL     1       9.004 -15.285  21.402  1.00  0.00    -0.320 N 
HETATM   38  C10 UNL     1       9.737 -16.488  21.607  1.00  0.00     0.482 C 
HETATM   39  N11 UNL     1       9.014 -17.658  21.104  1.00  0.00    -0.033 N 
HETATM   40  N12 UNL     1      11.009 -16.477  20.857  1.00  0.00    -0.033 N 
ATOM     41 3H11 UNL     1       8.080 -17.719  21.509  1.00  0.00     0.278 HD
ATOM     42 2H11 UNL     1       8.757 -17.543  20.124  1.00  0.00     0.278 HD
ATOM     43 1H11 UNL     1       9.540 -18.520  21.252  1.00  0.00     0.278 HD
ATOM     44 3H12 UNL     1      10.857 -16.296  19.864  1.00  0.00     0.278 HD
ATOM     45 2H12 UNL     1      11.569 -15.654  21.083  1.00  0.00     0.278 HD
ATOM     46 1H12 UNL     1      11.534 -17.339  21.004  1.00  0.00     0.278 HD
ATOM     47  H10 UNL     1       8.304 -15.377  20.666  1.00  0.00     0.165 HD
ENDBRANCH  34  37
ENDBRANCH  32  34
ENDBRANCH  25  27
ENDBRANCH   1  25
TORSDOF 15
ENDMDL
MODEL 3
REMARK VINA RESULT: -6.550760265      3.195      4.370
REMARK  15 active torsions:
REMARK  status: ('A' for Active; 'I' for Inactive)
REMARK    1  A    between atoms: O1_2  and  C2_3 
REMARK    2  A    between atoms: C2_3  and  C3_8 
REMARK    3  A    between atoms: N1_4  and  O2_6 
REMARK    4  A    between atoms: C4_11  and  C5_12 
REMARK    5  A    between atoms: C5_12  and  O3_13 
REMARK    6  A    between atoms: O3_13  and  C6_14 
REMARK    7  A    between atoms: C6_14  and  N3_15 
REMARK    8  A    between atoms: C6_14  and  N7_22 
REMARK    9  A    between atoms: N3_15  and  N4_16 
REMARK   10  A    between atoms: N4_16  and  N5_17 
REMARK   11  A    between atoms: N5_17  and  N6_19 
REMARK   12  A    between atoms: N7_22  and  C7_24 
REMARK   13  A    between atoms: C8_30  and  C9_31 
REMARK   14  A    between atoms: C9_31  and  O5_32 
REMARK   15  A    between atoms: C9_31  and  N10_34 
REMARK       I    between atoms: N10_34  and  C10_36 
REMARK       I    between atoms: C10_36  and  N11_37 
REMARK       I    between atoms: C10_36  and  N12_41 
ROOT
HETATM    1  C6  UNL     1       7.608 -11.901  24.046  1.00  0.00     0.320 C 
ENDROOT
BRANCH   1   2
HETATM    2  O3  UNL     1       7.488 -11.380  25.310  1.00  0.00    -0.304 OA
BRANCH   2   3
HETATM    3  C5  UNL     1       6.992 -10.529  26.149  1.00  0.00     0.239 C 
BRANCH   3   4
HETATM    4  C4  UNL     1       5.463 -10.394  26.200  1.00  0.00     0.066 A 
HETATM    5  N2  UNL     1       4.689 -11.360  26.620  1.00  0.00    -0.347 N 
HETATM    6  C3  UNL     1       3.416 -11.179  26.834  1.00  0.00     0.129 A 
ATOM      7  H2  UNL     1       5.093 -12.282  26.785  1.00  0.00     0.166 HD
HETATM    8  S1  UNL     1       3.239  -9.491  26.410  1.00  0.00    -0.051 SA
HETATM    9  C11 UNL     1       4.863  -9.173  25.997  1.00  0.00     0.114 A 
HETATM   10  N13 UNL     1       5.460  -7.956  25.544  1.00  0.00    -0.092 NA
BRANCH   6  11
HETATM   11  C2  UNL     1       2.342 -11.905  27.527  1.00  0.00     0.196 C 
HETATM   12  N1  UNL     1       1.295 -11.501  27.993  1.00  0.00    -0.245 N 
ATOM     13  H1  UNL     1       0.833 -12.311  28.407  1.00  0.00     0.196 HD
BRANCH  11  14
HETATM   14  O1  UNL     1       2.581 -13.328  27.691  1.00  0.00    -0.337 OA
HETATM   15  C1  UNL     1       1.577 -14.071  28.393  1.00  0.00     0.211 C 
ENDBRANCH  11  14
BRANCH  12  16
HETATM   16  O2  UNL     1       0.513 -10.497  28.193  1.00  0.00    -0.288 OA
ATOM     17  H2  UNL     1       0.208  -9.829  28.796  1.00  0.00     0.244 HD
ENDBRANCH  12  16
ENDBRANCH   6  11
ENDBRANCH   3   4
ENDBRANCH   2   3
ENDBRANCH   1   2
BRANCH   1  18
HETATM   18  N3  UNL     1       6.790 -11.522  23.280  1.00  0.00    -0.264 NA
BRANCH  18  19
HETATM   19  N4  UNL     1       5.827 -11.423  22.378  1.00  0.00     0.078 NA
BRANCH  19  20
HETATM   20  N5  UNL     1       4.697 -10.882  22.860  1.00  0.00    -0.221 N 
ATOM     21  H5  UNL     1       4.608  -9.870  22.952  1.00  0.00     0.206 HD
BRANCH  20  22
HETATM   22  N6  UNL     1       3.682 -11.691  23.221  1.00  0.00    -0.332 N 
ATOM     23  H62 UNL     1       3.882 -12.652  23.497  1.00  0.00     0.178 HD
ATOM     24  H61 UNL     1       2.729 -11.328  23.213  1.00  0.00     0.178 HD
ENDBRANCH  20  22
ENDBRANCH  19  20
ENDBRANCH  18  19
ENDBRANCH   1  18
BRANCH   1  25
HETATM   25  N7  UNL     1       8.708 -12.773  23.928  1.00  0.00    -0.291 N 
ATOM     26  H7  UNL     1       9.570 -12.274  23.706  1.00  0.00     0.172 HD
BRANCH  25  27
HETATM   27  C7  UNL     1       8.888 -13.987  24.025  1.00  0.00     0.164 A 
HETATM   28  N8  UNL     1       8.922 -14.875  25.061  1.00  0.00    -0.223 N 
HETATM   29  O4  UNL     1       9.005 -16.055  24.621  1.00  0.00    -0.155 OA
ATOM     30  H8  UNL     1       8.886 -14.622  26.048  1.00  0.00     0.198 HD
HETATM   31  N9  UNL     1       9.030 -16.095  23.331  1.00  0.00    -0.234 N 
HETATM   32  C8  UNL     1       8.958 -14.822  22.876  1.00  0.00     0.153 A 
ATOM     33  H9  UNL     1       9.093 -16.936  22.757  1.00  0.00     0.197 HD
BRANCH  32  34
HETATM   34  C9  UNL     1       9.000 -14.420  21.476  1.00  0.00     0.172 C 
BRANCH  34  35
HETATM   35  O5  UNL     1       9.996 -14.895  20.783  1.00  0.00    -0.344 OA
ATOM     36  H5  UNL     1       9.758 -15.398  20.012  1.00  0.00     0.219 HD
ENDBRANCH  34  35
BRANCH  34  37
HETATM   37  N10 UNL     1       8.023 -13.602  20.981  1.00  0.00    -0.320 N 
HETATM   38  C10 UNL     1       7.961 -12.600  19.972  1.00  0.00     0.482 C 
HETATM   39  N11 UNL     1       6.590 -12.379  19.507  1.00  0.00    -0.033 N 
HETATM   40  N12 UNL     1       8.401 -11.289  20.489  1.00  0.00    -0.033 N 
ATOM     41 3H11 UNL     1       6.160 -13.249  19.193  1.00  0.00     0.278 HD
ATOM     42 2H11 UNL     1       5.964 -12.163  20.283  1.00  0.00     0.278 HD
ATOM     43 1H11 UNL     1       6.546 -11.661  18.784  1.00  0.00     0.278 HD
ATOM     44 3H12 UNL     1       7.874 -11.017  21.319  1.00  0.00     0.278 HD
ATOM     45 2H12 UNL     1       9.332 -11.345  20.905  1.00  0.00     0.278 HD
ATOM     46 1H12 UNL     1       8.358 -10.571  19.765  1.00  0.00     0.278 HD
ATOM     47  H10 UNL     1       7.125 -13.742  21.446  1.00  0.00     0.165 HD
ENDBRANCH  34  37
ENDBRANCH  32  34
ENDBRANCH  25  27
ENDBRANCH   1  25
TORSDOF 15
ENDMDL
MODEL 4
REMARK VINA RESULT: -6.550736416      2.370      2.817
REMARK  15 active torsions:
REMARK  status: ('A' for Active; 'I' for Inactive)
REMARK    1  A    between atoms: O1_2  and  C2_3 
REMARK    2  A    between atoms: C2_3  and  C3_8 
REMARK    3  A    between atoms: N1_4  and  O2_6 
REMARK    4  A    between atoms: C4_11  and  C5_12 
REMARK    5  A    between atoms: C5_12  and  O3_13 
REMARK    6  A    between atoms: O3_13  and  C6_14 
REMARK    7  A    between atoms: C6_14  and  N3_15 
REMARK    8  A    between atoms: C6_14  and  N7_22 
REMARK    9  A    between atoms: N3_15  and  N4_16 
REMARK   10  A    between atoms: N4_16  and  N5_17 
REMARK   11  A    between atoms: N5_17  and  N6_19 
REMARK   12  A    between atoms: N7_22  and  C7_24 
REMARK   13  A    between atoms: C8_30  and  C9_31 
REMARK   14  A    between atoms: C9_31  and  O5_32 
REMARK   15  A    between atoms: C9_31  and  N10_34 
REMARK       I    between atoms: N10_34  and  C10_36 
REMARK       I    between atoms: C10_36  and  N11_37 
REMARK       I    between atoms: C10_36  and  N12_41 
ROOT
HETATM    1  C6  UNL     1       5.380  -8.441  26.395  1.00  0.00     0.320 C 
ENDROOT
BRANCH   1   2
HETATM    2  O3  UNL     1       6.476  -7.623  26.512  1.00  0.00    -0.304 OA
BRANCH   2   3
HETATM    3  C5  UNL     1       7.464  -7.132  27.187  1.00  0.00     0.239 C 
BRANCH   3   4
HETATM    4  C4  UNL     1       7.147  -6.020  28.199  1.00  0.00     0.066 A 
HETATM    5  N2  UNL     1       5.924  -5.648  28.469  1.00  0.00    -0.347 N 
HETATM    6  C3  UNL     1       5.652  -4.838  29.453  1.00  0.00     0.129 A 
ATOM      7  H2  UNL     1       5.160  -6.001  27.893  1.00  0.00     0.166 HD
HETATM    8  S1  UNL     1       7.252  -4.536  30.093  1.00  0.00    -0.051 SA
HETATM    9  C11 UNL     1       8.135  -5.512  29.010  1.00  0.00     0.114 A 
HETATM   10  N13 UNL     1       9.544  -5.745  28.943  1.00  0.00    -0.092 NA
BRANCH   6  11
HETATM   11  C2  UNL     1       4.448  -4.433  30.194  1.00  0.00     0.196 C 
HETATM   12  N1  UNL     1       3.325  -4.897  30.182  1.00  0.00    -0.245 N 
ATOM     13  H1  UNL     1       2.771  -4.325  30.819  1.00  0.00     0.196 HD
BRANCH  11  14
HETATM   14  O1  UNL     1       4.632  -3.287  31.067  1.00  0.00    -0.337 OA
HETATM   15  C1  UNL     1       4.071  -3.386  32.382  1.00  0.00     0.211 C 
ENDBRANCH  11  14
BRANCH  12  16
HETATM   16  O2  UNL     1       2.528  -5.796  29.716  1.00  0.00    -0.288 OA
ATOM     17  H2  UNL     1       1.783  -6.364  29.876  1.00  0.00     0.244 HD
ENDBRANCH  12  16
ENDBRANCH   6  11
ENDBRANCH   3   4
ENDBRANCH   2   3
ENDBRANCH   1   2
BRANCH   1  18
HETATM   18  N3  UNL     1       4.709  -8.502  27.368  1.00  0.00    -0.264 NA
BRANCH  18  19
HETATM   19  N4  UNL     1       4.013  -8.244  28.463  1.00  0.00     0.078 NA
BRANCH  19  20
HETATM   20  N5  UNL     1       2.764  -8.736  28.431  1.00  0.00    -0.221 N 
ATOM     21  H5  UNL     1       2.574  -9.684  28.757  1.00  0.00     0.206 HD
BRANCH  20  22
HETATM   22  N6  UNL     1       1.765  -7.963  27.964  1.00  0.00    -0.332 N 
ATOM     23  H62 UNL     1       1.964  -7.263  27.249  1.00  0.00     0.178 HD
ATOM     24  H61 UNL     1       0.822  -8.091  28.333  1.00  0.00     0.178 HD
ENDBRANCH  20  22
ENDBRANCH  19  20
ENDBRANCH  18  19
ENDBRANCH   1  18
BRANCH   1  25
HETATM   25  N7  UNL     1       5.278  -9.022  25.116  1.00  0.00    -0.291 N 
ATOM     26  H7  UNL     1       5.750  -8.466  24.403  1.00  0.00     0.172 HD
BRANCH  25  27
HETATM   27  C7  UNL     1       4.760 -10.036  24.646  1.00  0.00     0.164 A 
HETATM   28  N8  UNL     1       3.622 -10.744  24.903  1.00  0.00    -0.223 N 
HETATM   29  O4  UNL     1       3.466 -11.648  24.037  1.00  0.00    -0.155 OA
ATOM     30  H8  UNL     1       2.989 -10.566  25.682  1.00  0.00     0.198 HD
HETATM   31  N9  UNL     1       4.411 -11.651  23.158  1.00  0.00    -0.234 N 
HETATM   32  C8  UNL     1       5.273 -10.656  23.473  1.00  0.00     0.153 A 
ATOM     33  H9  UNL     1       4.494 -12.290  22.367  1.00  0.00     0.197 HD
BRANCH  32  34
HETATM   34  C9  UNL     1       6.504 -10.344  22.758  1.00  0.00     0.172 C 
BRANCH  34  35
HETATM   35  O5  UNL     1       6.822  -9.081  22.708  1.00  0.00    -0.344 OA
ATOM     36  H5  UNL     1       6.337  -8.560  22.079  1.00  0.00     0.219 HD
ENDBRANCH  34  35
BRANCH  34  37
HETATM   37  N10 UNL     1       7.236 -11.357  22.205  1.00  0.00    -0.320 N 
HETATM   38  C10 UNL     1       7.667 -11.689  20.889  1.00  0.00     0.482 C 
HETATM   39  N11 UNL     1       8.820 -12.592  20.905  1.00  0.00    -0.033 N 
HETATM   40  N12 UNL     1       6.620 -12.423  20.150  1.00  0.00    -0.033 N 
ATOM     41 3H11 UNL     1       9.584 -12.208  21.460  1.00  0.00     0.278 HD
ATOM     42 2H11 UNL     1       8.628 -13.429  21.455  1.00  0.00     0.278 HD
ATOM     43 1H11 UNL     1       9.128 -12.829  19.962  1.00  0.00     0.278 HD
ATOM     44 3H12 UNL     1       6.310 -13.249  20.662  1.00  0.00     0.278 HD
ATOM     45 2H12 UNL     1       5.740 -11.907  20.137  1.00  0.00     0.278 HD
ATOM     46 1H12 UNL     1       6.929 -12.660  19.207  1.00  0.00     0.278 HD
ATOM     47  H10 UNL     1       7.547 -12.037  22.899  1.00  0.00     0.165 HD
ENDBRANCH  34  37
ENDBRANCH  32  34
ENDBRANCH  25  27
ENDBRANCH   1  25
TORSDOF 15
ENDMDL
MODEL 5
REMARK VINA RESULT: -6.472723012      2.950      3.906
REMARK  15 active torsions:
REMARK  status: ('A' for Active; 'I' for Inactive)
REMARK    1  A    between atoms: O1_2  and  C2_3 
REMARK    2  A    between atoms: C2_3  and  C3_8 
REMARK    3  A    between atoms: N1_4  and  O2_6 
REMARK    4  A    between atoms: C4_11  and  C5_12 
REMARK    5  A    between atoms: C5_12  and  O3_13 
REMARK    6  A    between atoms: O3_13  and  C6_14 
REMARK    7  A    between atoms: C6_14  and  N3_15 
REMARK    8  A    between atoms: C6_14  and  N7_22 
REMARK    9  A    between atoms: N3_15  and  N4_16 
REMARK   10  A    between atoms: N4_16  and  N5_17 
REMARK   11  A    between atoms: N5_17  and  N6_19 
REMARK   12  A    between atoms: N7_22  and  C7_24 
REMARK   13  A    between atoms: C8_30  and  C9_31 
REMARK   14  A    between atoms: C9_31  and  O5_32 
REMARK   15  A    between atoms: C9_31  and  N10_34 
REMARK       I    between atoms: N10_34  and  C10_36 
REMARK       I    between atoms: C10_36  and  N11_37 
REMARK       I    between atoms: C10_36  and  N12_41 
ROOT
HETATM    1  C6  UNL     1       5.097  -8.617  25.641  1.00  0.00     0.320 C 
ENDROOT
BRANCH   1   2
HETATM    2  O3  UNL     1       3.744  -8.704  25.859  1.00  0.00    -0.304 OA
BRANCH   2   3
HETATM    3  C5  UNL     1       2.619  -9.336  25.790  1.00  0.00     0.239 C 
BRANCH   3   4
HETATM    4  C4  UNL     1       2.219 -10.206  26.991  1.00  0.00     0.066 A 
HETATM    5  N2  UNL     1       1.132  -9.986  27.683  1.00  0.00    -0.347 N 
HETATM    6  C3  UNL     1       0.703 -10.829  28.580  1.00  0.00     0.129 A 
ATOM      7  H2  UNL     1       0.603  -9.130  27.516  1.00  0.00     0.166 HD
HETATM    8  S1  UNL     1       1.927 -12.076  28.482  1.00  0.00    -0.051 SA
HETATM    9  C11 UNL     1       2.888 -11.378  27.259  1.00  0.00     0.114 A 
HETATM   10  N13 UNL     1       4.091 -11.868  26.662  1.00  0.00    -0.092 NA
BRANCH   6  11
HETATM   11  C2  UNL     1      -0.548 -11.048  29.320  1.00  0.00     0.196 C 
HETATM   12  N1  UNL     1      -1.624 -11.465  28.938  1.00  0.00    -0.245 N 
ATOM     13  H1  UNL     1      -2.241 -11.452  29.750  1.00  0.00     0.196 HD
BRANCH  11  14
HETATM   14  O1  UNL     1      -0.488 -10.695  30.728  1.00  0.00    -0.337 OA
HETATM   15  C1  UNL     1      -1.674 -10.926  31.497  1.00  0.00     0.211 C 
ENDBRANCH  11  14
BRANCH  12  16
HETATM   16  O2  UNL     1      -2.325 -11.916  27.956  1.00  0.00    -0.288 OA
ATOM     17  H2  UNL     1      -3.187 -12.022  27.573  1.00  0.00     0.244 HD
ENDBRANCH  12  16
ENDBRANCH   6  11
ENDBRANCH   3   4
ENDBRANCH   2   3
ENDBRANCH   1   2
BRANCH   1  18
HETATM   18  N3  UNL     1       5.639  -7.764  26.256  1.00  0.00    -0.264 NA
BRANCH  18  19
HETATM   19  N4  UNL     1       6.494  -7.028  26.946  1.00  0.00     0.078 NA
BRANCH  19  20
HETATM   20  N5  UNL     1       6.047  -6.692  28.167  1.00  0.00    -0.221 N 
ATOM     21  H5  UNL     1       5.712  -7.410  28.809  1.00  0.00     0.206 HD
BRANCH  20  22
HETATM   22  N6  UNL     1       6.046  -5.395  28.533  1.00  0.00    -0.332 N 
ATOM     23  H62 UNL     1       6.036  -4.672  27.814  1.00  0.00     0.178 HD
ATOM     24  H61 UNL     1       6.054  -5.158  29.525  1.00  0.00     0.178 HD
ENDBRANCH  20  22
ENDBRANCH  19  20
ENDBRANCH  18  19
ENDBRANCH   1  18
BRANCH   1  25
HETATM   25  N7  UNL     1       5.558  -9.591  24.733  1.00  0.00    -0.291 N 
ATOM     26  H7  UNL     1       4.919  -9.717  23.948  1.00  0.00     0.172 HD
BRANCH  25  27
HETATM   27  C7  UNL     1       6.541 -10.328  24.653  1.00  0.00     0.164 A 
HETATM   28  N8  UNL     1       7.648 -10.543  25.421  1.00  0.00    -0.223 N 
HETATM   29  O4  UNL     1       8.307 -11.521  24.974  1.00  0.00    -0.155 OA
ATOM     30  H8  UNL     1       7.906  -9.992  26.240  1.00  0.00     0.198 HD
HETATM   31  N9  UNL     1       7.757 -12.044  23.929  1.00  0.00    -0.234 N 
HETATM   32  C8  UNL     1       6.629 -11.345  23.662  1.00  0.00     0.153 A 
ATOM     33  H9  UNL     1       8.109 -12.842  23.399  1.00  0.00     0.197 HD
BRANCH  32  34
HETATM   34  C9  UNL     1       5.732 -11.581  22.537  1.00  0.00     0.172 C 
BRANCH  34  35
HETATM   35  O5  UNL     1       4.493 -11.834  22.849  1.00  0.00    -0.344 OA
ATOM     36  H5  UNL     1       3.891 -11.906  22.117  1.00  0.00     0.219 HD
ENDBRANCH  34  35
BRANCH  34  37
HETATM   37  N10 UNL     1       6.221 -11.518  21.262  1.00  0.00    -0.320 N 
HETATM   38  C10 UNL     1       7.063 -12.341  20.463  1.00  0.00     0.482 C 
HETATM   39  N11 UNL     1       6.881 -12.081  19.033  1.00  0.00    -0.033 N 
HETATM   40  N12 UNL     1       8.489 -12.062  20.721  1.00  0.00    -0.033 N 
ATOM     41 3H11 UNL     1       5.903 -12.174  18.761  1.00  0.00     0.278 HD
ATOM     42 2H11 UNL     1       7.013 -11.093  18.816  1.00  0.00     0.278 HD
ATOM     43 1H11 UNL     1       7.484 -12.671  18.461  1.00  0.00     0.278 HD
ATOM     44 3H12 UNL     1       8.706 -11.073  20.596  1.00  0.00     0.278 HD
ATOM     45 2H12 UNL     1       8.714 -12.148  21.713  1.00  0.00     0.278 HD
ATOM     46 1H12 UNL     1       9.093 -12.653  20.148  1.00  0.00     0.278 HD
ATOM     47  H10 UNL     1       5.909 -10.682  20.767  1.00  0.00     0.165 HD
ENDBRANCH  34  37
ENDBRANCH  32  34
ENDBRANCH  25  27
ENDBRANCH   1  25
TORSDOF 15
ENDMDL
