MODEL 1
REMARK VINA RESULT: -8.195160636      0.000      0.000
REMARK  2 active torsions:
REMARK  status: ('A' for Active; 'I' for Inactive)
REMARK    1  A    between atoms: O1_2  and  C2_3 
REMARK       I    between atoms: C2_3  and  N1_5 
REMARK    2  A    between atoms: C7_11  and  N2_12 
ROOT
HETATM    1  C2  UNL     1      -5.072   6.044 -16.034  1.00  0.00     0.372 C 
HETATM    2  O2  UNL     1      -4.079   5.309 -15.823  1.00  0.00    -0.238 OA
HETATM    3  N1  UNL     1      -5.046   7.200 -16.868  1.00  0.00    -0.244 N 
HETATM    4  C3  UNL     1      -6.055   8.008 -17.128  1.00  0.00     0.093 A 
HETATM    5 BR1  UNL     1      -7.815   7.797 -16.419  1.00  0.00    -0.030 Br
HETATM    6  C4  UNL     1      -5.603   9.014 -17.991  1.00  0.00     0.053 A 
HETATM    7  C5  UNL     1      -4.247   8.797 -18.266  1.00  0.00     0.016 A 
HETATM    8  C6  UNL     1      -3.214   9.336 -18.978  1.00  0.00     0.038 A 
HETATM    9  C7  UNL     1      -3.189  10.478 -19.803  1.00  0.00     0.111 A 
HETATM   10  N3  UNL     1      -2.060  10.859 -20.433  1.00  0.00    -0.346 N 
ATOM     11  H3  UNL     1      -2.107  11.694 -21.015  1.00  0.00     0.167 HD
HETATM   12  C8  UNL     1      -0.903  10.240 -20.358  1.00  0.00     0.008 A 
HETATM   13  C9  UNL     1       0.340  10.652 -21.046  1.00  0.00     0.068 C 
HETATM   14  C10 UNL     1      -0.861   9.113 -19.564  1.00  0.00     0.044 A 
HETATM   15  C11 UNL     1      -2.010   8.697 -18.902  1.00  0.00     0.023 A 
HETATM   16  S1  UNL     1      -2.331   7.384 -17.861  1.00  0.00    -0.070 SA
HETATM   17  C12 UNL     1      -3.972   7.674 -17.549  1.00  0.00     0.098 A 
ENDROOT
BRANCH   1  18
HETATM   18  O1  UNL     1      -6.265   5.716 -15.420  1.00  0.00    -0.308 OA
HETATM   19  C1  UNL     1      -6.347   5.283 -14.086  1.00  0.00     0.215 C 
ENDBRANCH   1  18
BRANCH   9  20
HETATM   20  N2  UNL     1      -4.193  11.220 -20.016  1.00  0.00    -0.385 N 
ATOM     21  H22 UNL     1      -4.995  10.745 -20.430  1.00  0.00     0.157 HD
ATOM     22  H21 UNL     1      -4.221  12.216 -19.799  1.00  0.00     0.157 HD
ENDBRANCH   9  20
TORSDOF 2
ENDMDL
MODEL 2
REMARK VINA RESULT: -8.083475360      1.634      1.994
REMARK  2 active torsions:
REMARK  status: ('A' for Active; 'I' for Inactive)
REMARK    1  A    between atoms: O1_2  and  C2_3 
REMARK       I    between atoms: C2_3  and  N1_5 
REMARK    2  A    between atoms: C7_11  and  N2_12 
ROOT
HETATM    1  C2  UNL     1      -6.210   7.571 -16.876  1.00  0.00     0.372 C 
HETATM    2  O2  UNL     1      -5.732   6.609 -16.231  1.00  0.00    -0.238 OA
HETATM    3  N1  UNL     1      -5.444   8.417 -17.732  1.00  0.00    -0.244 N 
HETATM    4  C3  UNL     1      -5.890   9.440 -18.434  1.00  0.00     0.093 A 
HETATM    5 BR1  UNL     1      -7.708  10.024 -18.454  1.00  0.00    -0.030 Br
HETATM    6  C4  UNL     1      -4.813   9.995 -19.137  1.00  0.00     0.053 A 
HETATM    7  C5  UNL     1      -3.656   9.263 -18.840  1.00  0.00     0.016 A 
HETATM    8  C6  UNL     1      -2.324   9.229 -19.137  1.00  0.00     0.038 A 
HETATM    9  C7  UNL     1      -1.568  10.064 -19.983  1.00  0.00     0.111 A 
HETATM   10  N3  UNL     1      -0.245   9.872 -20.153  1.00  0.00    -0.346 N 
ATOM     11  H3  UNL     1       0.245  10.511 -20.778  1.00  0.00     0.167 HD
HETATM   12  C8  UNL     1       0.465   8.927 -19.578  1.00  0.00     0.008 A 
HETATM   13  C9  UNL     1       1.917   8.709 -19.760  1.00  0.00     0.068 C 
HETATM   14  C10 UNL     1      -0.218   8.074 -18.736  1.00  0.00     0.044 A 
HETATM   15  C11 UNL     1      -1.582   8.249 -18.542  1.00  0.00     0.023 A 
HETATM   16  S1  UNL     1      -2.731   7.411 -17.598  1.00  0.00    -0.070 SA
HETATM   17  C12 UNL     1      -4.114   8.316 -17.978  1.00  0.00     0.098 A 
ENDROOT
BRANCH   1  18
HETATM   18  O1  UNL     1      -7.560   7.829 -16.751  1.00  0.00    -0.308 OA
HETATM   19  C1  UNL     1      -8.306   7.475 -15.615  1.00  0.00     0.215 C 
ENDBRANCH   1  18
BRANCH   9  20
HETATM   20  N2  UNL     1      -2.052  11.036 -20.635  1.00  0.00    -0.385 N 
ATOM     21  H22 UNL     1      -3.051  11.190 -20.495  1.00  0.00     0.157 HD
ATOM     22  H21 UNL     1      -1.506  11.632 -21.257  1.00  0.00     0.157 HD
ENDBRANCH   9  20
TORSDOF 2
ENDMDL
MODEL 3
REMARK VINA RESULT: -7.981482868      2.366      3.069
REMARK  2 active torsions:
REMARK  status: ('A' for Active; 'I' for Inactive)
REMARK    1  A    between atoms: O1_2  and  C2_3 
REMARK       I    between atoms: C2_3  and  N1_5 
REMARK    2  A    between atoms: C7_11  and  N2_12 
ROOT
HETATM    1  C2  UNL     1      -7.507   8.400 -17.228  1.00  0.00     0.372 C 
HETATM    2  O2  UNL     1      -7.903   9.328 -17.970  1.00  0.00    -0.238 OA
HETATM    3  N1  UNL     1      -6.153   7.959 -17.156  1.00  0.00    -0.244 N 
HETATM    4  C3  UNL     1      -5.677   6.992 -16.396  1.00  0.00     0.093 A 
HETATM    5 BR1  UNL     1      -6.733   5.946 -15.196  1.00  0.00    -0.030 Br
HETATM    6  C4  UNL     1      -4.301   6.883 -16.630  1.00  0.00     0.053 A 
HETATM    7  C5  UNL     1      -3.929   7.839 -17.584  1.00  0.00     0.016 A 
HETATM    8  C6  UNL     1      -2.828   8.288 -18.255  1.00  0.00     0.038 A 
HETATM    9  C7  UNL     1      -1.490   7.852 -18.184  1.00  0.00     0.111 A 
HETATM   10  N3  UNL     1      -0.529   8.425 -18.934  1.00  0.00    -0.346 N 
ATOM     11  H3  UNL     1       0.419   8.063 -18.837  1.00  0.00     0.167 HD
HETATM   12  C8  UNL     1      -0.714   9.413 -19.781  1.00  0.00     0.008 A 
HETATM   13  C9  UNL     1       0.336  10.047 -20.607  1.00  0.00     0.068 C 
HETATM   14  C10 UNL     1      -2.004   9.886 -19.897  1.00  0.00     0.044 A 
HETATM   15  C11 UNL     1      -3.016   9.313 -19.137  1.00  0.00     0.023 A 
HETATM   16  S1  UNL     1      -4.689   9.628 -19.017  1.00  0.00    -0.070 SA
HETATM   17  C12 UNL     1      -5.107   8.460 -17.860  1.00  0.00     0.098 A 
ENDROOT
BRANCH   1  18
HETATM   18  O1  UNL     1      -8.437   7.765 -16.430  1.00  0.00    -0.308 OA
HETATM   19  C1  UNL     1      -9.512   8.436 -15.823  1.00  0.00     0.215 C 
ENDBRANCH   1  18
BRANCH   9  20
HETATM   20  N2  UNL     1      -1.090   6.914 -17.432  1.00  0.00    -0.385 N 
ATOM     21  H22 UNL     1      -1.830   6.428 -16.924  1.00  0.00     0.157 HD
ATOM     22  H21 UNL     1      -0.112   6.647 -17.327  1.00  0.00     0.157 HD
ENDBRANCH   9  20
TORSDOF 2
ENDMDL
MODEL 4
REMARK VINA RESULT: -7.875784981      2.658      3.499
REMARK  2 active torsions:
REMARK  status: ('A' for Active; 'I' for Inactive)
REMARK    1  A    between atoms: O1_2  and  C2_3 
REMARK       I    between atoms: C2_3  and  N1_5 
REMARK    2  A    between atoms: C7_11  and  N2_12 
ROOT
HETATM    1  C2  UNL     1      -7.285   9.810 -17.732  1.00  0.00     0.372 C 
HETATM    2  O2  UNL     1      -7.333  10.780 -18.524  1.00  0.00    -0.238 OA
HETATM    3  N1  UNL     1      -6.126   9.006 -17.525  1.00  0.00    -0.244 N 
HETATM    4  C3  UNL     1      -6.015   7.977 -16.709  1.00  0.00     0.093 A 
HETATM    5 BR1  UNL     1      -7.425   7.325 -15.599  1.00  0.00    -0.030 Br
HETATM    6  C4  UNL     1      -4.712   7.472 -16.809  1.00  0.00     0.053 A 
HETATM    7  C5  UNL     1      -4.001   8.243 -17.738  1.00  0.00     0.016 A 
HETATM    8  C6  UNL     1      -2.764   8.332 -18.309  1.00  0.00     0.038 A 
HETATM    9  C7  UNL     1      -1.619   7.538 -18.104  1.00  0.00     0.111 A 
HETATM   10  N3  UNL     1      -0.472   7.782 -18.769  1.00  0.00    -0.346 N 
ATOM     11  H3  UNL     1       0.321   7.171 -18.576  1.00  0.00     0.167 HD
HETATM   12  C8  UNL     1      -0.292   8.745 -19.645  1.00  0.00     0.008 A 
HETATM   13  C9  UNL     1       0.963   9.020 -20.377  1.00  0.00     0.068 C 
HETATM   14  C10 UNL     1      -1.378   9.560 -19.890  1.00  0.00     0.044 A 
HETATM   15  C11 UNL     1      -2.573   9.331 -19.220  1.00  0.00     0.023 A 
HETATM   16  S1  UNL     1      -4.090  10.112 -19.265  1.00  0.00    -0.070 SA
HETATM   17  C12 UNL     1      -4.923   9.160 -18.135  1.00  0.00     0.098 A 
ENDROOT
BRANCH   1  18
HETATM   18  O1  UNL     1      -8.424   9.500 -17.016  1.00  0.00    -0.308 OA
HETATM   19  C1  UNL     1      -9.169  10.457 -16.308  1.00  0.00     0.215 C 
ENDBRANCH   1  18
BRANCH   9  20
HETATM   20  N2  UNL     1      -1.570   6.558 -17.304  1.00  0.00    -0.385 N 
ATOM     21  H22 UNL     1      -0.787   5.921 -17.454  1.00  0.00     0.157 HD
ATOM     22  H21 UNL     1      -2.249   6.395 -16.560  1.00  0.00     0.157 HD
ENDBRANCH   9  20
TORSDOF 2
ENDMDL
MODEL 5
REMARK VINA RESULT: -7.823422496      3.626      6.604
REMARK  2 active torsions:
REMARK  status: ('A' for Active; 'I' for Inactive)
REMARK    1  A    between atoms: O1_2  and  C2_3 
REMARK       I    between atoms: C2_3  and  N1_5 
REMARK    2  A    between atoms: C7_11  and  N2_12 
ROOT
HETATM    1  C2  UNL     1      -1.543  10.155 -19.932  1.00  0.00     0.372 C 
HETATM    2  O2  UNL     1      -2.225  10.885 -20.689  1.00  0.00    -0.238 OA
HETATM    3  N1  UNL     1      -2.097   9.311 -18.925  1.00  0.00    -0.244 N 
HETATM    4  C3  UNL     1      -1.433   8.524 -18.102  1.00  0.00     0.093 A 
HETATM    5 BR1  UNL     1       0.468   8.341 -18.084  1.00  0.00    -0.030 Br
HETATM    6  C4  UNL     1      -2.355   7.872 -17.275  1.00  0.00     0.053 A 
HETATM    7  C5  UNL     1      -3.647   8.291 -17.621  1.00  0.00     0.016 A 
HETATM    8  C6  UNL     1      -4.951   8.094 -17.268  1.00  0.00     0.038 A 
HETATM    9  C7  UNL     1      -5.498   7.261 -16.273  1.00  0.00     0.111 A 
HETATM   10  N3  UNL     1      -6.829   7.198 -16.070  1.00  0.00    -0.346 N 
ATOM     11  H3  UNL     1      -7.162   6.576 -15.333  1.00  0.00     0.167 HD
HETATM   12  C8  UNL     1      -7.733   7.873 -16.743  1.00  0.00     0.008 A 
HETATM   13  C9  UNL     1      -9.194   7.809 -16.527  1.00  0.00     0.068 C 
HETATM   14  C10 UNL     1      -7.260   8.709 -17.734  1.00  0.00     0.044 A 
HETATM   15  C11 UNL     1      -5.893   8.794 -17.965  1.00  0.00     0.023 A 
HETATM   16  S1  UNL     1      -4.964   9.697 -19.076  1.00  0.00    -0.070 SA
HETATM   17  C12 UNL     1      -3.415   9.169 -18.634  1.00  0.00     0.098 A 
ENDROOT
BRANCH   1  18
HETATM   18  O1  UNL     1      -0.170  10.167 -20.082  1.00  0.00    -0.308 OA
HETATM   19  C1  UNL     1       0.469  10.592 -21.259  1.00  0.00     0.215 C 
ENDBRANCH   1  18
BRANCH   9  20
HETATM   20  N2  UNL     1      -4.808   6.523 -15.509  1.00  0.00    -0.385 N 
ATOM     21  H22 UNL     1      -3.979   6.970 -15.117  1.00  0.00     0.157 HD
ATOM     22  H21 UNL     1      -5.043   5.555 -15.287  1.00  0.00     0.157 HD
ENDBRANCH   9  20
TORSDOF 2
ENDMDL
