MODEL 1
REMARK VINA RESULT: -6.341238237      0.000      0.000
REMARK  3 active torsions:
REMARK  status: ('A' for Active; 'I' for Inactive)
REMARK    1  A    between atoms: C1_2  and  O2_4 
REMARK    2  A    between atoms: O2_4  and  C2_5 
REMARK       I    between atoms: C2_5  and  N2_7 
REMARK    3  A    between atoms: N2_7  and  N3_9 
ROOT
HETATM    1  N3  UNL     1      23.470   7.943  40.089  1.00  0.00    -0.189 N 
HETATM    2  C3  UNL     1      23.868   7.060  41.058  1.00  0.00     0.270 A 
HETATM    3  O4  UNL     1      23.022   6.671  41.919  1.00  0.00    -0.266 OA
HETATM    4  C4  UNL     1      25.141   6.578  41.139  1.00  0.00     0.093 A 
HETATM    5  C5  UNL     1      26.062   6.983  40.225  1.00  0.00     0.096 A 
HETATM    6  N4  UNL     1      25.653   7.847  39.285  1.00  0.00    -0.341 N 
ATOM      7  H4  UNL     1      26.330   8.163  38.591  1.00  0.00     0.167 HD
HETATM    8  C6  UNL     1      24.382   8.323  39.211  1.00  0.00     0.200 A 
HETATM    9  S1  UNL     1      24.074   9.354  38.012  1.00  0.00    -0.038 SA
ENDROOT
BRANCH   1  10
HETATM   10  N2  UNL     1      22.171   8.337  40.131  1.00  0.00    -0.233 N 
HETATM   11  C2  UNL     1      21.456   9.403  40.682  1.00  0.00     0.388 C 
HETATM   12  O3  UNL     1      21.826  10.371  41.340  1.00  0.00    -0.236 OA
ATOM     13  H2  UNL     1      21.561   7.689  39.633  1.00  0.00     0.193 HD
BRANCH  11  14
HETATM   14  O2  UNL     1      20.035   9.412  40.465  1.00  0.00    -0.210 OA
BRANCH  14  15
HETATM   15  C1  UNL     1      19.496   9.859  39.262  1.00  0.00     0.381 C 
HETATM   16  N1  UNL     1      18.137  10.278  39.172  1.00  0.00    -0.032 NA
HETATM   17  O1  UNL     1      20.227   9.892  38.236  1.00  0.00    -0.242 OA
ENDBRANCH  14  15
ENDBRANCH  11  14
ENDBRANCH   1  10
TORSDOF 3
ENDMDL
MODEL 2
REMARK VINA RESULT: -6.059928889      2.421      3.023
REMARK  3 active torsions:
REMARK  status: ('A' for Active; 'I' for Inactive)
REMARK    1  A    between atoms: C1_2  and  O2_4 
REMARK    2  A    between atoms: O2_4  and  C2_5 
REMARK       I    between atoms: C2_5  and  N2_7 
REMARK    3  A    between atoms: N2_7  and  N3_9 
ROOT
HETATM    1  N3  UNL     1      24.788   7.443  40.917  1.00  0.00    -0.189 N 
HETATM    2  C3  UNL     1      25.582   8.481  40.505  1.00  0.00     0.270 A 
HETATM    3  O4  UNL     1      25.038   9.581  40.188  1.00  0.00    -0.266 OA
HETATM    4  C4  UNL     1      26.940   8.382  40.418  1.00  0.00     0.093 A 
HETATM    5  C5  UNL     1      27.541   7.210  40.753  1.00  0.00     0.096 A 
HETATM    6  N4  UNL     1      26.747   6.206  41.154  1.00  0.00    -0.341 N 
ATOM      7  H4  UNL     1      27.180   5.319  41.410  1.00  0.00     0.167 HD
HETATM    8  C6  UNL     1      25.394   6.313  41.237  1.00  0.00     0.200 A 
HETATM    9  S1  UNL     1      24.604   5.002  41.740  1.00  0.00    -0.038 SA
ENDROOT
BRANCH   1  10
HETATM   10  N2  UNL     1      23.452   7.685  40.954  1.00  0.00    -0.233 N 
HETATM   11  C2  UNL     1      22.355   7.426  40.129  1.00  0.00     0.388 C 
HETATM   12  O3  UNL     1      22.275   6.857  39.044  1.00  0.00    -0.236 OA
ATOM     13  H2  UNL     1      23.181   8.184  41.801  1.00  0.00     0.193 HD
BRANCH  11  14
HETATM   14  O2  UNL     1      21.074   7.887  40.590  1.00  0.00    -0.210 OA
BRANCH  14  15
HETATM   15  C1  UNL     1      20.785   9.248  40.664  1.00  0.00     0.381 C 
HETATM   16  N1  UNL     1      21.730  10.176  41.189  1.00  0.00    -0.032 NA
HETATM   17  O1  UNL     1      19.666   9.661  40.257  1.00  0.00    -0.242 OA
ENDBRANCH  14  15
ENDBRANCH  11  14
ENDBRANCH   1  10
TORSDOF 3
ENDMDL
MODEL 3
REMARK VINA RESULT: -6.034701414      2.528      5.539
REMARK  3 active torsions:
REMARK  status: ('A' for Active; 'I' for Inactive)
REMARK    1  A    between atoms: C1_2  and  O2_4 
REMARK    2  A    between atoms: O2_4  and  C2_5 
REMARK       I    between atoms: C2_5  and  N2_7 
REMARK    3  A    between atoms: N2_7  and  N3_9 
ROOT
HETATM    1  N3  UNL     1      22.396   8.656  38.784  1.00  0.00    -0.189 N 
HETATM    2  C3  UNL     1      22.076   8.583  37.454  1.00  0.00     0.270 A 
HETATM    3  O4  UNL     1      22.929   8.112  36.643  1.00  0.00    -0.266 OA
HETATM    4  C4  UNL     1      20.874   8.999  36.960  1.00  0.00     0.093 A 
HETATM    5  C5  UNL     1      19.948   9.508  37.814  1.00  0.00     0.096 A 
HETATM    6  N4  UNL     1      20.279   9.570  39.112  1.00  0.00    -0.341 N 
ATOM      7  H4  UNL     1      19.597   9.949  39.768  1.00  0.00     0.167 HD
HETATM    8  C6  UNL     1      21.480   9.154  39.596  1.00  0.00     0.200 A 
HETATM    9  S1  UNL     1      21.700   9.306  41.185  1.00  0.00    -0.038 SA
ENDROOT
BRANCH   1  10
HETATM   10  N2  UNL     1      23.629   8.205  39.132  1.00  0.00    -0.233 N 
HETATM   11  C2  UNL     1      24.146   7.103  39.817  1.00  0.00     0.388 C 
HETATM   12  O3  UNL     1      23.589   6.145  40.345  1.00  0.00    -0.236 OA
ATOM     13  H2  UNL     1      24.366   8.832  38.811  1.00  0.00     0.193 HD
BRANCH  11  14
HETATM   14  O2  UNL     1      25.575   7.035  39.952  1.00  0.00    -0.210 OA
BRANCH  14  15
HETATM   15  C1  UNL     1      26.310   8.145  40.363  1.00  0.00     0.381 C 
HETATM   16  N1  UNL     1      27.735   8.125  40.371  1.00  0.00    -0.032 NA
HETATM   17  O1  UNL     1      25.699   9.183  40.733  1.00  0.00    -0.242 OA
ENDBRANCH  14  15
ENDBRANCH  11  14
ENDBRANCH   1  10
TORSDOF 3
ENDMDL
MODEL 4
REMARK VINA RESULT: -5.964735388      2.035      4.844
REMARK  3 active torsions:
REMARK  status: ('A' for Active; 'I' for Inactive)
REMARK    1  A    between atoms: C1_2  and  O2_4 
REMARK    2  A    between atoms: O2_4  and  C2_5 
REMARK       I    between atoms: C2_5  and  N2_7 
REMARK    3  A    between atoms: N2_7  and  N3_9 
ROOT
HETATM    1  N3  UNL     1      22.173   8.918  39.096  1.00  0.00    -0.189 N 
HETATM    2  C3  UNL     1      21.014   9.266  39.739  1.00  0.00     0.270 A 
HETATM    3  O4  UNL     1      20.862   8.933  40.952  1.00  0.00    -0.266 OA
HETATM    4  C4  UNL     1      20.010   9.959  39.128  1.00  0.00     0.093 A 
HETATM    5  C5  UNL     1      20.155  10.325  37.827  1.00  0.00     0.096 A 
HETATM    6  N4  UNL     1      21.296   9.976  37.215  1.00  0.00    -0.341 N 
ATOM      7  H4  UNL     1      21.423  10.242  36.239  1.00  0.00     0.167 HD
HETATM    8  C6  UNL     1      22.292   9.285  37.832  1.00  0.00     0.200 A 
HETATM    9  S1  UNL     1      23.590   8.954  36.937  1.00  0.00    -0.038 SA
ENDROOT
BRANCH   1  10
HETATM   10  N2  UNL     1      23.084   8.230  39.830  1.00  0.00    -0.233 N 
HETATM   11  C2  UNL     1      24.318   8.504  40.425  1.00  0.00     0.388 C 
HETATM   12  O3  UNL     1      24.988   9.532  40.460  1.00  0.00    -0.236 OA
ATOM     13  H2  UNL     1      22.794   7.265  39.987  1.00  0.00     0.193 HD
BRANCH  11  14
HETATM   14  O2  UNL     1      24.951   7.425  41.132  1.00  0.00    -0.210 OA
BRANCH  14  15
HETATM   15  C1  UNL     1      24.331   6.183  41.250  1.00  0.00     0.381 C 
HETATM   16  N1  UNL     1      23.429   5.906  42.318  1.00  0.00    -0.032 NA
HETATM   17  O1  UNL     1      24.576   5.291  40.394  1.00  0.00    -0.242 OA
ENDBRANCH  14  15
ENDBRANCH  11  14
ENDBRANCH   1  10
TORSDOF 3
ENDMDL
MODEL 5
REMARK VINA RESULT: -5.889963857      2.136      5.256
REMARK  3 active torsions:
REMARK  status: ('A' for Active; 'I' for Inactive)
REMARK    1  A    between atoms: C1_2  and  O2_4 
REMARK    2  A    between atoms: O2_4  and  C2_5 
REMARK       I    between atoms: C2_5  and  N2_7 
REMARK    3  A    between atoms: N2_7  and  N3_9 
ROOT
HETATM    1  N3  UNL     1      22.624   8.736  38.954  1.00  0.00    -0.189 N 
HETATM    2  C3  UNL     1      21.849   9.185  39.991  1.00  0.00     0.270 A 
HETATM    3  O4  UNL     1      22.294   9.090  41.174  1.00  0.00    -0.266 OA
HETATM    4  C4  UNL     1      20.613   9.732  39.807  1.00  0.00     0.093 A 
HETATM    5  C5  UNL     1      20.120   9.843  38.545  1.00  0.00     0.096 A 
HETATM    6  N4  UNL     1      20.893   9.399  37.543  1.00  0.00    -0.341 N 
ATOM      7  H4  UNL     1      20.539   9.473  36.590  1.00  0.00     0.167 HD
HETATM    8  C6  UNL     1      22.123   8.854  37.736  1.00  0.00     0.200 A 
HETATM    9  S1  UNL     1      22.907   8.376  36.412  1.00  0.00    -0.038 SA
ENDROOT
BRANCH   1  10
HETATM   10  N2  UNL     1      23.832   8.215  39.287  1.00  0.00    -0.233 N 
HETATM   11  C2  UNL     1      24.297   7.037  39.876  1.00  0.00     0.388 C 
HETATM   12  O3  UNL     1      23.698   6.052  40.296  1.00  0.00    -0.236 OA
ATOM     13  H2  UNL     1      24.597   8.845  39.045  1.00  0.00     0.193 HD
BRANCH  11  14
HETATM   14  O2  UNL     1      25.719   6.910  40.038  1.00  0.00    -0.210 OA
BRANCH  14  15
HETATM   15  C1  UNL     1      26.498   8.002  40.416  1.00  0.00     0.381 C 
HETATM   16  N1  UNL     1      27.921   7.944  40.374  1.00  0.00    -0.032 NA
HETATM   17  O1  UNL     1      25.929   9.058  40.800  1.00  0.00    -0.242 OA
ENDBRANCH  14  15
ENDBRANCH  11  14
ENDBRANCH   1  10
TORSDOF 3
ENDMDL
