MODEL 1
REMARK VINA RESULT: -8.138621402      0.000      0.000
REMARK  4 active torsions:
REMARK  status: ('A' for Active; 'I' for Inactive)
REMARK    1  A    between atoms: N1_6  and  C6_7 
REMARK    2  A    between atoms: C6_7  and  C7_8 
REMARK    3  A    between atoms: C9_10  and  C10_11 
REMARK    4  A    between atoms: N2_14  and  C13_15 
ROOT
HETATM    1  C7  UNL     1      -0.926   2.195  25.783  1.00  0.00     0.038 A 
HETATM    2  C8  UNL     1      -1.740   1.305  25.040  1.00  0.00     0.036 A 
HETATM    3  C9  UNL     1      -1.355   0.009  24.788  1.00  0.00    -0.029 A 
HETATM    4  C21 UNL     1      -0.144  -0.459  25.256  1.00  0.00     0.056 A 
HETATM    5 CL1  UNL     1       0.417  -2.113  24.945  1.00  0.00    -0.082 Cl
HETATM    6  C22 UNL     1       0.637   0.423  25.975  1.00  0.00     0.112 A 
HETATM    7  N3  UNL     1       0.238   1.680  26.212  1.00  0.00    -0.366 N 
ATOM      8  H3  UNL     1       0.858   2.284  26.751  1.00  0.00     0.165 HD
ENDROOT
BRANCH   3   9
HETATM    9  C10 UNL     1      -2.255  -1.022  24.220  1.00  0.00     0.027 C 
HETATM   10  C11 UNL     1      -2.092  -1.372  22.788  1.00  0.00     0.030 C 
HETATM   11  C12 UNL     1      -2.002  -0.132  21.959  1.00  0.00     0.128 C 
HETATM   12  N2  UNL     1      -3.367   0.377  21.876  1.00  0.00    -0.367 N 
HETATM   13  C19 UNL     1      -4.053   0.442  23.061  1.00  0.00     0.064 C 
HETATM   14  C20 UNL     1      -3.686  -0.412  24.228  1.00  0.00     0.054 C 
BRANCH  12  15
HETATM   15  C13 UNL     1      -3.897   0.363  20.589  1.00  0.00    -0.012 C 
HETATM   16  C14 UNL     1      -2.946   0.115  19.442  1.00  0.00     0.052 C 
HETATM   17  C15 UNL     1      -3.588   0.662  18.183  1.00  0.00     0.006 C 
HETATM   18  C16 UNL     1      -3.779   2.155  18.273  1.00  0.00     0.001 C 
HETATM   19  C17 UNL     1      -4.499   2.567  19.543  1.00  0.00     0.006 C 
HETATM   20  C18 UNL     1      -4.988   1.328  20.243  1.00  0.00     0.052 C 
ENDBRANCH  12  15
ENDBRANCH   3   9
BRANCH   1  21
HETATM   21  C6  UNL     1      -1.417   3.564  26.081  1.00  0.00     0.329 C 
BRANCH  21  22
HETATM   22  N1  UNL     1      -1.359   4.456  24.981  1.00  0.00     0.098 N 
HETATM   23  C2  UNL     1      -2.636   4.650  24.359  1.00  0.00     0.219 C 
HETATM   24  C1  UNL     1      -2.733   4.101  22.961  1.00  0.00     0.043 C 
HETATM   25  C3  UNL     1      -2.856   6.157  24.306  1.00  0.00     0.037 C 
HETATM   26  C4  UNL     1      -1.458   6.702  24.246  1.00  0.00     0.032 C 
HETATM   27  C5  UNL     1      -0.695   5.689  25.125  1.00  0.00     0.273 C 
ENDBRANCH  21  22
ENDBRANCH   1  21
TORSDOF 4
ENDMDL
MODEL 2
REMARK VINA RESULT: -8.000346204      2.585      6.999
REMARK  4 active torsions:
REMARK  status: ('A' for Active; 'I' for Inactive)
REMARK    1  A    between atoms: N1_6  and  C6_7 
REMARK    2  A    between atoms: C6_7  and  C7_8 
REMARK    3  A    between atoms: C9_10  and  C10_11 
REMARK    4  A    between atoms: N2_14  and  C13_15 
ROOT
HETATM    1  C7  UNL     1      -3.539   2.589  21.277  1.00  0.00     0.038 A 
HETATM    2  C8  UNL     1      -3.190   2.929  22.607  1.00  0.00     0.036 A 
HETATM    3  C9  UNL     1      -2.946   4.229  22.982  1.00  0.00    -0.029 A 
HETATM    4  C21 UNL     1      -3.032   5.247  22.055  1.00  0.00     0.056 A 
HETATM    5 CL1  UNL     1      -2.708   6.941  22.475  1.00  0.00    -0.082 Cl
HETATM    6  C22 UNL     1      -3.369   4.897  20.764  1.00  0.00     0.112 A 
HETATM    7  N3  UNL     1      -3.606   3.624  20.422  1.00  0.00    -0.366 N 
ATOM      8  H3  UNL     1      -3.854   3.427  19.452  1.00  0.00     0.165 HD
ENDROOT
BRANCH   3   9
HETATM    9  C10 UNL     1      -2.804   4.667  24.391  1.00  0.00     0.027 C 
HETATM   10  C11 UNL     1      -1.514   4.401  25.073  1.00  0.00     0.030 C 
HETATM   11  C12 UNL     1      -1.084   2.990  24.837  1.00  0.00     0.128 C 
HETATM   12  N2  UNL     1      -1.929   2.179  25.707  1.00  0.00    -0.367 N 
HETATM   13  C19 UNL     1      -3.270   2.459  25.668  1.00  0.00     0.064 C 
HETATM   14  C20 UNL     1      -3.781   3.790  25.226  1.00  0.00     0.054 C 
BRANCH  12  15
HETATM   15  C13 UNL     1      -1.231   1.514  26.711  1.00  0.00    -0.012 C 
HETATM   16  C14 UNL     1       0.216   1.169  26.447  1.00  0.00     0.052 C 
HETATM   17  C15 UNL     1       0.597   0.033  27.376  1.00  0.00     0.006 C 
HETATM   18  C16 UNL     1      -0.206  -1.208  27.077  1.00  0.00     0.001 C 
HETATM   19  C17 UNL     1      -1.698  -0.933  27.043  1.00  0.00     0.006 C 
HETATM   20  C18 UNL     1      -1.939   0.473  27.521  1.00  0.00     0.052 C 
ENDBRANCH  12  15
ENDBRANCH   3   9
BRANCH   1  21
HETATM   21  C6  UNL     1      -3.854   1.178  20.937  1.00  0.00     0.329 C 
BRANCH  21  22
HETATM   22  N1  UNL     1      -2.747   0.297  21.025  1.00  0.00     0.098 N 
HETATM   23  C2  UNL     1      -2.915  -0.701  22.041  1.00  0.00     0.219 C 
HETATM   24  C1  UNL     1      -1.963  -0.572  23.199  1.00  0.00     0.043 C 
HETATM   25  C3  UNL     1      -2.673  -2.043  21.359  1.00  0.00     0.037 C 
HETATM   26  C4  UNL     1      -1.732  -1.691  20.243  1.00  0.00     0.032 C 
HETATM   27  C5  UNL     1      -2.231  -0.284  19.852  1.00  0.00     0.273 C 
ENDBRANCH  21  22
ENDBRANCH   1  21
TORSDOF 4
ENDMDL
MODEL 3
REMARK VINA RESULT: -7.814090721      2.316      5.473
REMARK  4 active torsions:
REMARK  status: ('A' for Active; 'I' for Inactive)
REMARK    1  A    between atoms: N1_6  and  C6_7 
REMARK    2  A    between atoms: C6_7  and  C7_8 
REMARK    3  A    between atoms: C9_10  and  C10_11 
REMARK    4  A    between atoms: N2_14  and  C13_15 
ROOT
HETATM    1  C7  UNL     1      -3.175   3.664  21.955  1.00  0.00     0.038 A 
HETATM    2  C8  UNL     1      -3.391   2.309  22.308  1.00  0.00     0.036 A 
HETATM    3  C9  UNL     1      -3.856   1.388  21.400  1.00  0.00    -0.029 A 
HETATM    4  C21 UNL     1      -4.134   1.771  20.103  1.00  0.00     0.056 A 
HETATM    5 CL1  UNL     1      -4.757   0.633  18.892  1.00  0.00    -0.082 Cl
HETATM    6  C22 UNL     1      -3.921   3.095  19.778  1.00  0.00     0.112 A 
HETATM    7  N3  UNL     1      -3.463   3.973  20.680  1.00  0.00    -0.366 N 
ATOM      8  H3  UNL     1      -3.324   4.938  20.379  1.00  0.00     0.165 HD
ENDROOT
BRANCH   3   9
HETATM    9  C10 UNL     1      -3.882  -0.073  21.648  1.00  0.00     0.027 C 
HETATM   10  C11 UNL     1      -3.938  -0.537  23.054  1.00  0.00     0.030 C 
HETATM   11  C12 UNL     1      -2.929   0.193  23.881  1.00  0.00     0.128 C 
HETATM   12  N2  UNL     1      -1.643  -0.402  23.535  1.00  0.00    -0.367 N 
HETATM   13  C19 UNL     1      -1.394  -0.550  22.195  1.00  0.00     0.064 C 
HETATM   14  C20 UNL     1      -2.499  -0.622  21.195  1.00  0.00     0.054 C 
BRANCH  12  15
HETATM   15  C13 UNL     1      -1.030  -1.072  24.589  1.00  0.00    -0.012 C 
HETATM   16  C14 UNL     1      -1.585  -0.850  25.977  1.00  0.00     0.052 C 
HETATM   17  C15 UNL     1      -0.497  -1.205  26.972  1.00  0.00     0.006 C 
HETATM   18  C16 UNL     1       0.692  -0.287  26.829  1.00  0.00     0.001 C 
HETATM   19  C17 UNL     1       1.188  -0.209  25.397  1.00  0.00     0.006 C 
HETATM   20  C18 UNL     1       0.458  -1.238  24.577  1.00  0.00     0.052 C 
ENDBRANCH  12  15
ENDBRANCH   3   9
BRANCH   1  21
HETATM   21  C6  UNL     1      -2.611   4.604  22.956  1.00  0.00     0.329 C 
BRANCH  21  22
HETATM   22  N1  UNL     1      -2.803   4.204  24.303  1.00  0.00     0.098 N 
HETATM   23  C2  UNL     1      -1.590   4.240  25.068  1.00  0.00     0.219 C 
HETATM   24  C1  UNL     1      -1.099   2.889  25.511  1.00  0.00     0.043 C 
HETATM   25  C3  UNL     1      -1.896   5.076  26.305  1.00  0.00     0.037 C 
HETATM   26  C4  UNL     1      -3.370   4.864  26.502  1.00  0.00     0.032 C 
HETATM   27  C5  UNL     1      -3.863   4.758  25.044  1.00  0.00     0.273 C 
ENDBRANCH  21  22
ENDBRANCH   1  21
TORSDOF 4
ENDMDL
MODEL 4
REMARK VINA RESULT: -7.772438836      0.789      1.361
REMARK  4 active torsions:
REMARK  status: ('A' for Active; 'I' for Inactive)
REMARK    1  A    between atoms: N1_6  and  C6_7 
REMARK    2  A    between atoms: C6_7  and  C7_8 
REMARK    3  A    between atoms: C9_10  and  C10_11 
REMARK    4  A    between atoms: N2_14  and  C13_15 
ROOT
HETATM    1  C7  UNL     1      -1.699   1.776  26.414  1.00  0.00     0.038 A 
HETATM    2  C8  UNL     1      -2.324   0.895  25.498  1.00  0.00     0.036 A 
HETATM    3  C9  UNL     1      -1.658  -0.178  24.955  1.00  0.00    -0.029 A 
HETATM    4  C21 UNL     1      -0.341  -0.420  25.291  1.00  0.00     0.056 A 
HETATM    5 CL1  UNL     1       0.577  -1.776  24.607  1.00  0.00    -0.082 Cl
HETATM    6  C22 UNL     1       0.252   0.451  26.182  1.00  0.00     0.112 A 
HETATM    7  N3  UNL     1      -0.419   1.487  26.701  1.00  0.00    -0.366 N 
ATOM      8  H3  UNL     1       0.073   2.095  27.357  1.00  0.00     0.165 HD
ENDROOT
BRANCH   3   9
HETATM    9  C10 UNL     1      -2.321  -1.253  24.179  1.00  0.00     0.027 C 
HETATM   10  C11 UNL     1      -1.998  -1.366  22.737  1.00  0.00     0.030 C 
HETATM   11  C12 UNL     1      -2.068  -0.024  22.083  1.00  0.00     0.128 C 
HETATM   12  N2  UNL     1      -3.491   0.261  21.938  1.00  0.00    -0.367 N 
HETATM   13  C19 UNL     1      -4.261   0.046  23.052  1.00  0.00     0.064 C 
HETATM   14  C20 UNL     1      -3.833  -0.892  24.131  1.00  0.00     0.054 C 
BRANCH  12  15
HETATM   15  C13 UNL     1      -3.919   0.341  20.615  1.00  0.00    -0.012 C 
HETATM   16  C14 UNL     1      -2.882   0.153  19.532  1.00  0.00     0.052 C 
HETATM   17  C15 UNL     1      -3.416   0.793  18.266  1.00  0.00     0.006 C 
HETATM   18  C16 UNL     1      -3.595   2.280  18.441  1.00  0.00     0.001 C 
HETATM   19  C17 UNL     1      -4.408   2.620  19.676  1.00  0.00     0.006 C 
HETATM   20  C18 UNL     1      -4.966   1.347  20.250  1.00  0.00     0.052 C 
ENDBRANCH  12  15
ENDBRANCH   3   9
BRANCH   1  21
HETATM   21  C6  UNL     1      -2.482   2.883  27.021  1.00  0.00     0.329 C 
BRANCH  21  22
HETATM   22  N1  UNL     1      -2.663   4.002  26.170  1.00  0.00     0.098 N 
HETATM   23  C2  UNL     1      -1.633   4.114  25.178  1.00  0.00     0.219 C 
HETATM   24  C1  UNL     1      -0.742   5.315  25.344  1.00  0.00     0.043 C 
HETATM   25  C3  UNL     1      -2.349   4.222  23.837  1.00  0.00     0.037 C 
HETATM   26  C4  UNL     1      -3.662   4.854  24.203  1.00  0.00     0.032 C 
HETATM   27  C5  UNL     1      -3.924   4.235  25.592  1.00  0.00     0.273 C 
ENDBRANCH  21  22
ENDBRANCH   1  21
TORSDOF 4
ENDMDL
MODEL 5
REMARK VINA RESULT: -7.683034075      1.527      5.712
REMARK  4 active torsions:
REMARK  status: ('A' for Active; 'I' for Inactive)
REMARK    1  A    between atoms: N1_6  and  C6_7 
REMARK    2  A    between atoms: C6_7  and  C7_8 
REMARK    3  A    between atoms: C9_10  and  C10_11 
REMARK    4  A    between atoms: N2_14  and  C13_15 
ROOT
HETATM    1  C7  UNL     1      -2.175  -0.322  21.450  1.00  0.00     0.038 A 
HETATM    2  C8  UNL     1      -2.809   0.332  22.535  1.00  0.00     0.036 A 
HETATM    3  C9  UNL     1      -2.406   0.136  23.834  1.00  0.00    -0.029 A 
HETATM    4  C21 UNL     1      -1.362  -0.721  24.116  1.00  0.00     0.056 A 
HETATM    5 CL1  UNL     1      -0.811  -1.031  25.774  1.00  0.00    -0.082 Cl
HETATM    6  C22 UNL     1      -0.759  -1.352  23.046  1.00  0.00     0.112 A 
HETATM    7  N3  UNL     1      -1.166  -1.141  21.788  1.00  0.00    -0.366 N 
ATOM      8  H3  UNL     1      -0.680  -1.635  21.040  1.00  0.00     0.165 HD
ENDROOT
BRANCH   3   9
HETATM    9  C10 UNL     1      -2.876   0.957  24.976  1.00  0.00     0.027 C 
HETATM   10  C11 UNL     1      -3.860   2.030  24.699  1.00  0.00     0.030 C 
HETATM   11  C12 UNL     1      -3.429   2.837  23.517  1.00  0.00     0.128 C 
HETATM   12  N2  UNL     1      -2.350   3.690  24.004  1.00  0.00    -0.367 N 
HETATM   13  C19 UNL     1      -1.382   3.064  24.745  1.00  0.00     0.064 C 
HETATM   14  C20 UNL     1      -1.648   1.781  25.460  1.00  0.00     0.054 C 
BRANCH  12  15
HETATM   15  C13 UNL     1      -2.649   5.049  23.976  1.00  0.00    -0.012 C 
HETATM   16  C14 UNL     1      -2.637   5.740  22.632  1.00  0.00     0.052 C 
HETATM   17  C15 UNL     1      -2.449   7.224  22.878  1.00  0.00     0.006 C 
HETATM   18  C16 UNL     1      -1.114   7.504  23.521  1.00  0.00     0.001 C 
HETATM   19  C17 UNL     1      -0.882   6.656  24.758  1.00  0.00     0.006 C 
HETATM   20  C18 UNL     1      -2.155   5.925  25.085  1.00  0.00     0.052 C 
ENDBRANCH  12  15
ENDBRANCH   3   9
BRANCH   1  21
HETATM   21  C6  UNL     1      -2.608  -0.026  20.060  1.00  0.00     0.329 C 
BRANCH  21  22
HETATM   22  N1  UNL     1      -3.809   0.721  19.970  1.00  0.00     0.098 N 
HETATM   23  C2  UNL     1      -3.680   1.874  19.126  1.00  0.00     0.219 C 
HETATM   24  C1  UNL     1      -3.785   3.187  19.852  1.00  0.00     0.043 C 
HETATM   25  C3  UNL     1      -4.817   1.785  18.115  1.00  0.00     0.037 C 
HETATM   26  C4  UNL     1      -5.875   1.022  18.859  1.00  0.00     0.032 C 
HETATM   27  C5  UNL     1      -5.020   0.055  19.704  1.00  0.00     0.273 C 
ENDBRANCH  21  22
ENDBRANCH   1  21
TORSDOF 4
ENDMDL
