MODEL 1
REMARK VINA RESULT: -8.876324438      0.000      0.000
REMARK  5 active torsions:
REMARK  status: ('A' for Active; 'I' for Inactive)
REMARK    1  A    between atoms: C4_8  and  N4_9 
REMARK    2  A    between atoms: C5_14  and  N6_15 
REMARK    3  A    between atoms: N6_15  and  C6_17 
REMARK    4  A    between atoms: C8_19  and  C9_20 
REMARK    5  A    between atoms: C13_27  and  C14_28 
ROOT
HETATM    1  N1  UNL     1      -6.562  47.673  56.987  1.00  0.00    -0.191 NA
HETATM    2  C1  UNL     1      -6.580  46.620  56.475  1.00  0.00     0.107 C 
HETATM    3  C2  UNL     1      -6.577  45.339  55.847  1.00  0.00     0.130 A 
HETATM    4  C3  UNL     1      -5.825  44.314  56.432  1.00  0.00     0.156 A 
HETATM    5  N2  UNL     1      -5.105  44.606  57.619  1.00  0.00    -0.080 NA
HETATM    6  N3  UNL     1      -5.783  43.092  55.889  1.00  0.00    -0.177 N 
ATOM      7  H3  UNL     1      -5.233  42.349  56.320  1.00  0.00     0.185 HD
HETATM    8  C4  UNL     1      -6.484  42.863  54.761  1.00  0.00     0.678 A 
HETATM    9  N5  UNL     1      -7.225  43.847  54.171  1.00  0.00    -0.175 N 
ATOM     10  H5  UNL     1      -7.744  43.641  53.317  1.00  0.00     0.186 HD
HETATM   11  C5  UNL     1      -7.282  45.077  54.697  1.00  0.00     0.146 A 
ENDROOT
BRANCH  11  12
HETATM   12  N6  UNL     1      -7.968  45.999  54.158  1.00  0.00    -0.327 N 
ATOM     13  H6  UNL     1      -7.757  46.961  54.421  1.00  0.00     0.169 HD
BRANCH  12  14
HETATM   14  C6  UNL     1      -9.007  45.785  53.216  1.00  0.00     0.107 A 
HETATM   15  C7  UNL     1     -10.131  45.095  53.662  1.00  0.00     0.062 A 
HETATM   16  C8  UNL     1     -11.157  44.868  52.780  1.00  0.00    -0.003 A 
HETATM   17  C12 UNL     1     -11.024  45.342  51.475  1.00  0.00     0.044 A 
HETATM   18  C13 UNL     1      -9.913  46.021  51.046  1.00  0.00     0.044 A 
HETATM   19  N8  UNL     1      -8.939  46.216  51.948  1.00  0.00    -0.342 N 
ATOM     20  H8  UNL     1      -8.102  46.718  51.654  1.00  0.00     0.167 HD
BRANCH  16  21
HETATM   21  C9  UNL     1     -12.383  44.135  53.204  1.00  0.00     0.049 A 
HETATM   22  C10 UNL     1     -12.606  43.812  54.521  1.00  0.00     0.081 A 
HETATM   23  S1  UNL     1     -14.108  43.006  54.432  1.00  0.00    -0.094 SA
HETATM   24  C11 UNL     1     -14.363  43.127  52.749  1.00  0.00     0.138 A 
HETATM   25  N7  UNL     1     -13.286  43.775  52.343  1.00  0.00    -0.359 N 
ATOM     26  H7  UNL     1     -13.164  43.992  51.354  1.00  0.00     0.166 HD
ENDBRANCH  16  21
BRANCH  18  27
HETATM   27  C14 UNL     1      -9.745  46.533  49.674  1.00  0.00    -0.009 A 
HETATM   28  C15 UNL     1      -8.614  46.358  48.938  1.00  0.00     0.013 A 
HETATM   29  C16 UNL     1      -8.526  46.872  47.647  1.00  0.00     0.001 A 
HETATM   30  C17 UNL     1      -9.564  47.564  47.075  1.00  0.00     0.000 A 
HETATM   31  C18 UNL     1     -10.692  47.731  47.830  1.00  0.00     0.001 A 
HETATM   32  C19 UNL     1     -10.786  47.234  49.088  1.00  0.00     0.013 A 
ENDBRANCH  18  27
ENDBRANCH  12  14
ENDBRANCH  11  12
BRANCH   8  33
HETATM   33  N4  UNL     1      -6.463  41.694  54.216  1.00  0.00    -0.234 N 
ATOM     34  H42 UNL     1      -5.700  41.058  54.452  1.00  0.00     0.174 HD
ATOM     35  H41 UNL     1      -7.199  41.423  53.564  1.00  0.00     0.174 HD
ENDBRANCH   8  33
TORSDOF 5
ENDMDL
MODEL 2
REMARK VINA RESULT: -8.733380472      5.439      9.108
REMARK  5 active torsions:
REMARK  status: ('A' for Active; 'I' for Inactive)
REMARK    1  A    between atoms: C4_8  and  N4_9 
REMARK    2  A    between atoms: C5_14  and  N6_15 
REMARK    3  A    between atoms: N6_15  and  C6_17 
REMARK    4  A    between atoms: C8_19  and  C9_20 
REMARK    5  A    between atoms: C13_27  and  C14_28 
ROOT
HETATM    1  N1  UNL     1     -19.172  45.654  47.591  1.00  0.00    -0.191 NA
HETATM    2  C1  UNL     1     -18.811  46.340  48.469  1.00  0.00     0.107 C 
HETATM    3  C2  UNL     1     -18.362  47.192  49.522  1.00  0.00     0.130 A 
HETATM    4  C3  UNL     1     -18.927  48.467  49.631  1.00  0.00     0.156 A 
HETATM    5  N2  UNL     1     -19.917  48.844  48.687  1.00  0.00    -0.080 NA
HETATM    6  N3  UNL     1     -18.547  49.310  50.598  1.00  0.00    -0.177 N 
ATOM      7  H3  UNL     1     -18.962  50.239  50.672  1.00  0.00     0.185 HD
HETATM    8  C4  UNL     1     -17.603  48.907  51.471  1.00  0.00     0.678 A 
HETATM    9  N5  UNL     1     -17.036  47.668  51.385  1.00  0.00    -0.175 N 
ATOM     10  H5  UNL     1     -16.324  47.393  52.062  1.00  0.00     0.186 HD
HETATM   11  C5  UNL     1     -17.402  46.807  50.426  1.00  0.00     0.146 A 
ENDROOT
BRANCH  11  12
HETATM   12  N6  UNL     1     -16.882  45.653  50.336  1.00  0.00    -0.327 N 
ATOM     13  H6  UNL     1     -17.445  44.912  49.919  1.00  0.00     0.169 HD
BRANCH  12  14
HETATM   14  C6  UNL     1     -15.574  45.321  50.775  1.00  0.00     0.107 A 
HETATM   15  C7  UNL     1     -15.472  44.396  51.810  1.00  0.00     0.062 A 
HETATM   16  C8  UNL     1     -14.223  44.049  52.262  1.00  0.00    -0.003 A 
HETATM   17  C12 UNL     1     -13.114  44.643  51.661  1.00  0.00     0.044 A 
HETATM   18  C13 UNL     1     -13.226  45.554  50.643  1.00  0.00     0.044 A 
HETATM   19  N8  UNL     1     -14.469  45.857  50.238  1.00  0.00    -0.342 N 
ATOM     20  H8  UNL     1     -14.579  46.532  49.482  1.00  0.00     0.167 HD
BRANCH  16  21
HETATM   21  C9  UNL     1     -14.056  43.063  53.367  1.00  0.00     0.049 A 
HETATM   22  C10 UNL     1     -13.121  43.248  54.357  1.00  0.00     0.081 A 
HETATM   23  S1  UNL     1     -13.359  41.861  55.323  1.00  0.00    -0.094 SA
HETATM   24  C11 UNL     1     -14.617  41.138  54.425  1.00  0.00     0.138 A 
HETATM   25  N7  UNL     1     -14.788  41.993  53.434  1.00  0.00    -0.359 N 
ATOM     26  H7  UNL     1     -15.494  41.813  52.721  1.00  0.00     0.166 HD
ENDBRANCH  16  21
BRANCH  18  27
HETATM   27  C14 UNL     1     -12.072  46.198  49.989  1.00  0.00    -0.009 A 
HETATM   28  C15 UNL     1     -12.188  47.106  48.983  1.00  0.00     0.013 A 
HETATM   29  C16 UNL     1     -11.052  47.673  48.410  1.00  0.00     0.001 A 
HETATM   30  C17 UNL     1      -9.790  47.342  48.835  1.00  0.00     0.000 A 
HETATM   31  C18 UNL     1      -9.694  46.426  49.846  1.00  0.00     0.001 A 
HETATM   32  C19 UNL     1     -10.794  45.869  50.408  1.00  0.00     0.013 A 
ENDBRANCH  18  27
ENDBRANCH  12  14
ENDBRANCH  11  12
BRANCH   8  33
HETATM   33  N4  UNL     1     -17.217  49.699  52.413  1.00  0.00    -0.234 N 
ATOM     34  H42 UNL     1     -17.575  50.655  52.425  1.00  0.00     0.174 HD
ATOM     35  H41 UNL     1     -16.568  49.365  53.125  1.00  0.00     0.174 HD
ENDBRANCH   8  33
TORSDOF 5
ENDMDL
MODEL 3
REMARK VINA RESULT: -8.604906270      1.982      4.806
REMARK  5 active torsions:
REMARK  status: ('A' for Active; 'I' for Inactive)
REMARK    1  A    between atoms: C4_8  and  N4_9 
REMARK    2  A    between atoms: C5_14  and  N6_15 
REMARK    3  A    between atoms: N6_15  and  C6_17 
REMARK    4  A    between atoms: C8_19  and  C9_20 
REMARK    5  A    between atoms: C13_27  and  C14_28 
ROOT
HETATM    1  N1  UNL     1      -6.815  47.827  57.051  1.00  0.00    -0.191 NA
HETATM    2  C1  UNL     1      -6.791  46.771  56.546  1.00  0.00     0.107 C 
HETATM    3  C2  UNL     1      -6.736  45.489  55.922  1.00  0.00     0.130 A 
HETATM    4  C3  UNL     1      -5.826  44.548  56.416  1.00  0.00     0.156 A 
HETATM    5  N2  UNL     1      -5.006  44.921  57.512  1.00  0.00    -0.080 NA
HETATM    6  N3  UNL     1      -5.729  43.329  55.872  1.00  0.00    -0.177 N 
ATOM      7  H3  UNL     1      -5.063  42.647  56.237  1.00  0.00     0.185 HD
HETATM    8  C4  UNL     1      -6.530  43.021  54.833  1.00  0.00     0.678 A 
HETATM    9  N5  UNL     1      -7.426  43.922  54.333  1.00  0.00    -0.175 N 
ATOM     10  H5  UNL     1      -8.017  43.658  53.545  1.00  0.00     0.186 HD
HETATM   11  C5  UNL     1      -7.540  45.147  54.861  1.00  0.00     0.146 A 
ENDROOT
BRANCH  11  12
HETATM   12  N6  UNL     1      -8.369  45.993  54.405  1.00  0.00    -0.327 N 
ATOM     13  H6  UNL     1      -8.339  46.938  54.786  1.00  0.00     0.169 HD
BRANCH  12  14
HETATM   14  C6  UNL     1      -9.335  45.716  53.403  1.00  0.00     0.107 A 
HETATM   15  C7  UNL     1      -9.085  46.220  52.130  1.00  0.00     0.062 A 
HETATM   16  C8  UNL     1      -9.997  45.973  51.134  1.00  0.00    -0.003 A 
HETATM   17  C12 UNL     1     -11.132  45.227  51.447  1.00  0.00     0.044 A 
HETATM   18  C13 UNL     1     -11.369  44.736  52.704  1.00  0.00     0.044 A 
HETATM   19  N8  UNL     1     -10.446  45.005  53.641  1.00  0.00    -0.342 N 
ATOM     20  H8  UNL     1     -10.599  44.651  54.585  1.00  0.00     0.167 HD
BRANCH  16  21
HETATM   21  C9  UNL     1      -9.779  46.488  49.752  1.00  0.00     0.049 A 
HETATM   22  C10 UNL     1     -10.794  47.078  49.039  1.00  0.00     0.081 A 
HETATM   23  S1  UNL     1     -10.010  47.465  47.573  1.00  0.00    -0.094 SA
HETATM   24  C11 UNL     1      -8.457  46.864  47.948  1.00  0.00     0.138 A 
HETATM   25  N7  UNL     1      -8.620  46.398  49.173  1.00  0.00    -0.359 N 
ATOM     26  H7  UNL     1      -7.837  45.967  49.663  1.00  0.00     0.166 HD
ENDBRANCH  16  21
BRANCH  18  27
HETATM   27  C14 UNL     1     -12.559  43.944  53.064  1.00  0.00    -0.009 A 
HETATM   28  C15 UNL     1     -12.771  43.424  54.303  1.00  0.00     0.013 A 
HETATM   29  C16 UNL     1     -13.920  42.684  54.571  1.00  0.00     0.001 A 
HETATM   30  C17 UNL     1     -14.870  42.457  53.608  1.00  0.00     0.000 A 
HETATM   31  C18 UNL     1     -14.640  42.988  52.369  1.00  0.00     0.001 A 
HETATM   32  C19 UNL     1     -13.524  43.708  52.100  1.00  0.00     0.013 A 
ENDBRANCH  18  27
ENDBRANCH  12  14
ENDBRANCH  11  12
BRANCH   8  33
HETATM   33  N4  UNL     1      -6.458  41.853  54.290  1.00  0.00    -0.234 N 
ATOM     34  H42 UNL     1      -7.310  41.435  53.915  1.00  0.00     0.174 HD
ATOM     35  H41 UNL     1      -5.562  41.369  54.242  1.00  0.00     0.174 HD
ENDBRANCH   8  33
TORSDOF 5
ENDMDL
MODEL 4
REMARK VINA RESULT: -8.501707833      5.326      8.825
REMARK  5 active torsions:
REMARK  status: ('A' for Active; 'I' for Inactive)
REMARK    1  A    between atoms: C4_8  and  N4_9 
REMARK    2  A    between atoms: C5_14  and  N6_15 
REMARK    3  A    between atoms: N6_15  and  C6_17 
REMARK    4  A    between atoms: C8_19  and  C9_20 
REMARK    5  A    between atoms: C13_27  and  C14_28 
ROOT
HETATM    1  N1  UNL     1     -18.372  49.943  51.601  1.00  0.00    -0.191 NA
HETATM    2  C1  UNL     1     -18.275  49.001  50.913  1.00  0.00     0.107 C 
HETATM    3  C2  UNL     1     -18.179  47.846  50.081  1.00  0.00     0.130 A 
HETATM    4  C3  UNL     1     -19.062  47.730  49.001  1.00  0.00     0.156 A 
HETATM    5  N2  UNL     1     -20.006  48.770  48.793  1.00  0.00    -0.080 NA
HETATM    6  N3  UNL     1     -19.021  46.670  48.186  1.00  0.00    -0.177 N 
ATOM      7  H3  UNL     1     -19.668  46.591  47.401  1.00  0.00     0.185 HD
HETATM    8  C4  UNL     1     -18.108  45.708  48.424  1.00  0.00     0.678 A 
HETATM    9  N5  UNL     1     -17.236  45.798  49.471  1.00  0.00    -0.175 N 
ATOM     10  H5  UNL     1     -16.556  45.053  49.624  1.00  0.00     0.186 HD
HETATM   11  C5  UNL     1     -17.258  46.850  50.300  1.00  0.00     0.146 A 
ENDROOT
BRANCH  11  12
HETATM   12  N6  UNL     1     -16.453  46.945  51.276  1.00  0.00    -0.327 N 
ATOM     13  H6  UNL     1     -16.708  47.568  52.041  1.00  0.00     0.169 HD
BRANCH  12  14
HETATM   14  C6  UNL     1     -15.222  46.245  51.376  1.00  0.00     0.107 A 
HETATM   15  C7  UNL     1     -15.184  45.159  52.246  1.00  0.00     0.062 A 
HETATM   16  C8  UNL     1     -14.010  44.457  52.371  1.00  0.00    -0.003 A 
HETATM   17  C12 UNL     1     -12.911  44.868  51.618  1.00  0.00     0.044 A 
HETATM   18  C13 UNL     1     -12.960  45.940  50.764  1.00  0.00     0.044 A 
HETATM   19  N8  UNL     1     -14.130  46.591  50.680  1.00  0.00    -0.342 N 
ATOM     20  H8  UNL     1     -14.192  47.392  50.051  1.00  0.00     0.167 HD
BRANCH  16  21
HETATM   21  C9  UNL     1     -13.913  43.286  53.286  1.00  0.00     0.049 A 
HETATM   22  C10 UNL     1     -12.929  43.202  54.242  1.00  0.00     0.081 A 
HETATM   23  S1  UNL     1     -13.285  41.703  54.976  1.00  0.00    -0.094 SA
HETATM   24  C11 UNL     1     -14.646  41.276  54.040  1.00  0.00     0.138 A 
HETATM   25  N7  UNL     1     -14.756  42.301  53.215  1.00  0.00    -0.359 N 
ATOM     26  H7  UNL     1     -15.503  42.318  52.521  1.00  0.00     0.166 HD
ENDBRANCH  16  21
BRANCH  18  27
HETATM   27  C14 UNL     1     -11.814  46.397  49.956  1.00  0.00    -0.009 A 
HETATM   28  C15 UNL     1     -10.523  46.066  50.227  1.00  0.00     0.013 A 
HETATM   29  C16 UNL     1      -9.490  46.536  49.419  1.00  0.00     0.001 A 
HETATM   30  C17 UNL     1      -9.734  47.339  48.333  1.00  0.00     0.000 A 
HETATM   31  C18 UNL     1     -11.038  47.661  48.078  1.00  0.00     0.001 A 
HETATM   32  C19 UNL     1     -12.050  47.208  48.859  1.00  0.00     0.013 A 
ENDBRANCH  18  27
ENDBRANCH  12  14
ENDBRANCH  11  12
BRANCH   8  33
HETATM   33  N4  UNL     1     -18.045  44.676  47.654  1.00  0.00    -0.234 N 
ATOM     34  H42 UNL     1     -17.869  44.817  46.659  1.00  0.00     0.174 HD
ATOM     35  H41 UNL     1     -18.172  43.742  48.045  1.00  0.00     0.174 HD
ENDBRANCH   8  33
TORSDOF 5
ENDMDL
MODEL 5
REMARK VINA RESULT: -8.072357095      5.690     10.162
REMARK  5 active torsions:
REMARK  status: ('A' for Active; 'I' for Inactive)
REMARK    1  A    between atoms: C4_8  and  N4_9 
REMARK    2  A    between atoms: C5_14  and  N6_15 
REMARK    3  A    between atoms: N6_15  and  C6_17 
REMARK    4  A    between atoms: C8_19  and  C9_20 
REMARK    5  A    between atoms: C13_27  and  C14_28 
ROOT
HETATM    1  N1  UNL     1     -18.989  45.780  47.723  1.00  0.00    -0.191 NA
HETATM    2  C1  UNL     1     -18.651  46.448  48.623  1.00  0.00     0.107 C 
HETATM    3  C2  UNL     1     -18.228  47.279  49.703  1.00  0.00     0.130 A 
HETATM    4  C3  UNL     1     -18.753  48.574  49.790  1.00  0.00     0.156 A 
HETATM    5  N2  UNL     1     -19.677  48.990  48.797  1.00  0.00    -0.080 NA
HETATM    6  N3  UNL     1     -18.394  49.399  50.780  1.00  0.00    -0.177 N 
ATOM      7  H3  UNL     1     -18.779  50.342  50.838  1.00  0.00     0.185 HD
HETATM    8  C4  UNL     1     -17.513  48.959  51.700  1.00  0.00     0.678 A 
HETATM    9  N5  UNL     1     -16.987  47.700  51.636  1.00  0.00    -0.175 N 
ATOM     10  H5  UNL     1     -16.322  47.397  52.348  1.00  0.00     0.186 HD
HETATM   11  C5  UNL     1     -17.332  46.857  50.655  1.00  0.00     0.146 A 
ENDROOT
BRANCH  11  12
HETATM   12  N6  UNL     1     -16.851  45.685  50.586  1.00  0.00    -0.327 N 
ATOM     13  H6  UNL     1     -17.457  44.944  50.237  1.00  0.00     0.169 HD
BRANCH  12  14
HETATM   14  C6  UNL     1     -15.527  45.334  50.960  1.00  0.00     0.107 A 
HETATM   15  C7  UNL     1     -14.491  45.962  50.276  1.00  0.00     0.062 A 
HETATM   16  C8  UNL     1     -13.197  45.648  50.609  1.00  0.00    -0.003 A 
HETATM   17  C12 UNL     1     -12.983  44.711  51.620  1.00  0.00     0.044 A 
HETATM   18  C13 UNL     1     -14.012  44.098  52.287  1.00  0.00     0.044 A 
HETATM   19  N8  UNL     1     -15.257  44.441  51.923  1.00  0.00    -0.342 N 
ATOM     20  H8  UNL     1     -16.040  43.998  52.404  1.00  0.00     0.167 HD
BRANCH  16  21
HETATM   21  C9  UNL     1     -12.049  46.290  49.910  1.00  0.00     0.049 A 
HETATM   22  C10 UNL     1     -10.749  45.991  50.240  1.00  0.00     0.081 A 
HETATM   23  S1  UNL     1      -9.878  46.984  49.159  1.00  0.00    -0.094 SA
HETATM   24  C11 UNL     1     -11.198  47.711  48.360  1.00  0.00     0.138 A 
HETATM   25  N7  UNL     1     -12.235  47.158  48.962  1.00  0.00    -0.359 N 
ATOM     26  H7  UNL     1     -13.183  47.413  48.684  1.00  0.00     0.166 HD
ENDBRANCH  16  21
BRANCH  18  27
HETATM   27  C14 UNL     1     -13.817  43.105  53.359  1.00  0.00    -0.009 A 
HETATM   28  C15 UNL     1     -12.850  43.206  54.312  1.00  0.00     0.013 A 
HETATM   29  C16 UNL     1     -12.724  42.228  55.295  1.00  0.00     0.001 A 
HETATM   30  C17 UNL     1     -13.560  41.140  55.340  1.00  0.00     0.000 A 
HETATM   31  C18 UNL     1     -14.525  41.056  54.375  1.00  0.00     0.001 A 
HETATM   32  C19 UNL     1     -14.654  42.003  53.413  1.00  0.00     0.013 A 
ENDBRANCH  18  27
ENDBRANCH  12  14
ENDBRANCH  11  12
BRANCH   8  33
HETATM   33  N4  UNL     1     -17.150  49.733  52.665  1.00  0.00    -0.234 N 
ATOM     34  H42 UNL     1     -17.150  49.362  53.616  1.00  0.00     0.174 HD
ATOM     35  H41 UNL     1     -16.871  50.694  52.469  1.00  0.00     0.174 HD
ENDBRANCH   8  33
TORSDOF 5
ENDMDL
