MODEL 1
REMARK VINA RESULT: -7.109202283      0.000      0.000
REMARK  5 active torsions:
REMARK  status: ('A' for Active; 'I' for Inactive)
REMARK    1  A    between atoms: C3_6  and  S1_7 
REMARK    2  A    between atoms: S1_7  and  C4_8 
REMARK    3  A    between atoms: C7_11  and  N3_12 
REMARK    4  A    between atoms: N3_12  and  C8_14 
REMARK    5  A    between atoms: C11_22  and  N6_23 
ROOT
HETATM    1  N1  UNL     1     -22.243  49.383  47.292  1.00  0.00    -0.190 NA
HETATM    2  C1  UNL     1     -22.284  48.227  47.293  1.00  0.00     0.119 C 
HETATM    3  C2  UNL     1     -22.323  46.798  47.276  1.00  0.00     0.139 A 
HETATM    4  N2  UNL     1     -21.653  46.114  48.217  1.00  0.00    -0.340 N 
ATOM      5  H2  UNL     1     -21.131  46.629  48.926  1.00  0.00     0.167 HD
HETATM    6  C3  UNL     1     -21.651  44.764  48.254  1.00  0.00     0.075 A 
HETATM    7  C15 UNL     1     -22.359  44.074  47.293  1.00  0.00     0.039 A 
HETATM    8  C16 UNL     1     -23.052  44.758  46.319  1.00  0.00     0.032 A 
HETATM    9  C17 UNL     1     -23.051  46.145  46.286  1.00  0.00     0.084 A 
HETATM   10  N8  UNL     1     -23.754  46.864  45.296  1.00  0.00    -0.099 NA
ENDROOT
BRANCH   6  11
HETATM   11  S1  UNL     1     -20.762  43.890  49.504  1.00  0.00    -0.073 SA
BRANCH  11  12
HETATM   12  C4  UNL     1     -19.209  44.695  49.827  1.00  0.00     0.007 A 
HETATM   13  C5  UNL     1     -18.224  44.661  48.893  1.00  0.00     0.021 A 
HETATM   14  C6  UNL     1     -17.025  45.294  49.167  1.00  0.00     0.031 A 
HETATM   15  C7  UNL     1     -16.778  45.961  50.347  1.00  0.00     0.033 A 
HETATM   16  C13 UNL     1     -17.793  45.990  51.297  1.00  0.00     0.031 A 
HETATM   17  C14 UNL     1     -18.991  45.353  51.014  1.00  0.00     0.021 A 
BRANCH  15  18
HETATM   18  N3  UNL     1     -15.533  46.595  50.582  1.00  0.00    -0.340 N 
ATOM     19  H3  UNL     1     -15.417  47.596  50.424  1.00  0.00     0.167 HD
BRANCH  18  20
HETATM   20  C8  UNL     1     -14.554  45.874  50.998  1.00  0.00     0.149 A 
HETATM   21  N4  UNL     1     -14.742  44.957  51.926  1.00  0.00    -0.284 N 
HETATM   22  N5  UNL     1     -13.860  44.147  52.454  1.00  0.00    -0.309 N 
ATOM     23  H4  UNL     1     -15.697  44.867  52.276  1.00  0.00     0.188 HD
HETATM   24  C9  UNL     1     -12.596  44.286  51.969  1.00  0.00     0.128 A 
ATOM     25  H5  UNL     1     -14.102  43.465  53.172  1.00  0.00     0.186 HD
HETATM   26  C10 UNL     1     -12.323  45.238  50.987  1.00  0.00     0.056 A 
HETATM   27  S2  UNL     1     -10.898  45.713  50.137  1.00  0.00    -0.051 SA
HETATM   28  C12 UNL     1     -13.265  46.069  50.454  1.00  0.00     0.099 A 
HETATM   29  C11 UNL     1     -11.614  46.937  49.168  1.00  0.00     0.143 A 
HETATM   30  N7  UNL     1     -12.888  46.912  49.545  1.00  0.00    -0.333 N 
ATOM     31  H7  UNL     1     -13.562  47.550  49.123  1.00  0.00     0.168 HD
BRANCH  29  32
HETATM   32  N6  UNL     1     -11.015  47.687  48.286  1.00  0.00    -0.380 N 
ATOM     33  H62 UNL     1     -10.240  48.341  48.398  1.00  0.00     0.158 HD
ATOM     34  H61 UNL     1     -11.228  47.751  47.290  1.00  0.00     0.158 HD
ENDBRANCH  29  32
ENDBRANCH  18  20
ENDBRANCH  15  18
ENDBRANCH  11  12
ENDBRANCH   6  11
TORSDOF 5
ENDMDL
MODEL 2
REMARK VINA RESULT: -6.977631366      2.292      3.137
REMARK  5 active torsions:
REMARK  status: ('A' for Active; 'I' for Inactive)
REMARK    1  A    between atoms: C3_6  and  S1_7 
REMARK    2  A    between atoms: S1_7  and  C4_8 
REMARK    3  A    between atoms: C7_11  and  N3_12 
REMARK    4  A    between atoms: N3_12  and  C8_14 
REMARK    5  A    between atoms: C11_22  and  N6_23 
ROOT
HETATM    1  N1  UNL     1     -19.996  49.890  47.291  1.00  0.00    -0.190 NA
HETATM    2  C1  UNL     1     -19.992  48.860  47.818  1.00  0.00     0.119 C 
HETATM    3  C2  UNL     1     -19.973  47.581  48.456  1.00  0.00     0.139 A 
HETATM    4  N2  UNL     1     -19.413  47.463  49.670  1.00  0.00    -0.340 N 
ATOM      5  H2  UNL     1     -19.014  48.291  50.114  1.00  0.00     0.167 HD
HETATM    6  C3  UNL     1     -19.364  46.282  50.323  1.00  0.00     0.075 A 
HETATM    7  C15 UNL     1     -19.906  45.167  49.718  1.00  0.00     0.039 A 
HETATM    8  C16 UNL     1     -20.484  45.269  48.472  1.00  0.00     0.032 A 
HETATM    9  C17 UNL     1     -20.532  46.484  47.806  1.00  0.00     0.084 A 
HETATM   10  N8  UNL     1     -21.119  46.608  46.528  1.00  0.00    -0.099 NA
ENDROOT
BRANCH   6  11
HETATM   11  S1  UNL     1     -18.623  46.156  51.920  1.00  0.00    -0.073 SA
BRANCH  11  12
HETATM   12  C4  UNL     1     -16.964  45.530  51.778  1.00  0.00     0.007 A 
HETATM   13  C5  UNL     1     -16.653  44.316  52.302  1.00  0.00     0.021 A 
HETATM   14  C6  UNL     1     -15.357  43.851  52.180  1.00  0.00     0.031 A 
HETATM   15  C7  UNL     1     -14.358  44.560  51.549  1.00  0.00     0.033 A 
HETATM   16  C13 UNL     1     -14.687  45.802  51.016  1.00  0.00     0.031 A 
HETATM   17  C14 UNL     1     -15.988  46.261  51.144  1.00  0.00     0.021 A 
BRANCH  15  18
HETATM   18  N3  UNL     1     -13.044  44.041  51.448  1.00  0.00    -0.340 N 
ATOM     19  H3  UNL     1     -12.785  43.416  50.685  1.00  0.00     0.167 HD
BRANCH  18  20
HETATM   20  C8  UNL     1     -12.188  44.379  52.345  1.00  0.00     0.149 A 
HETATM   21  N4  UNL     1     -12.398  44.096  53.615  1.00  0.00    -0.284 N 
HETATM   22  N5  UNL     1     -11.633  44.368  54.642  1.00  0.00    -0.309 N 
ATOM     23  H4  UNL     1     -13.267  43.604  53.824  1.00  0.00     0.188 HD
HETATM   24  C9  UNL     1     -10.480  45.025  54.337  1.00  0.00     0.128 A 
ATOM     25  H5  UNL     1     -11.882  44.108  55.596  1.00  0.00     0.186 HD
HETATM   26  C10 UNL     1     -10.192  45.356  53.013  1.00  0.00     0.056 A 
HETATM   27  S2  UNL     1      -8.880  46.162  52.235  1.00  0.00    -0.051 SA
HETATM   28  C12 UNL     1     -11.010  45.059  51.962  1.00  0.00     0.099 A 
HETATM   29  C11 UNL     1      -9.476  46.058  50.627  1.00  0.00     0.143 A 
HETATM   30  N7  UNL     1     -10.632  45.420  50.777  1.00  0.00    -0.333 N 
ATOM     31  H7  UNL     1     -11.216  45.216  49.966  1.00  0.00     0.168 HD
BRANCH  29  32
HETATM   32  N6  UNL     1      -8.901  46.510  49.548  1.00  0.00    -0.380 N 
ATOM     33  H62 UNL     1      -9.240  47.175  48.853  1.00  0.00     0.158 HD
ATOM     34  H61 UNL     1      -7.974  46.265  49.200  1.00  0.00     0.158 HD
ENDBRANCH  29  32
ENDBRANCH  18  20
ENDBRANCH  15  18
ENDBRANCH  11  12
ENDBRANCH   6  11
TORSDOF 5
ENDMDL
MODEL 3
REMARK VINA RESULT: -6.933837367      2.056      9.358
REMARK  5 active torsions:
REMARK  status: ('A' for Active; 'I' for Inactive)
REMARK    1  A    between atoms: C3_6  and  S1_7 
REMARK    2  A    between atoms: S1_7  and  C4_8 
REMARK    3  A    between atoms: C7_11  and  N3_12 
REMARK    4  A    between atoms: N3_12  and  C8_14 
REMARK    5  A    between atoms: C11_22  and  N6_23 
ROOT
HETATM    1  N1  UNL     1     -11.910  47.610  48.436  1.00  0.00    -0.190 NA
HETATM    2  C1  UNL     1     -12.332  46.932  49.273  1.00  0.00     0.119 C 
HETATM    3  C2  UNL     1     -12.841  46.104  50.322  1.00  0.00     0.139 A 
HETATM    4  N2  UNL     1     -14.122  46.240  50.699  1.00  0.00    -0.340 N 
ATOM      5  H2  UNL     1     -14.706  46.932  50.229  1.00  0.00     0.167 HD
HETATM    6  C3  UNL     1     -14.661  45.489  51.684  1.00  0.00     0.075 A 
HETATM    7  C15 UNL     1     -13.866  44.555  52.316  1.00  0.00     0.039 A 
HETATM    8  C16 UNL     1     -12.549  44.402  51.942  1.00  0.00     0.032 A 
HETATM    9  C17 UNL     1     -12.000  45.177  50.931  1.00  0.00     0.084 A 
HETATM   10  N8  UNL     1     -10.654  45.034  50.534  1.00  0.00    -0.099 NA
ENDROOT
BRANCH   6  11
HETATM   11  S1  UNL     1     -16.349  45.688  52.159  1.00  0.00    -0.073 SA
BRANCH  11  12
HETATM   12  C4  UNL     1     -17.401  45.630  50.725  1.00  0.00     0.007 A 
HETATM   13  C5  UNL     1     -17.045  46.302  49.600  1.00  0.00     0.021 A 
HETATM   14  C6  UNL     1     -17.878  46.242  48.498  1.00  0.00     0.031 A 
HETATM   15  C7  UNL     1     -19.058  45.530  48.483  1.00  0.00     0.033 A 
HETATM   16  C13 UNL     1     -19.413  44.845  49.641  1.00  0.00     0.031 A 
HETATM   17  C14 UNL     1     -18.572  44.911  50.740  1.00  0.00     0.021 A 
BRANCH  15  18
HETATM   18  N3  UNL     1     -19.879  45.498  47.329  1.00  0.00    -0.340 N 
ATOM     19  H3  UNL     1     -19.740  44.792  46.607  1.00  0.00     0.167 HD
BRANCH  18  20
HETATM   20  C8  UNL     1     -20.803  46.385  47.217  1.00  0.00     0.149 A 
HETATM   21  N4  UNL     1     -20.603  47.620  47.632  1.00  0.00    -0.284 N 
HETATM   22  N5  UNL     1     -21.432  48.631  47.590  1.00  0.00    -0.309 N 
ATOM     23  H4  UNL     1     -19.685  47.811  48.036  1.00  0.00     0.188 HD
HETATM   24  C9  UNL     1     -22.648  48.350  47.046  1.00  0.00     0.128 A 
ATOM     25  H5  UNL     1     -21.186  49.558  47.939  1.00  0.00     0.186 HD
HETATM   26  C10 UNL     1     -22.930  47.064  46.586  1.00  0.00     0.056 A 
HETATM   27  S2  UNL     1     -24.306  46.325  45.855  1.00  0.00    -0.051 SA
HETATM   28  C12 UNL     1     -22.043  46.028  46.643  1.00  0.00     0.099 A 
HETATM   29  C11 UNL     1     -23.645  44.749  45.677  1.00  0.00     0.143 A 
HETATM   30  N7  UNL     1     -22.423  44.878  46.182  1.00  0.00    -0.333 N 
ATOM     31  H7  UNL     1     -21.789  44.079  46.207  1.00  0.00     0.168 HD
BRANCH  29  32
HETATM   32  N6  UNL     1     -24.235  43.705  45.165  1.00  0.00    -0.380 N 
ATOM     33  H62 UNL     1     -25.225  43.462  45.131  1.00  0.00     0.158 HD
ATOM     34  H61 UNL     1     -23.788  42.921  44.691  1.00  0.00     0.158 HD
ENDBRANCH  29  32
ENDBRANCH  18  20
ENDBRANCH  15  18
ENDBRANCH  11  12
ENDBRANCH   6  11
TORSDOF 5
ENDMDL
MODEL 4
REMARK VINA RESULT: -6.889087461      3.827     10.942
REMARK  5 active torsions:
REMARK  status: ('A' for Active; 'I' for Inactive)
REMARK    1  A    between atoms: C3_6  and  S1_7 
REMARK    2  A    between atoms: S1_7  and  C4_8 
REMARK    3  A    between atoms: C7_11  and  N3_12 
REMARK    4  A    between atoms: N3_12  and  C8_14 
REMARK    5  A    between atoms: C11_22  and  N6_23 
ROOT
HETATM    1  N1  UNL     1      -5.762  43.570  55.542  1.00  0.00    -0.190 NA
HETATM    2  C1  UNL     1      -6.660  44.209  55.189  1.00  0.00     0.119 C 
HETATM    3  C2  UNL     1      -7.757  45.016  54.755  1.00  0.00     0.139 A 
HETATM    4  N2  UNL     1      -8.080  45.037  53.452  1.00  0.00    -0.340 N 
ATOM      5  H2  UNL     1      -7.535  44.475  52.798  1.00  0.00     0.167 HD
HETATM    6  C3  UNL     1      -9.105  45.779  52.981  1.00  0.00     0.075 A 
HETATM    7  C15 UNL     1      -9.838  46.536  53.871  1.00  0.00     0.039 A 
HETATM    8  C16 UNL     1      -9.522  46.528  55.211  1.00  0.00     0.032 A 
HETATM    9  C17 UNL     1      -8.468  45.764  55.690  1.00  0.00     0.084 A 
HETATM   10  N8  UNL     1      -8.128  45.743  57.059  1.00  0.00    -0.099 NA
ENDROOT
BRANCH   6  11
HETATM   11  S1  UNL     1      -9.508  45.786  51.263  1.00  0.00    -0.073 SA
BRANCH  11  12
HETATM   12  C4  UNL     1     -11.269  45.642  51.045  1.00  0.00     0.007 A 
HETATM   13  C5  UNL     1     -11.974  44.768  51.810  1.00  0.00     0.021 A 
HETATM   14  C6  UNL     1     -13.340  44.674  51.623  1.00  0.00     0.031 A 
HETATM   15  C7  UNL     1     -14.028  45.425  50.695  1.00  0.00     0.033 A 
HETATM   16  C13 UNL     1     -13.296  46.317  49.917  1.00  0.00     0.031 A 
HETATM   17  C14 UNL     1     -11.927  46.405  50.111  1.00  0.00     0.021 A 
BRANCH  15  18
HETATM   18  N3  UNL     1     -15.429  45.293  50.540  1.00  0.00    -0.340 N 
ATOM     19  H3  UNL     1     -15.844  44.403  50.264  1.00  0.00     0.167 HD
BRANCH  18  20
HETATM   20  C8  UNL     1     -16.164  46.325  50.757  1.00  0.00     0.149 A 
HETATM   21  N4  UNL     1     -15.850  47.186  51.704  1.00  0.00    -0.284 N 
HETATM   22  N5  UNL     1     -16.486  48.277  52.050  1.00  0.00    -0.309 N 
ATOM     23  H4  UNL     1     -15.004  46.976  52.235  1.00  0.00     0.188 HD
HETATM   24  C9  UNL     1     -17.610  48.535  51.327  1.00  0.00     0.128 A 
ATOM     25  H5  UNL     1     -16.164  48.885  52.802  1.00  0.00     0.186 HD
HETATM   26  C10 UNL     1     -18.004  47.666  50.309  1.00  0.00     0.056 A 
HETATM   27  S2  UNL     1     -19.323  47.638  49.197  1.00  0.00    -0.051 SA
HETATM   28  C12 UNL     1     -17.319  46.535  49.971  1.00  0.00     0.099 A 
HETATM   29  C11 UNL     1     -18.899  46.183  48.386  1.00  0.00     0.143 A 
HETATM   30  N7  UNL     1     -17.786  45.808  49.006  1.00  0.00    -0.333 N 
ATOM     31  H7  UNL     1     -17.302  44.955  48.724  1.00  0.00     0.168 HD
BRANCH  29  32
HETATM   32  N6  UNL     1     -19.544  45.619  47.404  1.00  0.00    -0.380 N 
ATOM     33  H62 UNL     1     -19.875  44.660  47.301  1.00  0.00     0.158 HD
ATOM     34  H61 UNL     1     -19.840  46.059  46.532  1.00  0.00     0.158 HD
ENDBRANCH  29  32
ENDBRANCH  18  20
ENDBRANCH  15  18
ENDBRANCH  11  12
ENDBRANCH   6  11
TORSDOF 5
ENDMDL
MODEL 5
REMARK VINA RESULT: -6.856244404      2.141      9.239
REMARK  5 active torsions:
REMARK  status: ('A' for Active; 'I' for Inactive)
REMARK    1  A    between atoms: C3_6  and  S1_7 
REMARK    2  A    between atoms: S1_7  and  C4_8 
REMARK    3  A    between atoms: C7_11  and  N3_12 
REMARK    4  A    between atoms: N3_12  and  C8_14 
REMARK    5  A    between atoms: C11_22  and  N6_23 
ROOT
HETATM    1  N1  UNL     1     -11.329  47.725  47.770  1.00  0.00    -0.190 NA
HETATM    2  C1  UNL     1     -11.698  47.216  48.741  1.00  0.00     0.119 C 
HETATM    3  C2  UNL     1     -12.140  46.599  49.953  1.00  0.00     0.139 A 
HETATM    4  N2  UNL     1     -13.370  46.872  50.416  1.00  0.00    -0.340 N 
ATOM      5  H2  UNL     1     -13.965  47.515  49.892  1.00  0.00     0.167 HD
HETATM    6  C3  UNL     1     -13.845  46.322  51.554  1.00  0.00     0.075 A 
HETATM    7  C15 UNL     1     -13.035  45.454  52.258  1.00  0.00     0.039 A 
HETATM    8  C16 UNL     1     -11.770  45.162  51.798  1.00  0.00     0.032 A 
HETATM    9  C17 UNL     1     -11.288  45.730  50.629  1.00  0.00     0.084 A 
HETATM   10  N8  UNL     1      -9.994  45.444  50.142  1.00  0.00    -0.099 NA
ENDROOT
BRANCH   6  11
HETATM   11  S1  UNL     1     -15.466  46.698  52.139  1.00  0.00    -0.073 SA
BRANCH  11  12
HETATM   12  C4  UNL     1     -16.659  46.445  50.843  1.00  0.00     0.007 A 
HETATM   13  C5  UNL     1     -17.654  47.351  50.655  1.00  0.00     0.021 A 
HETATM   14  C6  UNL     1     -18.569  47.133  49.641  1.00  0.00     0.031 A 
HETATM   15  C7  UNL     1     -18.523  46.038  48.807  1.00  0.00     0.033 A 
HETATM   16  C13 UNL     1     -17.500  45.116  49.008  1.00  0.00     0.031 A 
HETATM   17  C14 UNL     1     -16.588  45.342  50.025  1.00  0.00     0.021 A 
BRANCH  15  18
HETATM   18  N3  UNL     1     -19.483  45.858  47.782  1.00  0.00    -0.340 N 
ATOM     19  H3  UNL     1     -19.379  46.321  46.879  1.00  0.00     0.167 HD
BRANCH  18  20
HETATM   20  C8  UNL     1     -20.490  45.094  48.020  1.00  0.00     0.149 A 
HETATM   21  N4  UNL     1     -20.467  44.249  49.031  1.00  0.00    -0.284 N 
HETATM   22  N5  UNL     1     -21.400  43.411  49.406  1.00  0.00    -0.309 N 
ATOM     23  H4  UNL     1     -19.615  44.248  49.592  1.00  0.00     0.188 HD
HETATM   24  C9  UNL     1     -22.526  43.432  48.642  1.00  0.00     0.128 A 
ATOM     25  H5  UNL     1     -21.291  42.791  50.208  1.00  0.00     0.186 HD
HETATM   26  C10 UNL     1     -22.620  44.301  47.555  1.00  0.00     0.056 A 
HETATM   27  S2  UNL     1     -23.838  44.624  46.376  1.00  0.00    -0.051 SA
HETATM   28  C12 UNL     1     -21.630  45.165  47.188  1.00  0.00     0.099 A 
HETATM   29  C11 UNL     1     -22.989  45.836  45.504  1.00  0.00     0.143 A 
HETATM   30  N7  UNL     1     -21.836  45.924  46.159  1.00  0.00    -0.333 N 
ATOM     31  H7  UNL     1     -21.119  46.583  45.853  1.00  0.00     0.168 HD
BRANCH  29  32
HETATM   32  N6  UNL     1     -23.411  46.489  44.458  1.00  0.00    -0.380 N 
ATOM     33  H62 UNL     1     -24.198  46.297  43.839  1.00  0.00     0.158 HD
ATOM     34  H61 UNL     1     -23.009  47.339  44.063  1.00  0.00     0.158 HD
ENDBRANCH  29  32
ENDBRANCH  18  20
ENDBRANCH  15  18
ENDBRANCH  11  12
ENDBRANCH   6  11
TORSDOF 5
ENDMDL
