MODEL 1
REMARK VINA RESULT: -6.549796033      0.000      0.000
REMARK  0 active torsions:
REMARK  status: ('A' for Active; 'I' for Inactive)
ROOT
HETATM    1  N1  UNL     1      28.897  67.449  12.645  1.00  0.00    -0.389 N 
ATOM      2  H11 UNL     1      28.918  67.207  13.636  1.00  0.00     0.157 HD
ATOM      3  H12 UNL     1      28.696  68.446  12.578  1.00  0.00     0.157 HD
HETATM    4  C1  UNL     1      29.091  66.639  11.664  1.00  0.00     0.080 C 
HETATM    5  C2  UNL     1      29.061  66.990  10.223  1.00  0.00     0.127 C 
HETATM    6  C3  UNL     1      29.987  65.911   9.650  1.00  0.00     0.204 A 
HETATM    7  N2  UNL     1      31.354  66.277   9.913  1.00  0.00    -0.316 N 
ATOM      8  H2  UNL     1      31.770  66.410  10.835  1.00  0.00     0.166 HD
HETATM    9  C4  UNL     1      32.023  66.421   8.677  1.00  0.00     0.324 A 
HETATM   10  O1  UNL     1      33.230  66.754   8.554  1.00  0.00    -0.247 OA
HETATM   11  N3  UNL     1      31.079  66.120   7.634  1.00  0.00    -0.277 N 
ATOM     12  H3  UNL     1      31.277  66.141   6.634  1.00  0.00     0.173 HD
HETATM   13  C5  UNL     1      29.832  65.792   8.218  1.00  0.00     0.264 A 
HETATM   14  O2  UNL     1      28.808  65.465   7.596  1.00  0.00    -0.270 OA
HETATM   15  C6  UNL     1      29.571  64.743  10.434  1.00  0.00     0.261 C 
HETATM   16  O3  UNL     1      29.399  63.535  10.084  1.00  0.00    -0.270 OA
HETATM   17  N4  UNL     1      29.376  65.225  11.759  1.00  0.00    -0.314 N 
ATOM     18  H4  UNL     1      29.428  64.675  12.616  1.00  0.00     0.170 HD
ENDROOT
TORSDOF 0
ENDMDL
MODEL 2
REMARK VINA RESULT: -6.237631462      2.007      3.886
REMARK  0 active torsions:
REMARK  status: ('A' for Active; 'I' for Inactive)
ROOT
HETATM    1  N1  UNL     1      31.069  67.227   6.861  1.00  0.00    -0.389 N 
ATOM      2  H11 UNL     1      30.854  67.825   6.063  1.00  0.00     0.157 HD
ATOM      3  H12 UNL     1      32.083  67.206   6.962  1.00  0.00     0.157 HD
HETATM    4  C1  UNL     1      30.214  66.614   7.601  1.00  0.00     0.080 C 
HETATM    5  C2  UNL     1      30.526  65.745   8.761  1.00  0.00     0.127 C 
HETATM    6  C3  UNL     1      29.240  65.896   9.583  1.00  0.00     0.204 A 
HETATM    7  N2  UNL     1      29.269  67.161  10.271  1.00  0.00    -0.316 N 
ATOM      8  H2  UNL     1      29.319  68.079   9.830  1.00  0.00     0.166 HD
HETATM    9  C4  UNL     1      29.216  66.913  11.661  1.00  0.00     0.324 A 
HETATM   10  O1  UNL     1      29.242  67.807  12.545  1.00  0.00    -0.247 OA
HETATM   11  N3  UNL     1      29.129  65.489  11.846  1.00  0.00    -0.277 N 
ATOM     12  H3  UNL     1      29.076  65.012  12.746  1.00  0.00     0.173 HD
HETATM   13  C5  UNL     1      29.128  64.856  10.580  1.00  0.00     0.264 A 
HETATM   14  O2  UNL     1      29.045  63.633  10.385  1.00  0.00    -0.270 OA
HETATM   15  C6  UNL     1      28.228  65.872   8.521  1.00  0.00     0.261 C 
HETATM   16  O3  UNL     1      27.091  65.311   8.481  1.00  0.00    -0.270 OA
HETATM   17  N4  UNL     1      28.775  66.643   7.458  1.00  0.00    -0.314 N 
ATOM     18  H4  UNL     1      28.249  67.127   6.729  1.00  0.00     0.170 HD
ENDROOT
TORSDOF 0
ENDMDL
MODEL 3
REMARK VINA RESULT: -6.071487933      4.090      5.694
REMARK  0 active torsions:
REMARK  status: ('A' for Active; 'I' for Inactive)
ROOT
HETATM    1  N1  UNL     1      23.849  64.105   9.637  1.00  0.00    -0.389 N 
ATOM      2  H11 UNL     1      22.971  63.651   9.383  1.00  0.00     0.157 HD
ATOM      3  H12 UNL     1      23.681  65.111   9.640  1.00  0.00     0.157 HD
HETATM    4  C1  UNL     1      24.958  63.514   9.905  1.00  0.00     0.080 C 
HETATM    5  C2  UNL     1      26.234  64.175  10.274  1.00  0.00     0.127 C 
HETATM    6  C3  UNL     1      26.899  63.066  11.099  1.00  0.00     0.204 A 
HETATM    7  N2  UNL     1      26.305  63.035  12.411  1.00  0.00    -0.316 N 
ATOM      8  H2  UNL     1      25.322  62.858  12.617  1.00  0.00     0.166 HD
HETATM    9  C4  UNL     1      27.316  63.292  13.363  1.00  0.00     0.324 A 
HETATM   10  O1  UNL     1      27.125  63.355  14.605  1.00  0.00    -0.247 OA
HETATM   11  N3  UNL     1      28.553  63.460  12.649  1.00  0.00    -0.277 N 
ATOM     12  H3  UNL     1      29.459  63.656  13.075  1.00  0.00     0.173 HD
HETATM   13  C5  UNL     1      28.314  63.309  11.263  1.00  0.00     0.264 A 
HETATM   14  O2  UNL     1      29.174  63.376  10.370  1.00  0.00    -0.270 OA
HETATM   15  C6  UNL     1      26.544  61.881  10.308  1.00  0.00     0.261 C 
HETATM   16  O3  UNL     1      27.229  60.856  10.009  1.00  0.00    -0.270 OA
HETATM   17  N4  UNL     1      25.196  62.087   9.901  1.00  0.00    -0.314 N 
ATOM     18  H4  UNL     1      24.522  61.363   9.652  1.00  0.00     0.170 HD
ENDROOT
TORSDOF 0
ENDMDL
MODEL 4
REMARK VINA RESULT: -5.889691286      2.447      3.204
REMARK  0 active torsions:
REMARK  status: ('A' for Active; 'I' for Inactive)
ROOT
HETATM    1  N1  UNL     1      32.708  66.423   9.936  1.00  0.00    -0.389 N 
ATOM      2  H11 UNL     1      33.581  65.903   9.843  1.00  0.00     0.157 HD
ATOM      3  H12 UNL     1      32.948  67.412   9.993  1.00  0.00     0.157 HD
HETATM    4  C1  UNL     1      31.526  65.919   9.973  1.00  0.00     0.080 C 
HETATM    5  C2  UNL     1      30.257  66.675  10.109  1.00  0.00     0.127 C 
HETATM    6  C3  UNL     1      29.280  65.714   9.421  1.00  0.00     0.204 A 
HETATM    7  N2  UNL     1      29.429  65.834   7.994  1.00  0.00    -0.316 N 
ATOM      8  H2  UNL     1      30.280  65.645   7.465  1.00  0.00     0.166 HD
HETATM    9  C4  UNL     1      28.195  66.257   7.450  1.00  0.00     0.324 A 
HETATM   10  O1  UNL     1      27.993  66.476   6.229  1.00  0.00    -0.247 OA
HETATM   11  N3  UNL     1      27.261  66.380   8.537  1.00  0.00    -0.277 N 
ATOM     12  H3  UNL     1      26.287  66.668   8.449  1.00  0.00     0.173 HD
HETATM   13  C5  UNL     1      27.909  66.036   9.747  1.00  0.00     0.264 A 
HETATM   14  O2  UNL     1      27.379  66.020  10.870  1.00  0.00    -0.270 OA
HETATM   15  C6  UNL     1      29.766  64.422   9.917  1.00  0.00     0.261 C 
HETATM   16  O3  UNL     1      29.127  63.396  10.303  1.00  0.00    -0.270 OA
HETATM   17  N4  UNL     1      31.186  64.516   9.892  1.00  0.00    -0.314 N 
ATOM     18  H4  UNL     1      31.842  63.737   9.829  1.00  0.00     0.170 HD
ENDROOT
TORSDOF 0
ENDMDL
MODEL 5
REMARK VINA RESULT: -5.850658965      2.436      3.956
REMARK  0 active torsions:
REMARK  status: ('A' for Active; 'I' for Inactive)
ROOT
HETATM    1  N1  UNL     1      31.890  66.259   8.729  1.00  0.00    -0.389 N 
ATOM      2  H11 UNL     1      32.632  65.667   8.355  1.00  0.00     0.157 HD
ATOM      3  H12 UNL     1      32.077  67.213   8.421  1.00  0.00     0.157 HD
HETATM    4  C1  UNL     1      30.903  65.869   9.455  1.00  0.00     0.080 C 
HETATM    5  C2  UNL     1      29.825  66.729   9.999  1.00  0.00     0.127 C 
HETATM    6  C3  UNL     1      28.686  65.709  10.127  1.00  0.00     0.204 A 
HETATM    7  N2  UNL     1      28.115  65.477   8.826  1.00  0.00    -0.316 N 
ATOM      8  H2  UNL     1      28.609  65.105   8.015  1.00  0.00     0.166 HD
HETATM    9  C4  UNL     1      26.754  65.851   8.863  1.00  0.00     0.324 A 
HETATM   10  O1  UNL     1      25.971  65.789   7.881  1.00  0.00    -0.247 OA
HETATM   11  N3  UNL     1      26.462  66.297  10.200  1.00  0.00    -0.277 N 
ATOM     12  H3  UNL     1      25.555  66.630  10.527  1.00  0.00     0.173 HD
HETATM   13  C5  UNL     1      27.634  66.201  10.987  1.00  0.00     0.264 A 
HETATM   14  O2  UNL     1      27.720  66.491  12.192  1.00  0.00    -0.270 OA
HETATM   15  C6  UNL     1      29.418  64.538  10.623  1.00  0.00     0.261 C 
HETATM   16  O3  UNL     1      29.102  63.683  11.505  1.00  0.00    -0.270 OA
HETATM   17  N4  UNL     1      30.639  64.516   9.892  1.00  0.00    -0.314 N 
ATOM     18  H4  UNL     1      31.220  63.697   9.710  1.00  0.00     0.170 HD
ENDROOT
TORSDOF 0
ENDMDL
