MODEL 1
REMARK VINA RESULT: -6.089405648      0.000      0.000
REMARK  1 active torsions:
REMARK  status: ('A' for Active; 'I' for Inactive)
REMARK    1  A    between atoms: N3_4  and  N4_6 
ROOT
HETATM    1  N4  UNL     1      27.837  66.190   7.960  1.00  0.00    -0.296 N 
ATOM      2  H4  UNL     1      27.543  66.096   6.988  1.00  0.00     0.187 HD
HETATM    3  C2  UNL     1      29.102  66.377   8.222  1.00  0.00     0.111 C 
HETATM    4  C3  UNL     1      30.136  66.463   7.186  1.00  0.00     0.189 C 
HETATM    5  N5  UNL     1      31.431  66.060   7.686  1.00  0.00    -0.337 N 
ATOM      6  H5  UNL     1      32.099  65.665   7.025  1.00  0.00     0.164 HD
HETATM    7  C4  UNL     1      31.827  66.184   9.041  1.00  0.00     0.323 C 
HETATM    8  O1  UNL     1      33.037  66.096   9.391  1.00  0.00    -0.247 OA
HETATM    9  N6  UNL     1      30.837  66.415  10.061  1.00  0.00    -0.274 N 
ATOM     10  H6  UNL     1      31.087  66.509  11.046  1.00  0.00     0.173 HD
HETATM   11  C5  UNL     1      29.491  66.506   9.613  1.00  0.00     0.275 C 
HETATM   12  O2  UNL     1      28.612  66.711  10.511  1.00  0.00    -0.266 OA
ENDROOT
BRANCH   1  13
HETATM   13  N3  UNL     1      26.888  66.114   8.952  1.00  0.00    -0.276 N 
HETATM   14  C1  UNL     1      25.884  65.341   8.992  1.00  0.00     0.215 C 
HETATM   15  N1  UNL     1      25.529  64.387   8.012  1.00  0.00    -0.065 NA
HETATM   16  N2  UNL     1      25.023  65.444  10.141  1.00  0.00    -0.065 NA
ATOM     17  H3  UNL     1      27.004  66.749   9.741  1.00  0.00     0.189 HD
ENDBRANCH   1  13
TORSDOF 1
ENDMDL
MODEL 2
REMARK VINA RESULT: -6.026751040      2.413      5.018
REMARK  1 active torsions:
REMARK  status: ('A' for Active; 'I' for Inactive)
REMARK    1  A    between atoms: N3_4  and  N4_6 
ROOT
HETATM    1  N4  UNL     1      29.300  66.593   9.136  1.00  0.00    -0.296 N 
ATOM      2  H4  UNL     1      28.815  67.380   8.704  1.00  0.00     0.187 HD
HETATM    3  C2  UNL     1      28.594  65.637   9.676  1.00  0.00     0.111 C 
HETATM    4  C3  UNL     1      27.128  65.628   9.696  1.00  0.00     0.189 C 
HETATM    5  N5  UNL     1      26.611  64.868  10.811  1.00  0.00    -0.337 N 
ATOM      6  H5  UNL     1      25.700  65.127  11.187  1.00  0.00     0.164 HD
HETATM    7  C4  UNL     1      27.297  63.783  11.412  1.00  0.00     0.323 C 
HETATM    8  O1  UNL     1      26.711  62.968  12.179  1.00  0.00    -0.247 OA
HETATM    9  N6  UNL     1      28.700  63.587  11.153  1.00  0.00    -0.274 N 
ATOM     10  H6  UNL     1      29.224  62.817  11.570  1.00  0.00     0.173 HD
HETATM   11  C5  UNL     1      29.310  64.531  10.283  1.00  0.00     0.275 C 
HETATM   12  O2  UNL     1      30.551  64.362  10.051  1.00  0.00    -0.266 OA
ENDROOT
BRANCH   1  13
HETATM   13  N3  UNL     1      30.675  66.575   9.131  1.00  0.00    -0.276 N 
HETATM   14  C1  UNL     1      31.438  66.782   8.141  1.00  0.00     0.215 C 
HETATM   15  N1  UNL     1      31.028  67.076   6.821  1.00  0.00    -0.065 NA
HETATM   16  N2  UNL     1      32.856  66.710   8.381  1.00  0.00    -0.065 NA
ATOM     17  H3  UNL     1      31.129  66.374  10.022  1.00  0.00     0.189 HD
ENDBRANCH   1  13
TORSDOF 1
ENDMDL
MODEL 3
REMARK VINA RESULT: -5.724570257      2.805      4.704
REMARK  1 active torsions:
REMARK  status: ('A' for Active; 'I' for Inactive)
REMARK    1  A    between atoms: N3_4  and  N4_6 
ROOT
HETATM    1  N4  UNL     1      27.955  66.294   9.596  1.00  0.00    -0.296 N 
ATOM      2  H4  UNL     1      27.177  66.935   9.439  1.00  0.00     0.187 HD
HETATM    3  C2  UNL     1      27.774  65.260  10.371  1.00  0.00     0.111 C 
HETATM    4  C3  UNL     1      26.502  64.963  11.037  1.00  0.00     0.189 C 
HETATM    5  N5  UNL     1      26.697  64.201  12.250  1.00  0.00    -0.337 N 
ATOM      6  H5  UNL     1      26.009  64.302  12.995  1.00  0.00     0.164 HD
HETATM    7  C4  UNL     1      27.787  63.321  12.462  1.00  0.00     0.323 C 
HETATM    8  O1  UNL     1      27.781  62.466  13.393  1.00  0.00    -0.247 OA
HETATM    9  N6  UNL     1      28.943  63.388  11.606  1.00  0.00    -0.274 N 
ATOM     10  H6  UNL     1      29.745  62.771  11.732  1.00  0.00     0.173 HD
HETATM   11  C5  UNL     1      28.899  64.367  10.576  1.00  0.00     0.275 C 
HETATM   12  O2  UNL     1      29.918  64.430   9.816  1.00  0.00    -0.266 OA
ENDROOT
BRANCH   1  13
HETATM   13  N3  UNL     1      29.159  66.549   8.983  1.00  0.00    -0.276 N 
HETATM   14  C1  UNL     1      29.363  66.742   7.747  1.00  0.00     0.215 C 
HETATM   15  N1  UNL     1      28.381  66.733   6.731  1.00  0.00    -0.065 NA
HETATM   16  N2  UNL     1      30.720  66.992   7.337  1.00  0.00    -0.065 NA
ATOM     17  H3  UNL     1      29.978  66.588   9.590  1.00  0.00     0.189 HD
ENDBRANCH   1  13
TORSDOF 1
ENDMDL
MODEL 4
REMARK VINA RESULT: -5.680124126      2.253      2.865
REMARK  1 active torsions:
REMARK  status: ('A' for Active; 'I' for Inactive)
REMARK    1  A    between atoms: N3_4  and  N4_6 
ROOT
HETATM    1  N4  UNL     1      26.875  64.736  10.770  1.00  0.00    -0.296 N 
ATOM      2  H4  UNL     1      26.107  65.375  10.978  1.00  0.00     0.187 HD
HETATM    3  C2  UNL     1      28.084  65.215  10.666  1.00  0.00     0.111 C 
HETATM    4  C3  UNL     1      28.407  66.636  10.833  1.00  0.00     0.189 C 
HETATM    5  N5  UNL     1      29.597  67.006  10.102  1.00  0.00    -0.337 N 
ATOM      6  H5  UNL     1      29.682  67.969   9.779  1.00  0.00     0.164 HD
HETATM    7  C4  UNL     1      30.653  66.108   9.808  1.00  0.00     0.323 C 
HETATM    8  O1  UNL     1      31.787  66.517   9.429  1.00  0.00    -0.247 OA
HETATM    9  N6  UNL     1      30.448  64.689   9.939  1.00  0.00    -0.274 N 
ATOM     10  H6  UNL     1      31.187  64.015   9.735  1.00  0.00     0.173 HD
HETATM   11  C5  UNL     1      29.155  64.284  10.369  1.00  0.00     0.275 C 
HETATM   12  O2  UNL     1      28.970  63.030  10.486  1.00  0.00    -0.266 OA
ENDROOT
BRANCH   1  13
HETATM   13  N3  UNL     1      26.601  63.399  10.608  1.00  0.00    -0.276 N 
HETATM   14  C1  UNL     1      25.867  62.870   9.721  1.00  0.00     0.215 C 
HETATM   15  N1  UNL     1      25.169  63.557   8.702  1.00  0.00    -0.065 NA
HETATM   16  N2  UNL     1      25.728  61.437   9.752  1.00  0.00    -0.065 NA
ATOM     17  H3  UNL     1      27.036  62.762  11.276  1.00  0.00     0.189 HD
ENDBRANCH   1  13
TORSDOF 1
ENDMDL
MODEL 5
REMARK VINA RESULT: -5.623785788      2.821      5.492
REMARK  1 active torsions:
REMARK  status: ('A' for Active; 'I' for Inactive)
REMARK    1  A    between atoms: N3_4  and  N4_6 
ROOT
HETATM    1  N4  UNL     1      30.041  64.794  10.407  1.00  0.00    -0.296 N 
ATOM      2  H4  UNL     1      30.933  64.504  10.808  1.00  0.00     0.187 HD
HETATM    3  C2  UNL     1      28.936  64.433  11.000  1.00  0.00     0.111 C 
HETATM    4  C3  UNL     1      28.903  63.628  12.225  1.00  0.00     0.189 C 
HETATM    5  N5  UNL     1      27.677  62.869  12.335  1.00  0.00    -0.337 N 
ATOM      6  H5  UNL     1      27.701  61.992  12.855  1.00  0.00     0.164 HD
HETATM    7  C4  UNL     1      26.445  63.274  11.765  1.00  0.00     0.323 C 
HETATM    8  O1  UNL     1      25.348  62.752  12.113  1.00  0.00    -0.247 OA
HETATM    9  N6  UNL     1      26.422  64.305  10.761  1.00  0.00    -0.274 N 
ATOM     10  H6  UNL     1      25.552  64.620  10.329  1.00  0.00     0.173 HD
HETATM   11  C5  UNL     1      27.682  64.859  10.407  1.00  0.00     0.275 C 
HETATM   12  O2  UNL     1      27.667  65.771   9.519  1.00  0.00    -0.266 OA
ENDROOT
BRANCH   1  13
HETATM   13  N3  UNL     1      30.043  65.550   9.259  1.00  0.00    -0.276 N 
HETATM   14  C1  UNL     1      30.995  66.255   8.809  1.00  0.00     0.215 C 
HETATM   15  N1  UNL     1      32.267  66.411   9.403  1.00  0.00    -0.065 NA
HETATM   16  N2  UNL     1      30.761  66.964   7.578  1.00  0.00    -0.065 NA
ATOM     17  H3  UNL     1      29.184  65.543   8.709  1.00  0.00     0.189 HD
ENDBRANCH   1  13
TORSDOF 1
ENDMDL
