MODEL 1
REMARK VINA RESULT: -7.676311146      0.000      0.000
REMARK  3 active torsions:
REMARK  status: ('A' for Active; 'I' for Inactive)
REMARK       I    between atoms: N1_1  and  C1_4 
REMARK       I    between atoms: C1_4  and  N2_6 
REMARK       I    between atoms: N2_6  and  C2_8 
REMARK       I    between atoms: C2_8  and  N3_10 
REMARK    1  A    between atoms: N3_10  and  S1_12 
REMARK    2  A    between atoms: S1_12  and  N4_15 
REMARK    3  A    between atoms: N4_15  and  C3_17 
ROOT
HETATM    1  N1  UNL     1      24.481  61.769   9.063  1.00  0.00    -0.352 N 
ATOM      2  H11 UNL     1      23.569  62.160   8.826  1.00  0.00     0.160 HD
ATOM      3  H12 UNL     1      24.572  60.764   8.915  1.00  0.00     0.160 HD
HETATM    4  C1  UNL     1      25.643  62.297   9.551  1.00  0.00     0.321 C 
HETATM    5  O1  UNL     1      26.669  61.857   9.819  1.00  0.00    -0.247 OA
HETATM    6  N2  UNL     1      25.490  63.990   9.801  1.00  0.00    -0.260 N 
ATOM      7  H2  UNL     1      24.696  64.619   9.675  1.00  0.00     0.175 HD
HETATM    8  C2  UNL     1      26.786  64.229  10.228  1.00  0.00     0.338 C 
HETATM    9  O2  UNL     1      27.769  63.468  10.290  1.00  0.00    -0.246 OA
HETATM   10  N3  UNL     1      27.032  65.628  10.679  1.00  0.00    -0.219 N 
ATOM     11  H3  UNL     1      26.280  66.316  10.695  1.00  0.00     0.185 HD
ENDROOT
BRANCH  10  12
HETATM   12  S1  UNL     1      28.596  66.033  11.163  1.00  0.00     0.323 S 
HETATM   13  O3  UNL     1      28.858  65.547  12.547  1.00  0.00    -0.182 OA
HETATM   14  O4  UNL     1      28.661  67.559  11.252  1.00  0.00    -0.182 OA
BRANCH  12  15
HETATM   15  N4  UNL     1      29.812  65.583  10.034  1.00  0.00    -0.298 N 
ATOM     16  H4  UNL     1      30.176  64.634   9.937  1.00  0.00     0.174 HD
BRANCH  15  17
HETATM   17  C3  UNL     1      30.261  66.704   9.237  1.00  0.00     0.094 C 
HETATM   18  C4  UNL     1      29.511  66.736   7.919  1.00  0.00     0.026 C 
HETATM   19  C5  UNL     1      30.200  65.994   6.814  1.00  0.00     0.002 C 
HETATM   20  C6  UNL     1      31.503  66.657   6.458  1.00  0.00     0.000 C 
HETATM   21  C7  UNL     1      32.200  67.156   7.688  1.00  0.00     0.002 C 
HETATM   22  C8  UNL     1      31.718  66.491   8.948  1.00  0.00     0.026 C 
ENDBRANCH  15  17
ENDBRANCH  12  15
ENDBRANCH  10  12
TORSDOF 3
ENDMDL
MODEL 2
REMARK VINA RESULT: -7.073538052      3.054      5.907
REMARK  3 active torsions:
REMARK  status: ('A' for Active; 'I' for Inactive)
REMARK       I    between atoms: N1_1  and  C1_4 
REMARK       I    between atoms: C1_4  and  N2_6 
REMARK       I    between atoms: N2_6  and  C2_8 
REMARK       I    between atoms: C2_8  and  N3_10 
REMARK    1  A    between atoms: N3_10  and  S1_12 
REMARK    2  A    between atoms: S1_12  and  N4_15 
REMARK    3  A    between atoms: N4_15  and  C3_17 
ROOT
HETATM    1  N1  UNL     1      31.609  67.509   6.145  1.00  0.00    -0.352 N 
ATOM      2  H11 UNL     1      31.530  68.335   5.553  1.00  0.00     0.160 HD
ATOM      3  H12 UNL     1      32.547  67.113   6.211  1.00  0.00     0.160 HD
HETATM    4  C1  UNL     1      30.722  66.786   6.890  1.00  0.00     0.321 C 
HETATM    5  O1  UNL     1      30.811  65.855   7.556  1.00  0.00    -0.247 OA
HETATM    6  N2  UNL     1      29.142  67.452   6.779  1.00  0.00    -0.260 N 
ATOM      7  H2  UNL     1      28.783  68.245   6.246  1.00  0.00     0.175 HD
HETATM    8  C2  UNL     1      28.511  66.572   7.643  1.00  0.00     0.338 C 
HETATM    9  O2  UNL     1      28.980  65.666   8.358  1.00  0.00    -0.246 OA
HETATM   10  N3  UNL     1      27.034  66.750   7.726  1.00  0.00    -0.219 N 
ATOM     11  H3  UNL     1      26.555  67.445   7.155  1.00  0.00     0.185 HD
ENDROOT
BRANCH  10  12
HETATM   12  S1  UNL     1      26.183  65.764   8.797  1.00  0.00     0.323 S 
HETATM   13  O3  UNL     1      25.881  64.447   8.169  1.00  0.00    -0.182 OA
HETATM   14  O4  UNL     1      24.822  66.421   9.033  1.00  0.00    -0.182 OA
BRANCH  12  15
HETATM   15  N4  UNL     1      26.909  65.634  10.351  1.00  0.00    -0.298 N 
ATOM     16  H4  UNL     1      27.242  66.432  10.892  1.00  0.00     0.174 HD
BRANCH  15  17
HETATM   17  C3  UNL     1      26.994  64.262  10.801  1.00  0.00     0.094 C 
HETATM   18  C4  UNL     1      25.954  64.002  11.874  1.00  0.00     0.026 C 
HETATM   19  C5  UNL     1      26.453  64.230  13.268  1.00  0.00     0.002 C 
HETATM   20  C6  UNL     1      27.529  63.238  13.617  1.00  0.00     0.000 C 
HETATM   21  C7  UNL     1      28.424  62.986  12.442  1.00  0.00     0.002 C 
HETATM   22  C8  UNL     1      28.355  64.074  11.406  1.00  0.00     0.026 C 
ENDBRANCH  15  17
ENDBRANCH  12  15
ENDBRANCH  10  12
TORSDOF 3
ENDMDL
MODEL 3
REMARK VINA RESULT: -7.055724972      2.506      6.078
REMARK  3 active torsions:
REMARK  status: ('A' for Active; 'I' for Inactive)
REMARK       I    between atoms: N1_1  and  C1_4 
REMARK       I    between atoms: C1_4  and  N2_6 
REMARK       I    between atoms: N2_6  and  C2_8 
REMARK       I    between atoms: C2_8  and  N3_10 
REMARK    1  A    between atoms: N3_10  and  S1_12 
REMARK    2  A    between atoms: S1_12  and  N4_15 
REMARK    3  A    between atoms: N4_15  and  C3_17 
ROOT
HETATM    1  N1  UNL     1      31.630  67.460   6.195  1.00  0.00    -0.352 N 
ATOM      2  H11 UNL     1      32.647  67.524   6.242  1.00  0.00     0.160 HD
ATOM      3  H12 UNL     1      31.204  67.925   5.394  1.00  0.00     0.160 HD
HETATM    4  C1  UNL     1      30.677  66.880   6.984  1.00  0.00     0.321 C 
HETATM    5  O1  UNL     1      29.533  66.808   6.932  1.00  0.00    -0.247 OA
HETATM    6  N2  UNL     1      31.394  66.096   8.335  1.00  0.00    -0.260 N 
ATOM      7  H2  UNL     1      32.367  66.029   8.634  1.00  0.00     0.175 HD
HETATM    8  C2  UNL     1      30.231  65.584   8.888  1.00  0.00     0.338 C 
HETATM    9  O2  UNL     1      29.061  65.597   8.461  1.00  0.00    -0.246 OA
HETATM   10  N3  UNL     1      30.424  64.908  10.201  1.00  0.00    -0.219 N 
ATOM     11  H3  UNL     1      31.341  64.875  10.646  1.00  0.00     0.185 HD
ENDROOT
BRANCH  10  12
HETATM   12  S1  UNL     1      29.077  64.201  10.927  1.00  0.00     0.323 S 
HETATM   13  O3  UNL     1      29.411  63.723  12.297  1.00  0.00    -0.182 OA
HETATM   14  O4  UNL     1      28.741  62.940  10.129  1.00  0.00    -0.182 OA
BRANCH  12  15
HETATM   15  N4  UNL     1      27.662  65.177  10.866  1.00  0.00    -0.298 N 
ATOM     16  H4  UNL     1      27.666  66.194  10.960  1.00  0.00     0.174 HD
BRANCH  15  17
HETATM   17  C3  UNL     1      26.464  64.392  10.666  1.00  0.00     0.094 C 
HETATM   18  C4  UNL     1      25.382  65.246  10.034  1.00  0.00     0.026 C 
HETATM   19  C5  UNL     1      24.480  65.913  11.027  1.00  0.00     0.002 C 
HETATM   20  C6  UNL     1      23.679  64.892  11.789  1.00  0.00     0.000 C 
HETATM   21  C7  UNL     1      24.510  63.684  12.097  1.00  0.00     0.002 C 
HETATM   22  C8  UNL     1      25.988  63.952  12.020  1.00  0.00     0.026 C 
ENDBRANCH  15  17
ENDBRANCH  12  15
ENDBRANCH  10  12
TORSDOF 3
ENDMDL
MODEL 4
REMARK VINA RESULT: -6.930914590      1.641      1.693
REMARK  3 active torsions:
REMARK  status: ('A' for Active; 'I' for Inactive)
REMARK       I    between atoms: N1_1  and  C1_4 
REMARK       I    between atoms: C1_4  and  N2_6 
REMARK       I    between atoms: N2_6  and  C2_8 
REMARK       I    between atoms: C2_8  and  N3_10 
REMARK    1  A    between atoms: N3_10  and  S1_12 
REMARK    2  A    between atoms: S1_12  and  N4_15 
REMARK    3  A    between atoms: N4_15  and  C3_17 
ROOT
HETATM    1  N1  UNL     1      23.565  63.918   7.912  1.00  0.00    -0.352 N 
ATOM      2  H11 UNL     1      22.857  63.371   8.400  1.00  0.00     0.160 HD
ATOM      3  H12 UNL     1      23.282  64.277   6.999  1.00  0.00     0.160 HD
HETATM    4  C1  UNL     1      24.846  64.293   8.205  1.00  0.00     0.321 C 
HETATM    5  O1  UNL     1      25.644  64.909   7.655  1.00  0.00    -0.247 OA
HETATM    6  N2  UNL     1      25.324  63.690   9.741  1.00  0.00    -0.260 N 
ATOM      7  H2  UNL     1      24.832  63.103  10.415  1.00  0.00     0.175 HD
HETATM    8  C2  UNL     1      26.589  64.255   9.774  1.00  0.00     0.338 C 
HETATM    9  O2  UNL     1      27.141  65.045   8.985  1.00  0.00    -0.246 OA
HETATM   10  N3  UNL     1      27.410  63.848  10.948  1.00  0.00    -0.219 N 
ATOM     11  H3  UNL     1      27.056  63.180  11.633  1.00  0.00     0.185 HD
ENDROOT
BRANCH  10  12
HETATM   12  S1  UNL     1      28.944  64.529  11.108  1.00  0.00     0.323 S 
HETATM   13  O3  UNL     1      29.695  63.873  12.215  1.00  0.00    -0.182 OA
HETATM   14  O4  UNL     1      28.752  65.979  11.554  1.00  0.00    -0.182 OA
BRANCH  12  15
HETATM   15  N4  UNL     1      29.826  64.611   9.634  1.00  0.00    -0.298 N 
ATOM     16  H4  UNL     1      29.991  63.809   9.024  1.00  0.00     0.174 HD
BRANCH  15  17
HETATM   17  C3  UNL     1      30.308  65.947   9.358  1.00  0.00     0.094 C 
HETATM   18  C4  UNL     1      29.732  66.445   8.046  1.00  0.00     0.026 C 
HETATM   19  C5  UNL     1      30.597  66.156   6.857  1.00  0.00     0.002 C 
HETATM   20  C6  UNL     1      31.895  66.912   6.947  1.00  0.00     0.000 C 
HETATM   21  C7  UNL     1      32.400  66.940   8.358  1.00  0.00     0.002 C 
HETATM   22  C8  UNL     1      31.799  65.863   9.219  1.00  0.00     0.026 C 
ENDBRANCH  15  17
ENDBRANCH  12  15
ENDBRANCH  10  12
TORSDOF 3
ENDMDL
MODEL 5
REMARK VINA RESULT: -6.903792657      1.723      2.089
REMARK  3 active torsions:
REMARK  status: ('A' for Active; 'I' for Inactive)
REMARK       I    between atoms: N1_1  and  C1_4 
REMARK       I    between atoms: C1_4  and  N2_6 
REMARK       I    between atoms: N2_6  and  C2_8 
REMARK       I    between atoms: C2_8  and  N3_10 
REMARK    1  A    between atoms: N3_10  and  S1_12 
REMARK    2  A    between atoms: S1_12  and  N4_15 
REMARK    3  A    between atoms: N4_15  and  C3_17 
ROOT
HETATM    1  N1  UNL     1      23.234  64.733   8.076  1.00  0.00    -0.352 N 
ATOM      2  H11 UNL     1      22.404  65.102   8.537  1.00  0.00     0.160 HD
ATOM      3  H12 UNL     1      23.056  64.210   7.218  1.00  0.00     0.160 HD
HETATM    4  C1  UNL     1      24.572  64.776   8.349  1.00  0.00     0.321 C 
HETATM    5  O1  UNL     1      25.508  64.361   7.829  1.00  0.00    -0.247 OA
HETATM    6  N2  UNL     1      24.873  65.657   9.794  1.00  0.00    -0.260 N 
ATOM      7  H2  UNL     1      24.237  66.101  10.455  1.00  0.00     0.175 HD
HETATM    8  C2  UNL     1      26.257  65.571   9.774  1.00  0.00     0.338 C 
HETATM    9  O2  UNL     1      27.025  65.105   8.913  1.00  0.00    -0.246 OA
HETATM   10  N3  UNL     1      26.921  66.136  10.982  1.00  0.00    -0.219 N 
ATOM     11  H3  UNL     1      26.374  66.513  11.756  1.00  0.00     0.185 HD
ENDROOT
BRANCH  10  12
HETATM   12  S1  UNL     1      28.606  66.132  11.027  1.00  0.00     0.323 S 
HETATM   13  O3  UNL     1      29.124  64.739  11.123  1.00  0.00    -0.182 OA
HETATM   14  O4  UNL     1      29.027  66.811  12.331  1.00  0.00    -0.182 OA
BRANCH  12  15
HETATM   15  N4  UNL     1      29.337  67.052   9.770  1.00  0.00    -0.298 N 
ATOM     16  H4  UNL     1      29.356  68.072   9.748  1.00  0.00     0.174 HD
BRANCH  15  17
HETATM   17  C3  UNL     1      29.923  66.212   8.748  1.00  0.00     0.094 C 
HETATM   18  C4  UNL     1      31.411  66.054   8.995  1.00  0.00     0.026 C 
HETATM   19  C5  UNL     1      32.253  67.074   8.290  1.00  0.00     0.002 C 
HETATM   20  C6  UNL     1      32.156  66.904   6.798  1.00  0.00     0.000 C 
HETATM   21  C7  UNL     1      30.756  66.553   6.391  1.00  0.00     0.002 C 
HETATM   22  C8  UNL     1      29.733  66.911   7.434  1.00  0.00     0.026 C 
ENDBRANCH  15  17
ENDBRANCH  12  15
ENDBRANCH  10  12
TORSDOF 3
ENDMDL
