MODEL 1
REMARK VINA RESULT: -7.557930039      0.000      0.000
REMARK  3 active torsions:
REMARK  status: ('A' for Active; 'I' for Inactive)
REMARK    1  A    between atoms: N1_2  and  C2_5 
REMARK    2  A    between atoms: C6_9  and  O1_10 
REMARK    3  A    between atoms: O1_10  and  C7_11 
ROOT
HETATM    1  C2  UNL     1      56.284  77.629  61.303  1.00  0.00     0.188 C 
HETATM    2  C3  UNL     1      55.982  76.344  60.581  1.00  0.00     0.033 C 
HETATM    3  C4  UNL     1      54.622  76.301  59.973  1.00  0.00     0.004 C 
HETATM    4  C5  UNL     1      54.279  77.518  59.158  1.00  0.00     0.033 C 
HETATM    5  C6  UNL     1      54.509  78.729  59.996  1.00  0.00     0.134 C 
HETATM    6  C9  UNL     1      56.004  78.765  60.338  1.00  0.00     0.065 C 
ENDROOT
BRANCH   1   7
HETATM    7  N1  UNL     1      57.701  77.691  61.611  1.00  0.00    -0.075 N 
HETATM    8  C1  UNL     1      58.289  76.369  61.596  1.00  0.00     0.267 C 
ATOM      9  H12 UNL     1      57.874  78.171  62.495  1.00  0.00     0.277 HD
ATOM     10  H11 UNL     1      58.194  78.331  60.989  1.00  0.00     0.277 HD
ENDBRANCH   1   7
BRANCH   5  11
HETATM   11  O1  UNL     1      54.231  79.942  59.319  1.00  0.00    -0.316 OA
BRANCH  11  12
HETATM   12  C7  UNL     1      53.005  80.133  58.685  1.00  0.00     0.255 C 
HETATM   13  C8  UNL     1      51.772  79.403  59.079  1.00  0.00     0.126 C 
HETATM   14  O2  UNL     1      52.990  80.970  57.743  1.00  0.00    -0.266 OA
ENDBRANCH  11  12
ENDBRANCH   5  11
TORSDOF 3
ENDMDL
MODEL 2
REMARK VINA RESULT: -7.340266370      2.729      5.121
REMARK  3 active torsions:
REMARK  status: ('A' for Active; 'I' for Inactive)
REMARK    1  A    between atoms: N1_2  and  C2_5 
REMARK    2  A    between atoms: C6_9  and  O1_10 
REMARK    3  A    between atoms: O1_10  and  C7_11 
ROOT
HETATM    1  C2  UNL     1      53.502  78.643  60.180  1.00  0.00     0.188 C 
HETATM    2  C3  UNL     1      53.418  80.140  60.052  1.00  0.00     0.033 C 
HETATM    3  C4  UNL     1      54.606  80.858  60.594  1.00  0.00     0.004 C 
HETATM    4  C5  UNL     1      55.922  80.308  60.116  1.00  0.00     0.033 C 
HETATM    5  C6  UNL     1      55.949  78.843  60.386  1.00  0.00     0.134 C 
HETATM    6  C9  UNL     1      54.819  78.211  59.564  1.00  0.00     0.065 C 
ENDROOT
BRANCH   1   7
HETATM    7  N1  UNL     1      52.454  78.029  59.386  1.00  0.00    -0.075 N 
HETATM    8  C1  UNL     1      51.487  79.015  58.958  1.00  0.00     0.267 C 
ATOM      9  H12 UNL     1      52.010  77.255  59.881  1.00  0.00     0.277 HD
ATOM     10  H11 UNL     1      52.836  77.508  58.596  1.00  0.00     0.277 HD
ENDBRANCH   1   7
BRANCH   5  11
HETATM   11  O1  UNL     1      57.145  78.214  59.959  1.00  0.00    -0.316 OA
BRANCH  11  12
HETATM   12  C7  UNL     1      57.955  77.542  60.872  1.00  0.00     0.255 C 
HETATM   13  C8  UNL     1      57.457  76.436  61.731  1.00  0.00     0.126 C 
HETATM   14  O2  UNL     1      59.154  77.924  60.938  1.00  0.00    -0.266 OA
ENDBRANCH  11  12
ENDBRANCH   5  11
TORSDOF 3
ENDMDL
MODEL 3
REMARK VINA RESULT: -7.103724620      1.277      2.069
REMARK  3 active torsions:
REMARK  status: ('A' for Active; 'I' for Inactive)
REMARK    1  A    between atoms: N1_2  and  C2_5 
REMARK    2  A    between atoms: C6_9  and  O1_10 
REMARK    3  A    between atoms: O1_10  and  C7_11 
ROOT
HETATM    1  C2  UNL     1      56.102  77.791  60.560  1.00  0.00     0.188 C 
HETATM    2  C3  UNL     1      57.152  78.779  60.992  1.00  0.00     0.033 C 
HETATM    3  C4  UNL     1      56.987  80.133  60.395  1.00  0.00     0.004 C 
HETATM    4  C5  UNL     1      55.592  80.684  60.507  1.00  0.00     0.033 C 
HETATM    5  C6  UNL     1      54.640  79.680  59.956  1.00  0.00     0.134 C 
HETATM    6  C9  UNL     1      54.750  78.424  60.829  1.00  0.00     0.065 C 
ENDROOT
BRANCH   1   7
HETATM    7  N1  UNL     1      56.177  76.607  61.395  1.00  0.00    -0.075 N 
HETATM    8  C1  UNL     1      57.546  76.323  61.766  1.00  0.00     0.267 C 
ATOM      9  H12 UNL     1      55.732  75.803  60.950  1.00  0.00     0.277 HD
ATOM     10  H11 UNL     1      55.573  76.684  62.213  1.00  0.00     0.277 HD
ENDBRANCH   1   7
BRANCH   5  11
HETATM   11  O1  UNL     1      53.285  80.090  60.026  1.00  0.00    -0.316 OA
BRANCH  11  12
HETATM   12  C7  UNL     1      52.471  80.038  58.896  1.00  0.00     0.255 C 
HETATM   13  C8  UNL     1      51.332  79.093  58.766  1.00  0.00     0.126 C 
HETATM   14  O2  UNL     1      52.753  80.846  57.971  1.00  0.00    -0.266 OA
ENDBRANCH  11  12
ENDBRANCH   5  11
TORSDOF 3
ENDMDL
MODEL 4
REMARK VINA RESULT: -6.697307414      1.426      2.158
REMARK  3 active torsions:
REMARK  status: ('A' for Active; 'I' for Inactive)
REMARK    1  A    between atoms: N1_2  and  C2_5 
REMARK    2  A    between atoms: C6_9  and  O1_10 
REMARK    3  A    between atoms: O1_10  and  C7_11 
ROOT
HETATM    1  C2  UNL     1      56.533  77.336  60.354  1.00  0.00     0.188 C 
HETATM    2  C3  UNL     1      57.265  78.459  61.037  1.00  0.00     0.033 C 
HETATM    3  C4  UNL     1      56.742  79.812  60.697  1.00  0.00     0.004 C 
HETATM    4  C5  UNL     1      55.248  79.937  60.817  1.00  0.00     0.033 C 
HETATM    5  C6  UNL     1      54.616  78.847  60.021  1.00  0.00     0.134 C 
HETATM    6  C9  UNL     1      55.056  77.517  60.646  1.00  0.00     0.065 C 
ENDROOT
BRANCH   1   7
HETATM    7  N1  UNL     1      56.919  76.071  60.953  1.00  0.00    -0.075 N 
HETATM    8  C1  UNL     1      58.154  76.207  61.693  1.00  0.00     0.267 C 
ATOM      9  H12 UNL     1      56.975  75.326  60.258  1.00  0.00     0.277 HD
ATOM     10  H11 UNL     1      56.173  75.685  61.532  1.00  0.00     0.277 HD
ENDBRANCH   1   7
BRANCH   5  11
HETATM   11  O1  UNL     1      53.201  78.859  60.076  1.00  0.00    -0.316 OA
BRANCH  11  12
HETATM   12  C7  UNL     1      52.458  79.450  59.055  1.00  0.00     0.255 C 
HETATM   13  C8  UNL     1      53.053  80.382  58.062  1.00  0.00     0.126 C 
HETATM   14  O2  UNL     1      51.235  79.152  59.013  1.00  0.00    -0.266 OA
ENDBRANCH  11  12
ENDBRANCH   5  11
TORSDOF 3
ENDMDL
MODEL 5
REMARK VINA RESULT: -6.654097866      1.714      2.328
REMARK  3 active torsions:
REMARK  status: ('A' for Active; 'I' for Inactive)
REMARK    1  A    between atoms: N1_2  and  C2_5 
REMARK    2  A    between atoms: C6_9  and  O1_10 
REMARK    3  A    between atoms: O1_10  and  C7_11 
ROOT
HETATM    1  C2  UNL     1      56.640  77.374  60.994  1.00  0.00     0.188 C 
HETATM    2  C3  UNL     1      57.257  78.724  61.241  1.00  0.00     0.033 C 
HETATM    3  C4  UNL     1      56.561  79.841  60.542  1.00  0.00     0.004 C 
HETATM    4  C5  UNL     1      55.069  79.843  60.731  1.00  0.00     0.033 C 
HETATM    5  C6  UNL     1      54.542  78.500  60.359  1.00  0.00     0.134 C 
HETATM    6  C9  UNL     1      55.164  77.486  61.327  1.00  0.00     0.065 C 
ENDROOT
BRANCH   1   7
HETATM    7  N1  UNL     1      57.199  76.408  61.921  1.00  0.00    -0.075 N 
HETATM    8  C1  UNL     1      58.508  75.973  61.485  1.00  0.00     0.267 C 
ATOM      9  H12 UNL     1      56.570  75.619  62.070  1.00  0.00     0.277 HD
ATOM     10  H11 UNL     1      57.221  76.770  62.875  1.00  0.00     0.277 HD
ENDBRANCH   1   7
BRANCH   5  11
HETATM   11  O1  UNL     1      53.139  78.382  60.516  1.00  0.00    -0.316 OA
BRANCH  11  12
HETATM   12  C7  UNL     1      52.316  78.208  59.404  1.00  0.00     0.255 C 
HETATM   13  C8  UNL     1      51.331  79.230  58.962  1.00  0.00     0.126 C 
HETATM   14  O2  UNL     1      52.448  77.122  58.780  1.00  0.00    -0.266 OA
ENDBRANCH  11  12
ENDBRANCH   5  11
TORSDOF 3
ENDMDL
