MODEL 1
REMARK VINA RESULT: -8.355060813      0.000      0.000
REMARK  7 active torsions:
REMARK  status: ('A' for Active; 'I' for Inactive)
REMARK    1  A    between atoms: C3_3  and  C4_4 
REMARK    2  A    between atoms: C9_11  and  N2_12 
REMARK    3  A    between atoms: N2_12  and  C10_14 
REMARK    4  A    between atoms: C13_17  and  N3_18 
REMARK       I    between atoms: N3_18  and  C14_20 
REMARK    5  A    between atoms: C14_20  and  O2_22 
REMARK    6  A    between atoms: O2_22  and  C15_23 
REMARK    7  A    between atoms: C15_23  and  O3_25 
ROOT
HETATM    1  C10 UNL     1      51.381  -7.146   8.867  1.00  0.00     0.081 C 
HETATM    2  C11 UNL     1      51.026  -6.350   7.582  1.00  0.00     0.027 C 
HETATM    3  C12 UNL     1      52.093  -5.288   7.510  1.00  0.00     0.027 C 
HETATM    4  C13 UNL     1      53.415  -5.977   7.342  1.00  0.00     0.086 C 
HETATM    5  C17 UNL     1      53.317  -7.487   7.297  1.00  0.00     0.027 C 
HETATM    6  C18 UNL     1      52.510  -8.009   8.502  1.00  0.00     0.027 C 
ENDROOT
BRANCH   1   7
HETATM    7  N2  UNL     1      50.168  -7.568   9.402  1.00  0.00    -0.388 N 
ATOM      8  H2  UNL     1      49.291  -7.159   9.078  1.00  0.00     0.159 HD
BRANCH   7   9
HETATM    9  C9  UNL     1      50.165  -8.547  10.375  1.00  0.00     0.018 C 
HETATM   10  C8  UNL     1      49.051  -8.741  11.294  1.00  0.00     0.017 A 
HETATM   11  C2  UNL     1      47.892  -8.135  11.755  1.00  0.00    -0.025 A 
HETATM   12  C7  UNL     1      49.366  -9.817  12.076  1.00  0.00     0.022 A 
HETATM   13  C1  UNL     1      47.283  -6.924  11.219  1.00  0.00     0.051 C 
HETATM   14  C3  UNL     1      47.539  -8.894  12.857  1.00  0.00     0.019 A 
HETATM   15  N1  UNL     1      48.410  -9.895  13.049  1.00  0.00    -0.361 N 
ATOM     16  H1  UNL     1      48.367 -10.592  13.792  1.00  0.00     0.165 HD
HETATM   17  C20 UNL     1      50.575 -10.506  11.542  1.00  0.00     0.064 C 
HETATM   18  C19 UNL     1      50.830  -9.837  10.193  1.00  0.00     0.063 C 
BRANCH  14  19
HETATM   19  C4  UNL     1      46.289  -8.609  13.628  1.00  0.00     0.028 C 
HETATM   20  C5  UNL     1      46.705  -8.461  15.100  1.00  0.00     0.016 C 
HETATM   21  C6  UNL     1      45.466  -9.927  13.643  1.00  0.00     0.016 C 
ENDBRANCH  14  19
ENDBRANCH   7   9
ENDBRANCH   1   7
BRANCH   4  22
HETATM   22  N3  UNL     1      54.073  -5.385   6.213  1.00  0.00    -0.332 N 
HETATM   23  C14 UNL     1      54.984  -4.328   6.118  1.00  0.00     0.363 C 
HETATM   24  O1  UNL     1      55.367  -3.740   7.151  1.00  0.00    -0.238 OA
ATOM     25  H3  UNL     1      53.833  -5.813   5.318  1.00  0.00     0.165 HD
BRANCH  23  26
HETATM   26  O2  UNL     1      55.481  -3.908   4.906  1.00  0.00    -0.273 OA
BRANCH  26  27
HETATM   27  C15 UNL     1      56.772  -3.471   4.608  1.00  0.00     0.264 C 
HETATM   28  C16 UNL     1      56.854  -3.312   3.098  1.00  0.00     0.071 C 
BRANCH  27  29
HETATM   29  O3  UNL     1      57.091  -2.222   5.140  1.00  0.00    -0.371 OA
ATOM     30  H3  UNL     1      56.937  -2.146   6.074  1.00  0.00     0.212 HD
ENDBRANCH  27  29
ENDBRANCH  26  27
ENDBRANCH  23  26
ENDBRANCH   4  22
TORSDOF 7
ENDMDL
MODEL 2
REMARK VINA RESULT: -8.210895154      4.643      9.843
REMARK  7 active torsions:
REMARK  status: ('A' for Active; 'I' for Inactive)
REMARK    1  A    between atoms: C3_3  and  C4_4 
REMARK    2  A    between atoms: C9_11  and  N2_12 
REMARK    3  A    between atoms: N2_12  and  C10_14 
REMARK    4  A    between atoms: C13_17  and  N3_18 
REMARK       I    between atoms: N3_18  and  C14_20 
REMARK    5  A    between atoms: C14_20  and  O2_22 
REMARK    6  A    between atoms: O2_22  and  C15_23 
REMARK    7  A    between atoms: C15_23  and  O3_25 
ROOT
HETATM    1  C10 UNL     1      51.804  -9.319   9.264  1.00  0.00     0.081 C 
HETATM    2  C11 UNL     1      51.259  -8.146  10.122  1.00  0.00     0.027 C 
HETATM    3  C12 UNL     1      49.854  -8.571  10.465  1.00  0.00     0.027 C 
HETATM    4  C13 UNL     1      49.942  -9.818  11.294  1.00  0.00     0.086 C 
HETATM    5  C17 UNL     1      51.359 -10.289  11.543  1.00  0.00     0.027 C 
HETATM    6  C18 UNL     1      52.134 -10.387  10.215  1.00  0.00     0.027 C 
ENDROOT
BRANCH   1   7
HETATM    7  N2  UNL     1      52.673  -8.747   8.342  1.00  0.00    -0.388 N 
ATOM      8  H2  UNL     1      53.374  -9.318   7.869  1.00  0.00     0.159 HD
BRANCH   7   9
HETATM    9  C9  UNL     1      52.576  -7.396   8.074  1.00  0.00     0.018 C 
HETATM   10  C8  UNL     1      53.708  -6.599   7.624  1.00  0.00     0.017 A 
HETATM   11  C2  UNL     1      55.090  -6.627   7.500  1.00  0.00    -0.025 A 
HETATM   12  C7  UNL     1      53.241  -5.332   7.410  1.00  0.00     0.022 A 
HETATM   13  C1  UNL     1      55.949  -7.785   7.723  1.00  0.00     0.051 C 
HETATM   14  C3  UNL     1      55.423  -5.315   7.215  1.00  0.00     0.019 A 
HETATM   15  N1  UNL     1      54.328  -4.544   7.158  1.00  0.00    -0.361 N 
ATOM     16  H1  UNL     1      54.310  -3.543   6.961  1.00  0.00     0.165 HD
HETATM   17  C20 UNL     1      51.753  -5.314   7.479  1.00  0.00     0.064 C 
HETATM   18  C19 UNL     1      51.356  -6.787   7.543  1.00  0.00     0.063 C 
BRANCH  14  19
HETATM   19  C4  UNL     1      56.839  -4.916   6.943  1.00  0.00     0.028 C 
HETATM   20  C5  UNL     1      57.503  -4.695   8.313  1.00  0.00     0.016 C 
HETATM   21  C6  UNL     1      56.791  -3.477   6.358  1.00  0.00     0.016 C 
ENDBRANCH  14  19
ENDBRANCH   7   9
ENDBRANCH   1   7
BRANCH   4  22
HETATM   22  N3  UNL     1      49.162  -9.608  12.479  1.00  0.00    -0.332 N 
HETATM   23  C14 UNL     1      47.808  -9.829  12.751  1.00  0.00     0.363 C 
HETATM   24  O1  UNL     1      47.065 -10.308  11.870  1.00  0.00    -0.238 OA
ATOM     25  H3  UNL     1      49.691  -9.231  13.265  1.00  0.00     0.165 HD
BRANCH  23  26
HETATM   26  O2  UNL     1      47.259  -9.531  13.976  1.00  0.00    -0.273 OA
BRANCH  26  27
HETATM   27  C15 UNL     1      46.050  -8.889  14.247  1.00  0.00     0.264 C 
HETATM   28  C16 UNL     1      46.156  -8.302  15.646  1.00  0.00     0.071 C 
BRANCH  27  29
HETATM   29  O3  UNL     1      45.771  -7.814  13.404  1.00  0.00    -0.371 OA
ATOM     30  H3  UNL     1      45.945  -6.963  13.788  1.00  0.00     0.212 HD
ENDBRANCH  27  29
ENDBRANCH  26  27
ENDBRANCH  23  26
ENDBRANCH   4  22
TORSDOF 7
ENDMDL
MODEL 3
REMARK VINA RESULT: -8.161822796      4.559     10.141
REMARK  7 active torsions:
REMARK  status: ('A' for Active; 'I' for Inactive)
REMARK    1  A    between atoms: C3_3  and  C4_4 
REMARK    2  A    between atoms: C9_11  and  N2_12 
REMARK    3  A    between atoms: N2_12  and  C10_14 
REMARK    4  A    between atoms: C13_17  and  N3_18 
REMARK       I    between atoms: N3_18  and  C14_20 
REMARK    5  A    between atoms: C14_20  and  O2_22 
REMARK    6  A    between atoms: O2_22  and  C15_23 
REMARK    7  A    between atoms: C15_23  and  O3_25 
ROOT
HETATM    1  C10 UNL     1      51.784  -8.714   8.859  1.00  0.00     0.081 C 
HETATM    2  C11 UNL     1      51.351  -7.470   9.681  1.00  0.00     0.027 C 
HETATM    3  C12 UNL     1      49.869  -7.667   9.878  1.00  0.00     0.027 C 
HETATM    4  C13 UNL     1      49.676  -8.913  10.689  1.00  0.00     0.086 C 
HETATM    5  C17 UNL     1      50.969  -9.605  11.066  1.00  0.00     0.027 C 
HETATM    6  C18 UNL     1      51.845  -9.823   9.818  1.00  0.00     0.027 C 
ENDROOT
BRANCH   1   7
HETATM    7  N2  UNL     1      52.820  -8.286   8.035  1.00  0.00    -0.388 N 
ATOM      8  H2  UNL     1      53.700  -8.800   8.003  1.00  0.00     0.159 HD
BRANCH   7   9
HETATM    9  C9  UNL     1      52.642  -7.156   7.262  1.00  0.00     0.018 C 
HETATM   10  C8  UNL     1      53.753  -6.421   6.674  1.00  0.00     0.017 A 
HETATM   11  C2  UNL     1      55.133  -6.290   6.728  1.00  0.00    -0.025 A 
HETATM   12  C7  UNL     1      53.211  -5.403   5.940  1.00  0.00     0.022 A 
HETATM   13  C1  UNL     1      56.049  -7.147   7.472  1.00  0.00     0.051 C 
HETATM   14  C3  UNL     1      55.385  -5.139   6.003  1.00  0.00     0.019 A 
HETATM   15  N1  UNL     1      54.246  -4.611   5.532  1.00  0.00    -0.361 N 
ATOM     16  H1  UNL     1      54.167  -3.765   4.967  1.00  0.00     0.165 HD
HETATM   17  C20 UNL     1      51.735  -5.579   5.827  1.00  0.00     0.064 C 
HETATM   18  C19 UNL     1      51.471  -6.968   6.404  1.00  0.00     0.063 C 
BRANCH  14  19
HETATM   19  C4  UNL     1      56.783  -4.663   5.763  1.00  0.00     0.028 C 
HETATM   20  C5  UNL     1      56.960  -3.383   6.596  1.00  0.00     0.016 C 
HETATM   21  C6  UNL     1      56.824  -4.124   4.306  1.00  0.00     0.016 C 
ENDBRANCH  14  19
ENDBRANCH   7   9
ENDBRANCH   1   7
BRANCH   4  22
HETATM   22  N3  UNL     1      48.827  -8.584  11.797  1.00  0.00    -0.332 N 
HETATM   23  C14 UNL     1      47.897  -9.345  12.514  1.00  0.00     0.363 C 
HETATM   24  O1  UNL     1      47.715 -10.545  12.220  1.00  0.00    -0.238 OA
ATOM     25  H3  UNL     1      48.918  -7.621  12.122  1.00  0.00     0.165 HD
BRANCH  23  26
HETATM   26  O2  UNL     1      47.167  -8.809  13.548  1.00  0.00    -0.273 OA
BRANCH  26  27
HETATM   27  C15 UNL     1      46.254  -9.452  14.384  1.00  0.00     0.264 C 
HETATM   28  C16 UNL     1      45.823  -8.445  15.438  1.00  0.00     0.071 C 
BRANCH  27  29
HETATM   29  O3  UNL     1      45.083  -9.861  13.746  1.00  0.00    -0.371 OA
ATOM     30  H3  UNL     1      44.665 -10.615  14.145  1.00  0.00     0.212 HD
ENDBRANCH  27  29
ENDBRANCH  26  27
ENDBRANCH  23  26
ENDBRANCH   4  22
TORSDOF 7
ENDMDL
MODEL 4
REMARK VINA RESULT: -8.086405776      2.207      4.058
REMARK  7 active torsions:
REMARK  status: ('A' for Active; 'I' for Inactive)
REMARK    1  A    between atoms: C3_3  and  C4_4 
REMARK    2  A    between atoms: C9_11  and  N2_12 
REMARK    3  A    between atoms: N2_12  and  C10_14 
REMARK    4  A    between atoms: C13_17  and  N3_18 
REMARK       I    between atoms: N3_18  and  C14_20 
REMARK    5  A    between atoms: C14_20  and  O2_22 
REMARK    6  A    between atoms: O2_22  and  C15_23 
REMARK    7  A    between atoms: C15_23  and  O3_25 
ROOT
HETATM    1  C10 UNL     1      51.041  -7.012   8.394  1.00  0.00     0.081 C 
HETATM    2  C11 UNL     1      52.502  -6.531   8.180  1.00  0.00     0.027 C 
HETATM    3  C12 UNL     1      52.876  -7.103   6.837  1.00  0.00     0.027 C 
HETATM    4  C13 UNL     1      51.975  -6.487   5.809  1.00  0.00     0.086 C 
HETATM    5  C17 UNL     1      50.975  -5.504   6.381  1.00  0.00     0.027 C 
HETATM    6  C18 UNL     1      50.209  -6.140   7.556  1.00  0.00     0.027 C 
ENDROOT
BRANCH   1   7
HETATM    7  N2  UNL     1      50.900  -7.207   9.764  1.00  0.00    -0.388 N 
ATOM      8  H2  UNL     1      51.436  -6.643  10.424  1.00  0.00     0.159 HD
BRANCH   7   9
HETATM    9  C9  UNL     1      50.027  -8.175  10.220  1.00  0.00     0.018 C 
HETATM   10  C8  UNL     1      50.394  -9.580  10.325  1.00  0.00     0.017 A 
HETATM   11  C2  UNL     1      51.361 -10.494   9.933  1.00  0.00    -0.025 A 
HETATM   12  C7  UNL     1      49.316 -10.232  10.855  1.00  0.00     0.022 A 
HETATM   13  C1  UNL     1      52.620 -10.180   9.266  1.00  0.00     0.051 C 
HETATM   14  C3  UNL     1      50.801 -11.721  10.243  1.00  0.00     0.019 A 
HETATM   15  N1  UNL     1      49.588 -11.569  10.793  1.00  0.00    -0.361 N 
ATOM     16  H1  UNL     1      48.976 -12.321  11.109  1.00  0.00     0.165 HD
HETATM   17  C20 UNL     1      48.304  -9.248  11.336  1.00  0.00     0.064 C 
HETATM   18  C19 UNL     1      49.007  -7.897  11.232  1.00  0.00     0.063 C 
BRANCH  14  19
HETATM   19  C4  UNL     1      51.557 -12.994  10.029  1.00  0.00     0.028 C 
HETATM   20  C5  UNL     1      50.511 -14.078   9.719  1.00  0.00     0.016 C 
HETATM   21  C6  UNL     1      52.092 -13.432  11.421  1.00  0.00     0.016 C 
ENDBRANCH  14  19
ENDBRANCH   7   9
ENDBRANCH   1   7
BRANCH   4  22
HETATM   22  N3  UNL     1      52.804  -5.959   4.764  1.00  0.00    -0.332 N 
HETATM   23  C14 UNL     1      53.622  -4.824   4.711  1.00  0.00     0.363 C 
HETATM   24  O1  UNL     1      53.727  -4.083   5.710  1.00  0.00    -0.238 OA
ATOM     25  H3  UNL     1      52.797  -6.510   3.906  1.00  0.00     0.165 HD
BRANCH  23  26
HETATM   26  O2  UNL     1      54.326  -4.494   3.577  1.00  0.00    -0.273 OA
BRANCH  26  27
HETATM   27  C15 UNL     1      53.868  -4.448   2.259  1.00  0.00     0.264 C 
HETATM   28  C16 UNL     1      54.527  -5.599   1.515  1.00  0.00     0.071 C 
BRANCH  27  29
HETATM   29  O3  UNL     1      52.494  -4.644   2.124  1.00  0.00    -0.371 OA
ATOM     30  H3  UNL     1      52.131  -4.309   1.313  1.00  0.00     0.212 HD
ENDBRANCH  27  29
ENDBRANCH  26  27
ENDBRANCH  23  26
ENDBRANCH   4  22
TORSDOF 7
ENDMDL
MODEL 5
REMARK VINA RESULT: -7.922405852      5.160      8.757
REMARK  7 active torsions:
REMARK  status: ('A' for Active; 'I' for Inactive)
REMARK    1  A    between atoms: C3_3  and  C4_4 
REMARK    2  A    between atoms: C9_11  and  N2_12 
REMARK    3  A    between atoms: N2_12  and  C10_14 
REMARK    4  A    between atoms: C13_17  and  N3_18 
REMARK       I    between atoms: N3_18  and  C14_20 
REMARK    5  A    between atoms: C14_20  and  O2_22 
REMARK    6  A    between atoms: O2_22  and  C15_23 
REMARK    7  A    between atoms: C15_23  and  O3_25 
ROOT
HETATM    1  C10 UNL     1      52.829 -11.294  11.431  1.00  0.00     0.081 C 
HETATM    2  C11 UNL     1      52.332 -10.532  12.689  1.00  0.00     0.027 C 
HETATM    3  C12 UNL     1      52.838 -11.366  13.838  1.00  0.00     0.027 C 
HETATM    4  C13 UNL     1      54.337 -11.354  13.788  1.00  0.00     0.086 C 
HETATM    5  C17 UNL     1      54.905 -10.546  12.640  1.00  0.00     0.027 C 
HETATM    6  C18 UNL     1      54.256 -10.973  11.310  1.00  0.00     0.027 C 
ENDROOT
BRANCH   1   7
HETATM    7  N2  UNL     1      51.859 -11.093  10.454  1.00  0.00    -0.388 N 
ATOM      8  H2  UNL     1      51.626 -11.837   9.797  1.00  0.00     0.159 HD
BRANCH   7   9
HETATM    9  C9  UNL     1      51.216  -9.873  10.385  1.00  0.00     0.018 C 
HETATM   10  C8  UNL     1      51.590  -8.838   9.431  1.00  0.00     0.017 A 
HETATM   11  C2  UNL     1      52.593  -8.474   8.546  1.00  0.00    -0.025 A 
HETATM   12  C7  UNL     1      50.718  -7.801   9.610  1.00  0.00     0.022 A 
HETATM   13  C1  UNL     1      53.738  -9.291   8.160  1.00  0.00     0.051 C 
HETATM   14  C3  UNL     1      52.284  -7.166   8.216  1.00  0.00     0.019 A 
HETATM   15  N1  UNL     1      51.170  -6.764   8.844  1.00  0.00    -0.361 N 
ATOM     16  H1  UNL     1      50.736  -5.845   8.763  1.00  0.00     0.165 HD
HETATM   17  C20 UNL     1      49.604  -8.213  10.511  1.00  0.00     0.064 C 
HETATM   18  C19 UNL     1      49.792  -9.719  10.683  1.00  0.00     0.063 C 
BRANCH  14  19
HETATM   19  C4  UNL     1      53.099  -6.403   7.219  1.00  0.00     0.028 C 
HETATM   20  C5  UNL     1      52.700  -4.926   7.365  1.00  0.00     0.016 C 
HETATM   21  C6  UNL     1      52.538  -6.765   5.816  1.00  0.00     0.016 C 
ENDBRANCH  14  19
ENDBRANCH   7   9
ENDBRANCH   1   7
BRANCH   4  22
HETATM   22  N3  UNL     1      54.812 -10.970  15.085  1.00  0.00    -0.332 N 
HETATM   23  C14 UNL     1      54.609  -9.812  15.844  1.00  0.00     0.363 C 
HETATM   24  O1  UNL     1      53.882  -8.897  15.403  1.00  0.00    -0.238 OA
ATOM     25  H3  UNL     1      55.406 -11.666  15.536  1.00  0.00     0.165 HD
BRANCH  23  26
HETATM   26  O2  UNL     1      55.190  -9.646  17.079  1.00  0.00    -0.273 OA
BRANCH  26  27
HETATM   27  C15 UNL     1      56.548  -9.583  17.392  1.00  0.00     0.264 C 
HETATM   28  C16 UNL     1      56.926 -10.916  18.018  1.00  0.00     0.071 C 
BRANCH  27  29
HETATM   29  O3  UNL     1      57.384  -9.432  16.286  1.00  0.00    -0.371 OA
ATOM     30  H3  UNL     1      57.110  -9.922  15.521  1.00  0.00     0.212 HD
ENDBRANCH  27  29
ENDBRANCH  26  27
ENDBRANCH  23  26
ENDBRANCH   4  22
TORSDOF 7
ENDMDL
