MODEL 1
REMARK VINA RESULT: -8.629251534      0.000      0.000
REMARK  7 active torsions:
REMARK  status: ('A' for Active; 'I' for Inactive)
REMARK    1  A    between atoms: O1_2  and  C2_3 
REMARK    2  A    between atoms: C4_5  and  C5_6 
REMARK    3  A    between atoms: C6_7  and  C7_8 
REMARK    4  A    between atoms: C12_13  and  C13_14 
REMARK    5  A    between atoms: C14_15  and  C15_16 
REMARK    6  A    between atoms: C17_20  and  N2_21 
REMARK    7  A    between atoms: C19_30  and  O2_31 
ROOT
HETATM    1  C2  UNL     1      53.802  -8.371   7.767  1.00  0.00     0.072 A 
HETATM    2  C3  UNL     1      53.628  -9.476   8.556  1.00  0.00     0.058 A 
HETATM    3  C4  UNL     1      52.488  -9.662   9.367  1.00  0.00     0.033 A 
HETATM    4  C12 UNL     1      51.548  -8.693   9.336  1.00  0.00     0.016 A 
HETATM    5  C19 UNL     1      51.726  -7.540   8.517  1.00  0.00     0.082 A 
HETATM    6  C21 UNL     1      52.836  -7.395   7.754  1.00  0.00     0.074 A 
ENDROOT
BRANCH   4   7
HETATM    7  C13 UNL     1      50.251  -8.842  10.015  1.00  0.00     0.017 C 
HETATM    8  C14 UNL     1      49.900  -8.478  11.183  1.00  0.00     0.017 C 
BRANCH   8   9
HETATM    9  C15 UNL     1      48.588  -8.641  11.813  1.00  0.00     0.024 A 
HETATM   10  C16 UNL     1      48.468  -9.724  12.707  1.00  0.00     0.121 A 
HETATM   11  N1  UNL     1      47.307  -9.945  13.311  1.00  0.00    -0.201 N 
HETATM   12  C17 UNL     1      46.267  -9.139  13.065  1.00  0.00     0.677 A 
ATOM     13  H1  UNL     1      47.208 -10.727  13.959  1.00  0.00     0.183 HD
HETATM   14  N3  UNL     1      46.317  -8.116  12.244  1.00  0.00    -0.177 N 
HETATM   15  C18 UNL     1      47.499  -7.815  11.570  1.00  0.00     0.126 A 
ATOM     16  H3  UNL     1      45.488  -7.539  12.099  1.00  0.00     0.186 HD
HETATM   17  N4  UNL     1      47.498  -6.851  10.846  1.00  0.00    -0.384 N 
ATOM     18  H42 UNL     1      48.363  -6.631  10.352  1.00  0.00     0.157 HD
ATOM     19  H41 UNL     1      46.698  -6.245  10.667  1.00  0.00     0.157 HD
BRANCH  12  20
HETATM   20  N2  UNL     1      45.168  -9.414  13.690  1.00  0.00    -0.234 N 
ATOM     21  H22 UNL     1      45.196  -9.704  14.667  1.00  0.00     0.174 HD
ATOM     22  H21 UNL     1      44.306  -9.322  13.151  1.00  0.00     0.174 HD
ENDBRANCH  12  20
ENDBRANCH   8   9
ENDBRANCH   4   7
BRANCH   3  23
HETATM   23  C5  UNL     1      52.466 -10.800  10.253  1.00  0.00    -0.066 C 
HETATM   24  C6  UNL     1      52.403 -11.757  10.987  1.00  0.00    -0.096 C 
BRANCH  24  25
HETATM   25  C7  UNL     1      52.309 -12.901  11.893  1.00  0.00     0.065 C 
HETATM   26  C8  UNL     1      51.713 -14.103  11.143  1.00  0.00     0.017 C 
HETATM   27  C9  UNL     1      52.240 -15.280  11.896  1.00  0.00     0.001 C 
HETATM   28  C10 UNL     1      53.459 -14.791  12.681  1.00  0.00     0.001 C 
HETATM   29  C11 UNL     1      53.713 -13.411  12.136  1.00  0.00     0.017 C 
ENDBRANCH  24  25
ENDBRANCH   3  23
BRANCH   5  30
HETATM   30  O2  UNL     1      50.715  -6.582   8.540  1.00  0.00    -0.355 OA
HETATM   31  C20 UNL     1      50.567  -5.752   7.410  1.00  0.00     0.210 C 
ENDBRANCH   5  30
BRANCH   1  32
HETATM   32  O1  UNL     1      54.947  -8.258   7.000  1.00  0.00    -0.356 OA
HETATM   33  C1  UNL     1      55.994  -7.411   7.414  1.00  0.00     0.210 C 
ENDBRANCH   1  32
TORSDOF 7
ENDMDL
MODEL 2
REMARK VINA RESULT: -8.529955345      0.891      1.141
REMARK  7 active torsions:
REMARK  status: ('A' for Active; 'I' for Inactive)
REMARK    1  A    between atoms: O1_2  and  C2_3 
REMARK    2  A    between atoms: C4_5  and  C5_6 
REMARK    3  A    between atoms: C6_7  and  C7_8 
REMARK    4  A    between atoms: C12_13  and  C13_14 
REMARK    5  A    between atoms: C14_15  and  C15_16 
REMARK    6  A    between atoms: C17_20  and  N2_21 
REMARK    7  A    between atoms: C19_30  and  O2_31 
ROOT
HETATM    1  C2  UNL     1      53.734  -7.580   7.276  1.00  0.00     0.072 A 
HETATM    2  C3  UNL     1      53.702  -8.711   8.048  1.00  0.00     0.058 A 
HETATM    3  C4  UNL     1      52.621  -9.022   8.899  1.00  0.00     0.033 A 
HETATM    4  C12 UNL     1      51.590  -8.151   8.925  1.00  0.00     0.016 A 
HETATM    5  C19 UNL     1      51.620  -6.972   8.126  1.00  0.00     0.082 A 
HETATM    6  C21 UNL     1      52.678  -6.704   7.322  1.00  0.00     0.074 A 
ENDROOT
BRANCH   4   7
HETATM    7  C13 UNL     1      50.343  -8.439   9.653  1.00  0.00     0.017 C 
HETATM    8  C14 UNL     1      50.070  -8.291  10.887  1.00  0.00     0.017 C 
BRANCH   8   9
HETATM    9  C15 UNL     1      48.805  -8.584  11.564  1.00  0.00     0.024 A 
HETATM   10  C16 UNL     1      48.703  -9.866  12.143  1.00  0.00     0.121 A 
HETATM   11  N1  UNL     1      47.583 -10.212  12.765  1.00  0.00    -0.201 N 
HETATM   12  C17 UNL     1      46.568  -9.342  12.837  1.00  0.00     0.677 A 
ATOM     13  H1  UNL     1      47.497 -11.136  13.187  1.00  0.00     0.183 HD
HETATM   14  N3  UNL     1      46.603  -8.136  12.319  1.00  0.00    -0.177 N 
HETATM   15  C18 UNL     1      47.742  -7.695  11.648  1.00  0.00     0.126 A 
ATOM     16  H3  UNL     1      45.795  -7.521  12.407  1.00  0.00     0.186 HD
HETATM   17  N4  UNL     1      47.732  -6.572  11.211  1.00  0.00    -0.384 N 
ATOM     18  H42 UNL     1      48.566  -6.249  10.719  1.00  0.00     0.157 HD
ATOM     19  H41 UNL     1      46.951  -5.919  11.272  1.00  0.00     0.157 HD
BRANCH  12  20
HETATM   20  N2  UNL     1      45.508  -9.747  13.460  1.00  0.00    -0.234 N 
ATOM     21  H22 UNL     1      45.292 -10.742  13.503  1.00  0.00     0.174 HD
ATOM     22  H21 UNL     1      44.929  -9.023  13.886  1.00  0.00     0.174 HD
ENDBRANCH  12  20
ENDBRANCH   8   9
ENDBRANCH   4   7
BRANCH   3  23
HETATM   23  C5  UNL     1      52.746 -10.173   9.760  1.00  0.00    -0.066 C 
HETATM   24  C6  UNL     1      52.896 -11.128  10.484  1.00  0.00    -0.096 C 
BRANCH  24  25
HETATM   25  C7  UNL     1      53.094 -12.297  11.339  1.00  0.00     0.065 C 
HETATM   26  C8  UNL     1      52.446 -12.046  12.710  1.00  0.00     0.017 C 
HETATM   27  C9  UNL     1      52.150 -13.421  13.213  1.00  0.00     0.001 C 
HETATM   28  C10 UNL     1      52.148 -14.346  11.994  1.00  0.00     0.001 C 
HETATM   29  C11 UNL     1      52.197 -13.402  10.822  1.00  0.00     0.017 C 
ENDBRANCH  24  25
ENDBRANCH   3  23
BRANCH   5  30
HETATM   30  O2  UNL     1      50.522  -6.118   8.209  1.00  0.00    -0.355 OA
HETATM   31  C20 UNL     1      50.267  -5.263   7.117  1.00  0.00     0.210 C 
ENDBRANCH   5  30
BRANCH   1  32
HETATM   32  O1  UNL     1      54.830  -7.342   6.467  1.00  0.00    -0.356 OA
HETATM   33  C1  UNL     1      54.990  -6.088   5.845  1.00  0.00     0.210 C 
ENDBRANCH   1  32
TORSDOF 7
ENDMDL
MODEL 3
REMARK VINA RESULT: -8.475254022      1.161      1.910
REMARK  7 active torsions:
REMARK  status: ('A' for Active; 'I' for Inactive)
REMARK    1  A    between atoms: O1_2  and  C2_3 
REMARK    2  A    between atoms: C4_5  and  C5_6 
REMARK    3  A    between atoms: C6_7  and  C7_8 
REMARK    4  A    between atoms: C12_13  and  C13_14 
REMARK    5  A    between atoms: C14_15  and  C15_16 
REMARK    6  A    between atoms: C17_20  and  N2_21 
REMARK    7  A    between atoms: C19_30  and  O2_31 
ROOT
HETATM    1  C2  UNL     1      54.193  -7.305   7.052  1.00  0.00     0.072 A 
HETATM    2  C3  UNL     1      54.040  -8.501   7.700  1.00  0.00     0.058 A 
HETATM    3  C4  UNL     1      52.928  -8.788   8.520  1.00  0.00     0.033 A 
HETATM    4  C12 UNL     1      51.993  -7.822   8.646  1.00  0.00     0.016 A 
HETATM    5  C19 UNL     1      52.149  -6.574   7.975  1.00  0.00     0.082 A 
HETATM    6  C21 UNL     1      53.233  -6.334   7.198  1.00  0.00     0.074 A 
ENDROOT
BRANCH   4   7
HETATM    7  C13 UNL     1      50.720  -8.054   9.346  1.00  0.00     0.017 C 
HETATM    8  C14 UNL     1      50.507  -8.510  10.515  1.00  0.00     0.017 C 
BRANCH   8   9
HETATM    9  C15 UNL     1      49.216  -8.715  11.174  1.00  0.00     0.024 A 
HETATM   10  C16 UNL     1      48.390  -7.576  11.272  1.00  0.00     0.121 A 
HETATM   11  N1  UNL     1      47.208  -7.678  11.865  1.00  0.00    -0.201 N 
HETATM   12  C17 UNL     1      46.814  -8.856  12.362  1.00  0.00     0.677 A 
ATOM     13  H1  UNL     1      46.602  -6.861  11.943  1.00  0.00     0.183 HD
HETATM   14  N3  UNL     1      47.537  -9.951  12.302  1.00  0.00    -0.177 N 
HETATM   15  C18 UNL     1      48.791  -9.930  11.695  1.00  0.00     0.126 A 
ATOM     16  H3  UNL     1      47.180 -10.819  12.701  1.00  0.00     0.186 HD
HETATM   17  N4  UNL     1      49.404 -10.966  11.646  1.00  0.00    -0.384 N 
ATOM     18  H42 UNL     1      50.323 -10.951  11.202  1.00  0.00     0.157 HD
ATOM     19  H41 UNL     1      49.093 -11.859  12.029  1.00  0.00     0.157 HD
BRANCH  12  20
HETATM   20  N2  UNL     1      45.649  -8.882  12.926  1.00  0.00    -0.234 N 
ATOM     21  H22 UNL     1      45.435  -8.231  13.681  1.00  0.00     0.174 HD
ATOM     22  H21 UNL     1      44.989  -9.575  12.572  1.00  0.00     0.174 HD
ENDBRANCH  12  20
ENDBRANCH   8   9
ENDBRANCH   4   7
BRANCH   3  23
HETATM   23  C5  UNL     1      52.930 -10.030   9.254  1.00  0.00    -0.066 C 
HETATM   24  C6  UNL     1      52.976 -11.070   9.867  1.00  0.00    -0.096 C 
BRANCH  24  25
HETATM   25  C7  UNL     1      53.045 -12.341  10.585  1.00  0.00     0.065 C 
HETATM   26  C8  UNL     1      52.781 -12.101  12.080  1.00  0.00     0.017 C 
HETATM   27  C9  UNL     1      52.257 -13.416  12.557  1.00  0.00     0.001 C 
HETATM   28  C10 UNL     1      51.769 -14.172  11.320  1.00  0.00     0.001 C 
HETATM   29  C11 UNL     1      51.811 -13.140  10.224  1.00  0.00     0.017 C 
ENDBRANCH  24  25
ENDBRANCH   3  23
BRANCH   5  30
HETATM   30  O2  UNL     1      51.145  -5.625   8.156  1.00  0.00    -0.355 OA
HETATM   31  C20 UNL     1      50.440  -5.187   7.016  1.00  0.00     0.210 C 
ENDBRANCH   5  30
BRANCH   1  32
HETATM   32  O1  UNL     1      55.311  -7.097   6.266  1.00  0.00    -0.356 OA
HETATM   33  C1  UNL     1      55.666  -5.791   5.873  1.00  0.00     0.210 C 
ENDBRANCH   1  32
TORSDOF 7
ENDMDL
MODEL 4
REMARK VINA RESULT: -8.387034940      1.637      1.965
REMARK  7 active torsions:
REMARK  status: ('A' for Active; 'I' for Inactive)
REMARK    1  A    between atoms: O1_2  and  C2_3 
REMARK    2  A    between atoms: C4_5  and  C5_6 
REMARK    3  A    between atoms: C6_7  and  C7_8 
REMARK    4  A    between atoms: C12_13  and  C13_14 
REMARK    5  A    between atoms: C14_15  and  C15_16 
REMARK    6  A    between atoms: C17_20  and  N2_21 
REMARK    7  A    between atoms: C19_30  and  O2_31 
ROOT
HETATM    1  C2  UNL     1      53.149  -6.997   6.817  1.00  0.00     0.072 A 
HETATM    2  C3  UNL     1      53.228  -8.032   7.709  1.00  0.00     0.058 A 
HETATM    3  C4  UNL     1      52.198  -8.328   8.626  1.00  0.00     0.033 A 
HETATM    4  C12 UNL     1      51.102  -7.540   8.594  1.00  0.00     0.016 A 
HETATM    5  C19 UNL     1      51.017  -6.459   7.669  1.00  0.00     0.082 A 
HETATM    6  C21 UNL     1      52.028  -6.204   6.804  1.00  0.00     0.074 A 
ENDROOT
BRANCH   4   7
HETATM    7  C13 UNL     1      49.902  -7.839   9.392  1.00  0.00     0.017 C 
HETATM    8  C14 UNL     1      49.806  -8.208  10.606  1.00  0.00     0.017 C 
BRANCH   8   9
HETATM    9  C15 UNL     1      48.582  -8.485  11.362  1.00  0.00     0.024 A 
HETATM   10  C16 UNL     1      48.396  -9.826  11.757  1.00  0.00     0.121 A 
HETATM   11  N1  UNL     1      47.306 -10.159  12.436  1.00  0.00    -0.201 N 
HETATM   12  C17 UNL     1      46.399  -9.221  12.738  1.00  0.00     0.677 A 
ATOM     13  H1  UNL     1      47.159 -11.126  12.727  1.00  0.00     0.183 HD
HETATM   14  N3  UNL     1      46.517  -7.958  12.399  1.00  0.00    -0.177 N 
HETATM   15  C18 UNL     1      47.632  -7.526  11.684  1.00  0.00     0.126 A 
ATOM     16  H3  UNL     1      45.789  -7.292  12.659  1.00  0.00     0.186 HD
HETATM   17  N4  UNL     1      47.702  -6.352  11.417  1.00  0.00    -0.384 N 
ATOM     18  H42 UNL     1      48.518  -6.035  10.894  1.00  0.00     0.157 HD
ATOM     19  H41 UNL     1      47.004  -5.647  11.653  1.00  0.00     0.157 HD
BRANCH  12  20
HETATM   20  N2  UNL     1      45.362  -9.618  13.403  1.00  0.00    -0.234 N 
ATOM     21  H22 UNL     1      45.413  -9.712  14.417  1.00  0.00     0.174 HD
ATOM     22  H21 UNL     1      44.524  -9.821  12.857  1.00  0.00     0.174 HD
ENDBRANCH  12  20
ENDBRANCH   8   9
ENDBRANCH   4   7
BRANCH   3  23
HETATM   23  C5  UNL     1      52.438  -9.362   9.604  1.00  0.00    -0.066 C 
HETATM   24  C6  UNL     1      52.640 -10.196  10.454  1.00  0.00    -0.096 C 
BRANCH  24  25
HETATM   25  C7  UNL     1      52.910 -11.192  11.489  1.00  0.00     0.065 C 
HETATM   26  C8  UNL     1      54.313 -10.960  12.072  1.00  0.00     0.017 C 
HETATM   27  C9  UNL     1      54.223 -11.546  13.443  1.00  0.00     0.001 C 
HETATM   28  C10 UNL     1      52.735 -11.625  13.792  1.00  0.00     0.001 C 
HETATM   29  C11 UNL     1      52.063 -10.843  12.694  1.00  0.00     0.017 C 
ENDBRANCH  24  25
ENDBRANCH   3  23
BRANCH   5  30
HETATM   30  O2  UNL     1      49.857  -5.688   7.698  1.00  0.00    -0.355 OA
HETATM   31  C20 UNL     1      49.719  -4.669   6.733  1.00  0.00     0.210 C 
ENDBRANCH   5  30
BRANCH   1  32
HETATM   32  O1  UNL     1      54.200  -6.768   5.948  1.00  0.00    -0.356 OA
HETATM   33  C1  UNL     1      54.887  -5.538   5.979  1.00  0.00     0.210 C 
ENDBRANCH   1  32
TORSDOF 7
ENDMDL
MODEL 5
REMARK VINA RESULT: -8.279013656      2.220      5.489
REMARK  7 active torsions:
REMARK  status: ('A' for Active; 'I' for Inactive)
REMARK    1  A    between atoms: O1_2  and  C2_3 
REMARK    2  A    between atoms: C4_5  and  C5_6 
REMARK    3  A    between atoms: C6_7  and  C7_8 
REMARK    4  A    between atoms: C12_13  and  C13_14 
REMARK    5  A    between atoms: C14_15  and  C15_16 
REMARK    6  A    between atoms: C17_20  and  N2_21 
REMARK    7  A    between atoms: C19_30  and  O2_31 
ROOT
HETATM    1  C2  UNL     1      54.369 -12.305   9.358  1.00  0.00     0.072 A 
HETATM    2  C3  UNL     1      54.081 -11.035   8.935  1.00  0.00     0.058 A 
HETATM    3  C4  UNL     1      52.958 -10.315   9.394  1.00  0.00     0.033 A 
HETATM    4  C12 UNL     1      52.158 -10.931  10.291  1.00  0.00     0.016 A 
HETATM    5  C19 UNL     1      52.453 -12.254  10.732  1.00  0.00     0.082 A 
HETATM    6  C21 UNL     1      53.539 -12.916  10.266  1.00  0.00     0.074 A 
ENDROOT
BRANCH   4   7
HETATM    7  C13 UNL     1      51.047 -10.232  10.956  1.00  0.00     0.017 C 
HETATM    8  C14 UNL     1      49.834 -10.103  10.593  1.00  0.00     0.017 C 
BRANCH   8   9
HETATM    9  C15 UNL     1      48.759  -9.402  11.299  1.00  0.00     0.024 A 
HETATM   10  C16 UNL     1      48.034 -10.173  12.231  1.00  0.00     0.121 A 
HETATM   11  N1  UNL     1      47.037  -9.612  12.903  1.00  0.00    -0.201 N 
HETATM   12  C17 UNL     1      46.733  -8.326  12.690  1.00  0.00     0.677 A 
ATOM     13  H1  UNL     1      46.504 -10.159  13.579  1.00  0.00     0.183 HD
HETATM   14  N3  UNL     1      47.370  -7.558  11.837  1.00  0.00    -0.177 N 
HETATM   15  C18 UNL     1      48.430  -8.070  11.090  1.00  0.00     0.126 A 
ATOM     16  H3  UNL     1      47.089  -6.585  11.719  1.00  0.00     0.186 HD
HETATM   17  N4  UNL     1      48.997  -7.317  10.338  1.00  0.00    -0.384 N 
ATOM     18  H42 UNL     1      49.772  -7.692   9.791  1.00  0.00     0.157 HD
ATOM     19  H41 UNL     1      48.755  -6.339  10.184  1.00  0.00     0.157 HD
BRANCH  12  20
HETATM   20  N2  UNL     1      45.750  -7.846  13.381  1.00  0.00    -0.234 N 
ATOM     21  H22 UNL     1      45.538  -8.231  14.301  1.00  0.00     0.174 HD
ATOM     22  H21 UNL     1      45.224  -7.084  12.953  1.00  0.00     0.174 HD
ENDBRANCH  12  20
ENDBRANCH   8   9
ENDBRANCH   4   7
BRANCH   3  23
HETATM   23  C5  UNL     1      52.680  -9.035   8.789  1.00  0.00    -0.066 C 
HETATM   24  C6  UNL     1      52.483  -7.969   8.255  1.00  0.00    -0.096 C 
BRANCH  24  25
HETATM   25  C7  UNL     1      52.271  -6.670   7.619  1.00  0.00     0.065 C 
HETATM   26  C8  UNL     1      52.539  -6.788   6.110  1.00  0.00     0.017 C 
HETATM   27  C9  UNL     1      51.718  -5.686   5.524  1.00  0.00     0.001 C 
HETATM   28  C10 UNL     1      50.663  -5.318   6.568  1.00  0.00     0.001 C 
HETATM   29  C11 UNL     1      50.780  -6.406   7.603  1.00  0.00     0.017 C 
ENDBRANCH  24  25
ENDBRANCH   3  23
BRANCH   5  30
HETATM   30  O2  UNL     1      51.579 -12.826  11.655  1.00  0.00    -0.355 OA
HETATM   31  C20 UNL     1      52.127 -13.348  12.844  1.00  0.00     0.210 C 
ENDBRANCH   5  30
BRANCH   1  32
HETATM   32  O1  UNL     1      55.488 -12.948   8.861  1.00  0.00    -0.356 OA
HETATM   33  C1  UNL     1      55.905 -12.717   7.535  1.00  0.00     0.210 C 
ENDBRANCH   1  32
TORSDOF 7
ENDMDL
