MODEL 1
REMARK VINA RESULT: -9.148271992      0.000      0.000
REMARK  3 active torsions:
REMARK  status: ('A' for Active; 'I' for Inactive)
REMARK    1  A    between atoms: C2_2  and  C3_3 
REMARK    2  A    between atoms: C3_3  and  C4_4 
REMARK    3  A    between atoms: C8_8  and  C9_9 
ROOT
HETATM    1  C4  UNL     1      46.737  92.057  35.444  1.00  0.00    -0.017 A 
HETATM    2  C5  UNL     1      46.048  91.074  36.112  1.00  0.00     0.018 A 
HETATM    3  C6  UNL     1      46.715  90.124  36.881  1.00  0.00    -0.048 A 
HETATM    4  C7  UNL     1      45.945  89.052  37.582  1.00  0.00     0.049 C 
HETATM    5  C8  UNL     1      48.099  90.128  37.005  1.00  0.00     0.014 A 
HETATM    6  C18 UNL     1      48.782  91.099  36.349  1.00  0.00     0.085 A 
HETATM    7 CL1  UNL     1      50.520  91.378  36.459  1.00  0.00    -0.080 Cl
HETATM    8  C19 UNL     1      48.099  92.047  35.578  1.00  0.00     0.145 A 
HETATM    9  F1  UNL     1      48.784  93.008  34.925  1.00  0.00    -0.204 F 
ENDROOT
BRANCH   5  10
HETATM   10  C9  UNL     1      48.775  89.180  37.897  1.00  0.00     0.042 A 
HETATM   11  S1  UNL     1      49.686  87.786  37.365  1.00  0.00    -0.091 SA
HETATM   12  C10 UNL     1      50.269  87.249  38.847  1.00  0.00    -0.009 A 
HETATM   13  C11 UNL     1      49.762  88.145  39.738  1.00  0.00    -0.019 A 
HETATM   14  C17 UNL     1      51.151  86.052  39.105  1.00  0.00     0.046 C 
HETATM   15  C12 UNL     1      48.986  89.150  39.241  1.00  0.00     0.071 A 
HETATM   16  C13 UNL     1      50.006  88.090  41.251  1.00  0.00     0.042 C 
HETATM   17  N1  UNL     1      48.484  90.206  40.137  1.00  0.00    -0.100 NA
HETATM   18  C14 UNL     1      51.266  87.343  41.513  1.00  0.00     0.005 C 
HETATM   19  C15 UNL     1      52.298  87.740  40.490  1.00  0.00     0.001 C 
HETATM   20  C16 UNL     1      52.505  86.500  39.608  1.00  0.00     0.005 C 
ENDBRANCH   5  10
BRANCH   1  21
HETATM   21  C3  UNL     1      46.059  93.065  34.628  1.00  0.00     0.041 C 
BRANCH  21  22
HETATM   22  C2  UNL     1      45.605  94.274  35.405  1.00  0.00     0.000 C 
HETATM   23  C1  UNL     1      46.599  95.398  35.355  1.00  0.00     0.005 C 
ENDBRANCH  21  22
ENDBRANCH   1  21
TORSDOF 3
ENDMDL
MODEL 2
REMARK VINA RESULT: -8.859507546      2.657      7.389
REMARK  3 active torsions:
REMARK  status: ('A' for Active; 'I' for Inactive)
REMARK    1  A    between atoms: C2_2  and  C3_3 
REMARK    2  A    between atoms: C3_3  and  C4_4 
REMARK    3  A    between atoms: C8_8  and  C9_9 
ROOT
HETATM    1  C4  UNL     1      49.593  87.208  39.274  1.00  0.00    -0.017 A 
HETATM    2  C5  UNL     1      49.811  87.228  37.918  1.00  0.00     0.018 A 
HETATM    3  C6  UNL     1      49.437  88.324  37.145  1.00  0.00    -0.048 A 
HETATM    4  C7  UNL     1      49.668  88.314  35.669  1.00  0.00     0.049 C 
HETATM    5  C8  UNL     1      48.830  89.440  37.708  1.00  0.00     0.014 A 
HETATM    6  C18 UNL     1      48.615  89.424  39.047  1.00  0.00     0.085 A 
HETATM    7 CL1  UNL     1      47.979  90.769  39.995  1.00  0.00    -0.080 Cl
HETATM    8  C19 UNL     1      48.994  88.315  39.813  1.00  0.00     0.145 A 
HETATM    9  F1  UNL     1      48.775  88.305  41.143  1.00  0.00    -0.204 F 
ENDROOT
BRANCH   5  10
HETATM   10  C9  UNL     1      48.533  90.623  36.894  1.00  0.00     0.042 A 
HETATM   11  S1  UNL     1      46.992  90.950  36.135  1.00  0.00    -0.091 SA
HETATM   12  C10 UNL     1      47.309  92.474  35.502  1.00  0.00    -0.009 A 
HETATM   13  C11 UNL     1      48.594  92.721  35.879  1.00  0.00    -0.019 A 
HETATM   14  C17 UNL     1      46.372  93.349  34.706  1.00  0.00     0.046 C 
HETATM   15  C12 UNL     1      49.228  91.756  36.605  1.00  0.00     0.071 A 
HETATM   16  C13 UNL     1      49.364  94.002  35.537  1.00  0.00     0.042 C 
HETATM   17  N1  UNL     1      50.585  91.997  37.125  1.00  0.00    -0.100 NA
HETATM   18  C14 UNL     1      48.391  95.100  35.284  1.00  0.00     0.005 C 
HETATM   19  C15 UNL     1      47.273  95.011  36.289  1.00  0.00     0.001 C 
HETATM   20  C16 UNL     1      46.029  94.596  35.490  1.00  0.00     0.005 C 
ENDBRANCH   5  10
BRANCH   1  21
HETATM   21  C3  UNL     1      49.974  86.068  40.107  1.00  0.00     0.041 C 
BRANCH  21  22
HETATM   22  C2  UNL     1      50.489  84.886  39.325  1.00  0.00     0.000 C 
HETATM   23  C1  UNL     1      51.487  84.074  40.099  1.00  0.00     0.005 C 
ENDBRANCH  21  22
ENDBRANCH   1  21
TORSDOF 3
ENDMDL
MODEL 3
REMARK VINA RESULT: -8.855356869      1.522      2.065
REMARK  3 active torsions:
REMARK  status: ('A' for Active; 'I' for Inactive)
REMARK    1  A    between atoms: C2_2  and  C3_3 
REMARK    2  A    between atoms: C3_3  and  C4_4 
REMARK    3  A    between atoms: C8_8  and  C9_9 
ROOT
HETATM    1  C4  UNL     1      46.928  92.184  35.497  1.00  0.00    -0.017 A 
HETATM    2  C5  UNL     1      48.293  92.176  35.652  1.00  0.00     0.018 A 
HETATM    3  C6  UNL     1      48.918  91.240  36.472  1.00  0.00    -0.048 A 
HETATM    4  C7  UNL     1      50.403  91.265  36.640  1.00  0.00     0.049 C 
HETATM    5  C8  UNL     1      48.193  90.278  37.165  1.00  0.00     0.014 A 
HETATM    6  C18 UNL     1      46.846  90.282  37.012  1.00  0.00     0.085 A 
HETATM    7 CL1  UNL     1      45.738  89.087  37.687  1.00  0.00    -0.080 Cl
HETATM    8  C19 UNL     1      46.229  91.229  36.186  1.00  0.00     0.145 A 
HETATM    9  F1  UNL     1      44.889  91.230  36.040  1.00  0.00    -0.204 F 
ENDROOT
BRANCH   5  10
HETATM   10  C9  UNL     1      48.877  89.242  37.945  1.00  0.00     0.042 A 
HETATM   11  S1  UNL     1      49.767  87.902  37.259  1.00  0.00    -0.091 SA
HETATM   12  C10 UNL     1      50.372  87.215  38.668  1.00  0.00    -0.009 A 
HETATM   13  C11 UNL     1      49.889  88.020  39.653  1.00  0.00    -0.019 A 
HETATM   14  C17 UNL     1      51.248  85.992  38.788  1.00  0.00     0.046 C 
HETATM   15  C12 UNL     1      49.112  89.075  39.275  1.00  0.00     0.071 A 
HETATM   16  C13 UNL     1      50.159  87.812  41.149  1.00  0.00     0.042 C 
HETATM   17  N1  UNL     1      48.635  90.039  40.281  1.00  0.00    -0.100 NA
HETATM   18  C14 UNL     1      51.418  87.035  41.311  1.00  0.00     0.005 C 
HETATM   19  C15 UNL     1      52.434  87.526  40.313  1.00  0.00     0.001 C 
HETATM   20  C16 UNL     1      52.615  86.379  39.308  1.00  0.00     0.005 C 
ENDBRANCH   5  10
BRANCH   1  21
HETATM   21  C3  UNL     1      46.247  93.158  34.644  1.00  0.00     0.041 C 
BRANCH  21  22
HETATM   22  C2  UNL     1      45.798  94.399  35.372  1.00  0.00     0.000 C 
HETATM   23  C1  UNL     1      46.841  95.479  35.369  1.00  0.00     0.005 C 
ENDBRANCH  21  22
ENDBRANCH   1  21
TORSDOF 3
ENDMDL
MODEL 4
REMARK VINA RESULT: -8.847920744      2.490      3.779
REMARK  3 active torsions:
REMARK  status: ('A' for Active; 'I' for Inactive)
REMARK    1  A    between atoms: C2_2  and  C3_3 
REMARK    2  A    between atoms: C3_3  and  C4_4 
REMARK    3  A    between atoms: C8_8  and  C9_9 
ROOT
HETATM    1  C4  UNL     1      49.256  94.909  33.996  1.00  0.00    -0.017 A 
HETATM    2  C5  UNL     1      50.259  93.998  34.223  1.00  0.00     0.018 A 
HETATM    3  C6  UNL     1      50.057  92.898  35.053  1.00  0.00    -0.048 A 
HETATM    4  C7  UNL     1      51.170  91.932  35.300  1.00  0.00     0.049 C 
HETATM    5  C8  UNL     1      48.840  92.676  35.686  1.00  0.00     0.014 A 
HETATM    6  C18 UNL     1      47.848  93.572  35.462  1.00  0.00     0.085 A 
HETATM    7 CL1  UNL     1      46.191  93.431  36.051  1.00  0.00    -0.080 Cl
HETATM    8  C19 UNL     1      48.063  94.674  34.626  1.00  0.00     0.145 A 
HETATM    9  F1  UNL     1      47.073  95.564  34.410  1.00  0.00    -0.204 F 
ENDROOT
BRANCH   5  10
HETATM   10  C9  UNL     1      48.617  91.462  36.477  1.00  0.00     0.042 A 
HETATM   11  S1  UNL     1      48.641  89.835  35.836  1.00  0.00    -0.091 SA
HETATM   12  C10 UNL     1      48.451  88.968  37.263  1.00  0.00    -0.009 A 
HETATM   13  C11 UNL     1      48.373  89.933  38.220  1.00  0.00    -0.019 A 
HETATM   14  C17 UNL     1      48.388  87.468  37.422  1.00  0.00     0.046 C 
HETATM   15  C12 UNL     1      48.461  91.230  37.809  1.00  0.00     0.071 A 
HETATM   16  C13 UNL     1      48.190  89.652  39.717  1.00  0.00     0.042 C 
HETATM   17  N1  UNL     1      48.479  92.319  38.801  1.00  0.00    -0.100 NA
HETATM   18  C14 UNL     1      48.684  88.280  40.017  1.00  0.00     0.005 C 
HETATM   19  C15 UNL     1      49.952  88.031  39.244  1.00  0.00     0.001 C 
HETATM   20  C16 UNL     1      49.594  86.974  38.190  1.00  0.00     0.005 C 
ENDBRANCH   5  10
BRANCH   1  21
HETATM   21  C3  UNL     1      49.443  96.073  33.130  1.00  0.00     0.041 C 
BRANCH  21  22
HETATM   22  C2  UNL     1      50.058  97.260  33.827  1.00  0.00     0.000 C 
HETATM   23  C1  UNL     1      49.043  98.305  34.190  1.00  0.00     0.005 C 
ENDBRANCH  21  22
ENDBRANCH   1  21
TORSDOF 3
ENDMDL
MODEL 5
REMARK VINA RESULT: -8.680444529      2.059      2.899
REMARK  3 active torsions:
REMARK  status: ('A' for Active; 'I' for Inactive)
REMARK    1  A    between atoms: C2_2  and  C3_3 
REMARK    2  A    between atoms: C3_3  and  C4_4 
REMARK    3  A    between atoms: C8_8  and  C9_9 
ROOT
HETATM    1  C4  UNL     1      46.831  92.108  35.629  1.00  0.00    -0.017 A 
HETATM    2  C5  UNL     1      48.200  92.220  35.625  1.00  0.00     0.018 A 
HETATM    3  C6  UNL     1      48.997  91.321  36.330  1.00  0.00    -0.048 A 
HETATM    4  C7  UNL     1      50.483  91.476  36.327  1.00  0.00     0.049 C 
HETATM    5  C8  UNL     1      48.446  90.279  37.064  1.00  0.00     0.014 A 
HETATM    6  C18 UNL     1      47.095  90.164  37.068  1.00  0.00     0.085 A 
HETATM    7 CL1  UNL     1      46.182  88.855  37.820  1.00  0.00    -0.080 Cl
HETATM    8  C19 UNL     1      46.304  91.075  36.356  1.00  0.00     0.145 A 
HETATM    9  F1  UNL     1      44.961  90.957  36.367  1.00  0.00    -0.204 F 
ENDROOT
BRANCH   5  10
HETATM   10  C9  UNL     1      49.304  89.286  37.719  1.00  0.00     0.042 A 
HETATM   11  S1  UNL     1      49.620  89.219  39.437  1.00  0.00    -0.091 SA
HETATM   12  C10 UNL     1      50.538  87.813  39.499  1.00  0.00    -0.009 A 
HETATM   13  C11 UNL     1      50.594  87.405  38.202  1.00  0.00    -0.019 A 
HETATM   14  C17 UNL     1      51.147  87.169  40.721  1.00  0.00     0.046 C 
HETATM   15  C12 UNL     1      49.950  88.173  37.277  1.00  0.00     0.071 A 
HETATM   16  C13 UNL     1      51.334  86.150  37.721  1.00  0.00     0.042 C 
HETATM   17  N1  UNL     1      49.891  87.740  35.870  1.00  0.00    -0.100 NA
HETATM   18  C14 UNL     1      51.452  85.193  38.856  1.00  0.00     0.005 C 
HETATM   19  C15 UNL     1      50.163  85.187  39.633  1.00  0.00     0.001 C 
HETATM   20  C16 UNL     1      50.492  85.832  40.987  1.00  0.00     0.005 C 
ENDBRANCH   5  10
BRANCH   1  21
HETATM   21  C3  UNL     1      45.972  93.040  34.899  1.00  0.00     0.041 C 
BRANCH  21  22
HETATM   22  C2  UNL     1      45.713  94.333  35.631  1.00  0.00     0.000 C 
HETATM   23  C1  UNL     1      46.688  95.412  35.258  1.00  0.00     0.005 C 
ENDBRANCH  21  22
ENDBRANCH   1  21
TORSDOF 3
ENDMDL
