MODEL 1
REMARK VINA RESULT: -8.406261821      0.000      0.000
REMARK  3 active torsions:
REMARK  status: ('A' for Active; 'I' for Inactive)
REMARK    1  A    between atoms: O1_2  and  C2_3 
REMARK    2  A    between atoms: C5_8  and  N2_9 
REMARK    3  A    between atoms: C7_17  and  O3_18 
ROOT
HETATM    1  C2  UNL     1      33.819  63.463   9.710  1.00  0.00     0.180 A 
HETATM    2  N1  UNL     1      34.401  62.728   8.748  1.00  0.00    -0.320 N 
ATOM      3  H1  UNL     1      34.763  63.165   7.901  1.00  0.00     0.169 HD
HETATM    4  C3  UNL     1      34.492  61.389   8.937  1.00  0.00     0.122 A 
HETATM    5  C4  UNL     1      34.001  60.767  10.096  1.00  0.00     0.107 A 
HETATM    6  C5  UNL     1      33.410  61.537  11.064  1.00  0.00     0.116 A 
HETATM    7  C7  UNL     1      33.324  62.911  10.852  1.00  0.00     0.147 A 
HETATM    8  C8  UNL     1      34.143  59.323  10.226  1.00  0.00     0.259 C 
HETATM    9  O4  UNL     1      33.714  58.746  11.247  1.00  0.00    -0.267 OA
HETATM   10  N6  UNL     1      34.781  58.594   9.166  1.00  0.00    -0.341 N 
ATOM     11  H6  UNL     1      34.585  57.605   9.007  1.00  0.00     0.164 HD
HETATM   12  C9  UNL     1      35.715  59.323   8.331  1.00  0.00     0.248 C 
HETATM   13  N7  UNL     1      35.091  60.565   7.954  1.00  0.00    -0.359 N 
ATOM     14  H7  UNL     1      35.080  60.852   6.975  1.00  0.00     0.162 HD
ENDROOT
BRANCH   6  15
HETATM   15  N2  UNL     1      32.898  60.968  12.247  1.00  0.00    -0.183 N 
HETATM   16  N3  UNL     1      33.646  60.460  13.209  1.00  0.00     0.005 NA
HETATM   17  N4  UNL     1      32.870  59.978  14.165  1.00  0.00    -0.222 N 
HETATM   18  N5  UNL     1      31.613  60.178  13.815  1.00  0.00    -0.237 N 
ATOM     19  H4  UNL     1      33.187  59.528  15.023  1.00  0.00     0.205 HD
HETATM   20  C6  UNL     1      31.630  60.793  12.628  1.00  0.00     0.360 A 
ATOM     21  H5  UNL     1      30.786  59.915  14.350  1.00  0.00     0.193 HD
HETATM   22  O2  UNL     1      30.594  61.149  11.971  1.00  0.00    -0.243 OA
ENDBRANCH   6  15
BRANCH   7  23
HETATM   23  O3  UNL     1      32.717  63.650  11.865  1.00  0.00    -0.355 OA
ATOM     24  H3  UNL     1      31.787  63.844  11.888  1.00  0.00     0.218 HD
ENDBRANCH   7  23
BRANCH   1  25
HETATM   25  O1  UNL     1      33.725  64.839   9.515  1.00  0.00    -0.339 OA
HETATM   26  C1  UNL     1      34.167  65.453   8.314  1.00  0.00     0.211 C 
ENDBRANCH   1  25
TORSDOF 3
ENDMDL
MODEL 2
REMARK VINA RESULT: -8.043998236      1.545      3.947
REMARK  3 active torsions:
REMARK  status: ('A' for Active; 'I' for Inactive)
REMARK    1  A    between atoms: O1_2  and  C2_3 
REMARK    2  A    between atoms: C5_8  and  N2_9 
REMARK    3  A    between atoms: C7_17  and  O3_18 
ROOT
HETATM    1  C2  UNL     1      35.015  60.130   8.463  1.00  0.00     0.180 A 
HETATM    2  N1  UNL     1      35.298  61.317   7.902  1.00  0.00    -0.320 N 
ATOM      3  H1  UNL     1      35.839  61.374   7.039  1.00  0.00     0.169 HD
HETATM    4  C3  UNL     1      34.844  62.437   8.515  1.00  0.00     0.122 A 
HETATM    5  C4  UNL     1      34.097  62.382   9.703  1.00  0.00     0.107 A 
HETATM    6  C5  UNL     1      33.820  61.160  10.259  1.00  0.00     0.116 A 
HETATM    7  C7  UNL     1      34.296  60.020   9.614  1.00  0.00     0.147 A 
HETATM    8  C8  UNL     1      33.639  63.632  10.297  1.00  0.00     0.259 C 
HETATM    9  O4  UNL     1      32.974  63.609  11.353  1.00  0.00    -0.267 OA
HETATM   10  N6  UNL     1      33.969  64.868   9.645  1.00  0.00    -0.341 N 
ATOM     11  H6  UNL     1      34.022  65.745  10.164  1.00  0.00     0.164 HD
HETATM   12  C9  UNL     1      34.222  64.816   8.219  1.00  0.00     0.248 C 
HETATM   13  N7  UNL     1      35.118  63.715   7.971  1.00  0.00    -0.359 N 
ATOM     14  H7  UNL     1      35.952  63.857   7.402  1.00  0.00     0.162 HD
ENDROOT
BRANCH   6  15
HETATM   15  N2  UNL     1      33.076  61.043  11.449  1.00  0.00    -0.183 N 
HETATM   16  N3  UNL     1      31.864  61.540  11.617  1.00  0.00     0.005 NA
HETATM   17  N4  UNL     1      31.452  61.292  12.848  1.00  0.00    -0.222 N 
HETATM   18  N5  UNL     1      32.405  60.630  13.477  1.00  0.00    -0.237 N 
ATOM     19  H4  UNL     1      30.552  61.565  13.245  1.00  0.00     0.205 HD
HETATM   20  C6  UNL     1      33.411  60.475  12.611  1.00  0.00     0.360 A 
ATOM     21  H5  UNL     1      32.380  60.300  14.441  1.00  0.00     0.193 HD
HETATM   22  O2  UNL     1      34.512  59.879  12.863  1.00  0.00    -0.243 OA
ENDBRANCH   6  15
BRANCH   7  23
HETATM   23  O3  UNL     1      33.988  58.803  10.216  1.00  0.00    -0.355 OA
ATOM     24  H3  UNL     1      33.326  58.702  10.890  1.00  0.00     0.218 HD
ENDBRANCH   7  23
BRANCH   1  25
HETATM   25  O1  UNL     1      35.483  58.981   7.832  1.00  0.00    -0.339 OA
HETATM   26  C1  UNL     1      35.366  58.801   6.429  1.00  0.00     0.211 C 
ENDBRANCH   1  25
TORSDOF 3
ENDMDL
MODEL 3
REMARK VINA RESULT: -7.942053441      1.086      1.338
REMARK  3 active torsions:
REMARK  status: ('A' for Active; 'I' for Inactive)
REMARK    1  A    between atoms: O1_2  and  C2_3 
REMARK    2  A    between atoms: C5_8  and  N2_9 
REMARK    3  A    between atoms: C7_17  and  O3_18 
ROOT
HETATM    1  C2  UNL     1      34.250  63.466   9.295  1.00  0.00     0.180 A 
HETATM    2  N1  UNL     1      34.853  62.597   8.469  1.00  0.00    -0.320 N 
ATOM      3  H1  UNL     1      35.392  62.924   7.667  1.00  0.00     0.169 HD
HETATM    4  C3  UNL     1      34.726  61.273   8.731  1.00  0.00     0.122 A 
HETATM    5  C4  UNL     1      33.991  60.801   9.830  1.00  0.00     0.107 A 
HETATM    6  C5  UNL     1      33.382  61.706  10.661  1.00  0.00     0.116 A 
HETATM    7  C7  UNL     1      33.523  63.062  10.374  1.00  0.00     0.147 A 
HETATM    8  C8  UNL     1      33.907  59.363  10.047  1.00  0.00     0.259 C 
HETATM    9  O4  UNL     1      33.258  58.918  11.016  1.00  0.00    -0.267 OA
HETATM   10  N6  UNL     1      34.580  58.486   9.131  1.00  0.00    -0.341 N 
ATOM     11  H6  UNL     1      34.271  57.524   8.991  1.00  0.00     0.164 HD
HETATM   12  C9  UNL     1      35.718  59.027   8.414  1.00  0.00     0.248 C 
HETATM   13  N7  UNL     1      35.337  60.312   7.889  1.00  0.00    -0.359 N 
ATOM     14  H7  UNL     1      35.507  60.532   6.908  1.00  0.00     0.162 HD
ENDROOT
BRANCH   6  15
HETATM   15  N2  UNL     1      32.631  61.291  11.778  1.00  0.00    -0.183 N 
HETATM   16  N3  UNL     1      31.317  61.392  11.866  1.00  0.00     0.005 NA
HETATM   17  N4  UNL     1      30.918  60.948  13.046  1.00  0.00    -0.222 N 
HETATM   18  N5  UNL     1      31.983  60.559  13.721  1.00  0.00    -0.237 N 
ATOM     19  H4  UNL     1      29.954  60.913  13.378  1.00  0.00     0.205 HD
HETATM   20  C6  UNL     1      33.044  60.770  12.936  1.00  0.00     0.360 A 
ATOM     21  H5  UNL     1      31.995  60.170  14.664  1.00  0.00     0.193 HD
HETATM   22  O2  UNL     1      34.255  60.513  13.252  1.00  0.00    -0.243 OA
ENDBRANCH   6  15
BRANCH   7  23
HETATM   23  O3  UNL     1      32.888  63.942  11.248  1.00  0.00    -0.355 OA
ATOM     24  H3  UNL     1      32.312  63.661  11.949  1.00  0.00     0.218 HD
ENDBRANCH   7  23
BRANCH   1  25
HETATM   25  O1  UNL     1      34.380  64.825   9.025  1.00  0.00    -0.339 OA
HETATM   26  C1  UNL     1      34.025  65.371   7.764  1.00  0.00     0.211 C 
ENDBRANCH   1  25
TORSDOF 3
ENDMDL
MODEL 4
REMARK VINA RESULT: -7.661310341      1.302      3.674
REMARK  3 active torsions:
REMARK  status: ('A' for Active; 'I' for Inactive)
REMARK    1  A    between atoms: O1_2  and  C2_3 
REMARK    2  A    between atoms: C5_8  and  N2_9 
REMARK    3  A    between atoms: C7_17  and  O3_18 
ROOT
HETATM    1  C2  UNL     1      34.849  60.117   8.653  1.00  0.00     0.180 A 
HETATM    2  N1  UNL     1      35.010  61.337   8.116  1.00  0.00    -0.320 N 
ATOM      3  H1  UNL     1      35.466  61.457   7.212  1.00  0.00     0.169 HD
HETATM    4  C3  UNL     1      34.549  62.405   8.811  1.00  0.00     0.122 A 
HETATM    5  C4  UNL     1      33.917  62.264  10.057  1.00  0.00     0.107 A 
HETATM    6  C5  UNL     1      33.764  61.009  10.587  1.00  0.00     0.116 A 
HETATM    7  C7  UNL     1      34.245  59.923   9.858  1.00  0.00     0.147 A 
HETATM    8  C8  UNL     1      33.443  63.462  10.738  1.00  0.00     0.259 C 
HETATM    9  O4  UNL     1      32.878  63.362  11.847  1.00  0.00    -0.267 OA
HETATM   10  N6  UNL     1      33.639  64.737  10.109  1.00  0.00    -0.341 N 
ATOM     11  H6  UNL     1      33.687  65.598  10.655  1.00  0.00     0.164 HD
HETATM   12  C9  UNL     1      33.764  64.749   8.665  1.00  0.00     0.248 C 
HETATM   13  N7  UNL     1      34.697  63.716   8.296  1.00  0.00    -0.359 N 
ATOM     14  H7  UNL     1      35.466  63.928   7.661  1.00  0.00     0.162 HD
ENDROOT
BRANCH   6  15
HETATM   15  N2  UNL     1      33.139  60.806  11.832  1.00  0.00    -0.183 N 
HETATM   16  N3  UNL     1      33.779  60.472  12.938  1.00  0.00     0.005 NA
HETATM   17  N4  UNL     1      32.911  60.325  13.924  1.00  0.00    -0.222 N 
HETATM   18  N5  UNL     1      31.704  60.566  13.450  1.00  0.00    -0.237 N 
ATOM     19  H4  UNL     1      33.136  60.069  14.886  1.00  0.00     0.205 HD
HETATM   20  C6  UNL     1      31.843  60.865  12.155  1.00  0.00     0.360 A 
ATOM     21  H5  UNL     1      30.829  60.531  13.973  1.00  0.00     0.193 HD
HETATM   22  O2  UNL     1      30.886  61.157  11.361  1.00  0.00    -0.243 OA
ENDBRANCH   6  15
BRANCH   7  23
HETATM   23  O3  UNL     1      34.065  58.669  10.437  1.00  0.00    -0.355 OA
ATOM     24  H3  UNL     1      34.735  58.222  10.941  1.00  0.00     0.218 HD
ENDBRANCH   7  23
BRANCH   1  25
HETATM   25  O1  UNL     1      35.324  59.020   7.939  1.00  0.00    -0.339 OA
HETATM   26  C1  UNL     1      35.287  58.982   6.520  1.00  0.00     0.211 C 
ENDBRANCH   1  25
TORSDOF 3
ENDMDL
MODEL 5
REMARK VINA RESULT: -7.240965576      2.289      5.880
REMARK  3 active torsions:
REMARK  status: ('A' for Active; 'I' for Inactive)
REMARK    1  A    between atoms: O1_2  and  C2_3 
REMARK    2  A    between atoms: C5_8  and  N2_9 
REMARK    3  A    between atoms: C7_17  and  O3_18 
ROOT
HETATM    1  C2  UNL     1      34.923  58.880   8.706  1.00  0.00     0.180 A 
HETATM    2  N1  UNL     1      34.158  58.798   9.807  1.00  0.00    -0.320 N 
ATOM      3  H1  UNL     1      33.921  57.894  10.215  1.00  0.00     0.169 HD
HETATM    4  C3  UNL     1      33.710  59.952  10.359  1.00  0.00     0.122 A 
HETATM    5  C4  UNL     1      34.025  61.207   9.814  1.00  0.00     0.107 A 
HETATM    6  C5  UNL     1      34.807  61.267   8.689  1.00  0.00     0.116 A 
HETATM    7  C7  UNL     1      35.257  60.070   8.136  1.00  0.00     0.147 A 
HETATM    8  C8  UNL     1      33.510  62.401  10.471  1.00  0.00     0.259 C 
HETATM    9  O4  UNL     1      33.775  63.529  10.005  1.00  0.00    -0.267 OA
HETATM   10  N6  UNL     1      32.703  62.248  11.648  1.00  0.00    -0.341 N 
ATOM     11  H6  UNL     1      32.025  62.959  11.925  1.00  0.00     0.164 HD
HETATM   12  C9  UNL     1      32.893  61.041  12.427  1.00  0.00     0.248 C 
HETATM   13  N7  UNL     1      32.895  59.926  11.516  1.00  0.00    -0.359 N 
ATOM     14  H7  UNL     1      32.308  59.114  11.705  1.00  0.00     0.162 HD
ENDROOT
BRANCH   6  15
HETATM   15  N2  UNL     1      35.155  62.497   8.098  1.00  0.00    -0.183 N 
HETATM   16  N3  UNL     1      34.279  63.372   7.637  1.00  0.00     0.005 NA
HETATM   17  N4  UNL     1      34.919  64.405   7.116  1.00  0.00    -0.222 N 
HETATM   18  N5  UNL     1      36.216  64.193   7.243  1.00  0.00    -0.237 N 
ATOM     19  H4  UNL     1      34.486  65.224   6.689  1.00  0.00     0.205 HD
HETATM   20  C6  UNL     1      36.363  63.013   7.852  1.00  0.00     0.360 A 
ATOM     21  H5  UNL     1      36.964  64.814   6.935  1.00  0.00     0.193 HD
HETATM   22  O2  UNL     1      37.482  62.472   8.145  1.00  0.00    -0.243 OA
ENDBRANCH   6  15
BRANCH   7  23
HETATM   23  O3  UNL     1      36.049  60.183   6.995  1.00  0.00    -0.355 OA
ATOM     24  H3  UNL     1      36.178  59.476   6.374  1.00  0.00     0.218 HD
ENDBRANCH   7  23
BRANCH   1  25
HETATM   25  O1  UNL     1      35.382  57.694   8.139  1.00  0.00    -0.339 OA
HETATM   26  C1  UNL     1      34.690  56.467   8.315  1.00  0.00     0.211 C 
ENDBRANCH   1  25
TORSDOF 3
ENDMDL
