MODEL 1
REMARK VINA RESULT: -8.318188094      0.000      0.000
REMARK  3 active torsions:
REMARK  status: ('A' for Active; 'I' for Inactive)
REMARK    1  A    between atoms: N3_7  and  C3_8 
REMARK    2  A    between atoms: C5_11  and  N5_12 
REMARK    3  A    between atoms: C7_22  and  N9_23 
ROOT
HETATM    1  C3  UNL     1      33.888  62.132   9.943  1.00  0.00     0.166 A 
HETATM    2  C4  UNL     1      32.991  62.149  10.987  1.00  0.00     0.169 A 
HETATM    3  N4  UNL     1      33.031  60.932  11.554  1.00  0.00    -0.115 N 
HETATM    4  C5  UNL     1      32.506  60.171  12.552  1.00  0.00     0.286 A 
HETATM    5  N6  UNL     1      33.067  58.961  12.505  1.00  0.00    -0.251 N 
ATOM      6  H6  UNL     1      32.859  58.189  13.138  1.00  0.00     0.191 HD
HETATM    7  N7  UNL     1      33.935  58.921  11.507  1.00  0.00    -0.128 N 
ATOM      8  H7  UNL     1      34.513  58.128  11.229  1.00  0.00     0.205 HD
HETATM    9  C6  UNL     1      33.902  60.144  10.930  1.00  0.00     0.708 A 
HETATM   10  N8  UNL     1      34.422  60.897   9.940  1.00  0.00    -0.172 N 
ATOM     11  H8  UNL     1      35.127  60.574   9.277  1.00  0.00     0.186 HD
ENDROOT
BRANCH   1  12
HETATM   12  N3  UNL     1      34.204  63.202   9.033  1.00  0.00    -0.076 N 
HETATM   13  C2  UNL     1      34.812  63.127   7.836  1.00  0.00     0.362 A 
HETATM   14  N2  UNL     1      34.910  64.364   7.314  1.00  0.00    -0.234 N 
HETATM   15  O1  UNL     1      35.222  62.079   7.292  1.00  0.00    -0.244 OA
HETATM   16  N1  UNL     1      34.380  65.229   8.148  1.00  0.00    -0.124 N 
ATOM     17  H2  UNL     1      35.330  64.593   6.413  1.00  0.00     0.192 HD
HETATM   18  C1  UNL     1      34.260  66.687   8.003  1.00  0.00     0.197 C 
HETATM   19  C7  UNL     1      33.943  64.526   9.207  1.00  0.00     0.704 A 
BRANCH  19  20
HETATM   20  N9  UNL     1      33.350  64.986  10.270  1.00  0.00    -0.232 N 
ATOM     21  H92 UNL     1      33.812  65.027  11.179  1.00  0.00     0.174 HD
ATOM     22  H91 UNL     1      32.399  65.348  10.341  1.00  0.00     0.174 HD
ENDBRANCH  19  20
ENDBRANCH   1  12
BRANCH   4  23
HETATM   23  N5  UNL     1      31.534  60.591  13.481  1.00  0.00    -0.077 N 
HETATM   24  O2  UNL     1      31.534  60.135  14.641  1.00  0.00    -0.529 OA
HETATM   25  O3  UNL     1      30.574  61.506  13.121  1.00  0.00    -0.529 OA
ENDBRANCH   4  23
TORSDOF 3
ENDMDL
MODEL 2
REMARK VINA RESULT: -8.233253354      2.257      5.937
REMARK  3 active torsions:
REMARK  status: ('A' for Active; 'I' for Inactive)
REMARK    1  A    between atoms: N3_7  and  C3_8 
REMARK    2  A    between atoms: C5_11  and  N5_12 
REMARK    3  A    between atoms: C7_22  and  N9_23 
ROOT
HETATM    1  C3  UNL     1      33.835  61.749  10.074  1.00  0.00     0.166 A 
HETATM    2  C4  UNL     1      33.572  63.098   9.999  1.00  0.00     0.169 A 
HETATM    3  N4  UNL     1      34.172  63.548   8.884  1.00  0.00    -0.115 N 
HETATM    4  C5  UNL     1      34.390  64.661   8.132  1.00  0.00     0.286 A 
HETATM    5  N6  UNL     1      35.133  64.321   7.076  1.00  0.00    -0.251 N 
ATOM      6  H6  UNL     1      35.447  64.960   6.346  1.00  0.00     0.191 HD
HETATM    7  N7  UNL     1      35.398  63.026   7.127  1.00  0.00    -0.128 N 
ATOM      8  H7  UNL     1      35.944  62.485   6.456  1.00  0.00     0.205 HD
HETATM    9  C6  UNL     1      34.798  62.563   8.248  1.00  0.00     0.708 A 
HETATM   10  N8  UNL     1      34.582  61.460   8.993  1.00  0.00    -0.172 N 
ATOM     11  H8  UNL     1      34.937  60.531   8.767  1.00  0.00     0.186 HD
ENDROOT
BRANCH   1  12
HETATM   12  N3  UNL     1      33.408  60.822  11.090  1.00  0.00    -0.076 N 
HETATM   13  C2  UNL     1      33.579  59.489  11.128  1.00  0.00     0.362 A 
HETATM   14  N2  UNL     1      33.028  59.006  12.257  1.00  0.00    -0.234 N 
HETATM   15  O1  UNL     1      34.157  58.804  10.256  1.00  0.00    -0.244 OA
HETATM   16  N1  UNL     1      32.508  59.998  12.943  1.00  0.00    -0.124 N 
ATOM     17  H2  UNL     1      33.016  58.025  12.536  1.00  0.00     0.192 HD
HETATM   18  C1  UNL     1      31.806  59.951  14.234  1.00  0.00     0.197 C 
HETATM   19  C7  UNL     1      32.736  61.118  12.236  1.00  0.00     0.704 A 
BRANCH  19  20
HETATM   20  N9  UNL     1      32.392  62.333  12.547  1.00  0.00    -0.232 N 
ATOM     21  H92 UNL     1      31.420  62.603  12.704  1.00  0.00     0.174 HD
ATOM     22  H91 UNL     1      33.005  63.139  12.671  1.00  0.00     0.174 HD
ENDBRANCH  19  20
ENDBRANCH   1  12
BRANCH   4  23
HETATM   23  N5  UNL     1      33.913  65.954   8.419  1.00  0.00    -0.077 N 
HETATM   24  O2  UNL     1      33.271  66.170   9.464  1.00  0.00    -0.529 OA
HETATM   25  O3  UNL     1      34.147  66.994   7.550  1.00  0.00    -0.529 OA
ENDBRANCH   4  23
TORSDOF 3
ENDMDL
MODEL 3
REMARK VINA RESULT: -7.436893432      2.161      5.977
REMARK  3 active torsions:
REMARK  status: ('A' for Active; 'I' for Inactive)
REMARK    1  A    between atoms: N3_7  and  C3_8 
REMARK    2  A    between atoms: C5_11  and  N5_12 
REMARK    3  A    between atoms: C7_22  and  N9_23 
ROOT
HETATM    1  C3  UNL     1      33.796  61.216  10.555  1.00  0.00     0.166 A 
HETATM    2  C4  UNL     1      33.761  62.528  10.139  1.00  0.00     0.169 A 
HETATM    3  N4  UNL     1      34.346  62.567   8.930  1.00  0.00    -0.115 N 
HETATM    4  C5  UNL     1      34.696  63.396   7.910  1.00  0.00     0.286 A 
HETATM    5  N6  UNL     1      35.293  62.674   6.960  1.00  0.00    -0.251 N 
ATOM      6  H6  UNL     1      35.657  63.041   6.081  1.00  0.00     0.191 HD
HETATM    7  N7  UNL     1      35.338  61.406   7.338  1.00  0.00    -0.128 N 
ATOM      8  H7  UNL     1      35.735  60.625   6.817  1.00  0.00     0.205 HD
HETATM    9  C6  UNL     1      34.750  61.357   8.556  1.00  0.00     0.708 A 
HETATM   10  N8  UNL     1      34.404  60.534   9.567  1.00  0.00    -0.172 N 
ATOM     11  H8  UNL     1      34.580  59.530   9.580  1.00  0.00     0.186 HD
ENDROOT
BRANCH   1  12
HETATM   12  N3  UNL     1      33.292  60.667  11.787  1.00  0.00    -0.076 N 
HETATM   13  C2  UNL     1      33.884  59.784  12.610  1.00  0.00     0.362 A 
HETATM   14  N2  UNL     1      33.068  59.538  13.652  1.00  0.00    -0.234 N 
HETATM   15  O1  UNL     1      35.011  59.270  12.439  1.00  0.00    -0.244 OA
HETATM   16  N1  UNL     1      31.968  60.243  13.517  1.00  0.00    -0.124 N 
ATOM     17  H2  UNL     1      33.272  58.905  14.426  1.00  0.00     0.192 HD
HETATM   18  C1  UNL     1      30.799  60.298  14.405  1.00  0.00     0.197 C 
HETATM   19  C7  UNL     1      32.096  60.940  12.374  1.00  0.00     0.704 A 
BRANCH  19  20
HETATM   20  N9  UNL     1      31.238  61.769  11.855  1.00  0.00    -0.232 N 
ATOM     21  H92 UNL     1      30.318  61.471  11.528  1.00  0.00     0.174 HD
ATOM     22  H91 UNL     1      31.355  62.772  11.709  1.00  0.00     0.174 HD
ENDBRANCH  19  20
ENDBRANCH   1  12
BRANCH   4  23
HETATM   23  N5  UNL     1      34.465  64.785   7.863  1.00  0.00    -0.077 N 
HETATM   24  O2  UNL     1      34.922  65.528   8.752  1.00  0.00    -0.529 OA
HETATM   25  O3  UNL     1      33.734  65.338   6.838  1.00  0.00    -0.529 OA
ENDBRANCH   4  23
TORSDOF 3
ENDMDL
MODEL 4
REMARK VINA RESULT: -7.424229702      2.645      6.203
REMARK  3 active torsions:
REMARK  status: ('A' for Active; 'I' for Inactive)
REMARK    1  A    between atoms: N3_7  and  C3_8 
REMARK    2  A    between atoms: C5_11  and  N5_12 
REMARK    3  A    between atoms: C7_22  and  N9_23 
ROOT
HETATM    1  C3  UNL     1      33.743  60.589  10.818  1.00  0.00     0.166 A 
HETATM    2  C4  UNL     1      34.211  59.605   9.978  1.00  0.00     0.169 A 
HETATM    3  N4  UNL     1      34.666  60.222   8.873  1.00  0.00    -0.115 N 
HETATM    4  C5  UNL     1      35.241  60.009   7.659  1.00  0.00     0.286 A 
HETATM    5  N6  UNL     1      35.417  61.188   7.059  1.00  0.00    -0.251 N 
ATOM      6  H6  UNL     1      35.828  61.325   6.136  1.00  0.00     0.191 HD
HETATM    7  N7  UNL     1      34.973  62.152   7.851  1.00  0.00    -0.128 N 
ATOM      8  H7  UNL     1      34.978  63.153   7.659  1.00  0.00     0.205 HD
HETATM    9  C6  UNL     1      34.513  61.539   8.966  1.00  0.00     0.708 A 
HETATM   10  N8  UNL     1      33.943  61.751  10.170  1.00  0.00    -0.172 N 
ATOM     11  H8  UNL     1      33.697  62.669  10.539  1.00  0.00     0.186 HD
ENDROOT
BRANCH   1  12
HETATM   12  N3  UNL     1      33.157  60.429  12.124  1.00  0.00    -0.076 N 
HETATM   13  C2  UNL     1      33.733  59.960  13.245  1.00  0.00     0.362 A 
HETATM   14  N2  UNL     1      32.831  59.979  14.244  1.00  0.00    -0.234 N 
HETATM   15  O1  UNL     1      34.915  59.568  13.347  1.00  0.00    -0.244 OA
HETATM   16  N1  UNL     1      31.691  60.449  13.790  1.00  0.00    -0.124 N 
ATOM     17  H2  UNL     1      33.004  59.676  15.203  1.00  0.00     0.192 HD
HETATM   18  C1  UNL     1      30.428  60.651  14.514  1.00  0.00     0.197 C 
HETATM   19  C7  UNL     1      31.881  60.729  12.489  1.00  0.00     0.704 A 
BRANCH  19  20
HETATM   20  N9  UNL     1      31.013  61.216  11.651  1.00  0.00    -0.232 N 
ATOM     21  H92 UNL     1      30.991  62.205  11.399  1.00  0.00     0.174 HD
ATOM     22  H91 UNL     1      30.276  60.710  11.158  1.00  0.00     0.174 HD
ENDBRANCH  19  20
ENDBRANCH   1  12
BRANCH   4  23
HETATM   23  N5  UNL     1      35.591  58.755   7.124  1.00  0.00    -0.077 N 
HETATM   24  O2  UNL     1      35.797  58.627   5.902  1.00  0.00    -0.529 OA
HETATM   25  O3  UNL     1      35.711  57.656   7.942  1.00  0.00    -0.529 OA
ENDBRANCH   4  23
TORSDOF 3
ENDMDL
MODEL 5
REMARK VINA RESULT: -7.326399678      1.973      6.212
REMARK  3 active torsions:
REMARK  status: ('A' for Active; 'I' for Inactive)
REMARK    1  A    between atoms: N3_7  and  C3_8 
REMARK    2  A    between atoms: C5_11  and  N5_12 
REMARK    3  A    between atoms: C7_22  and  N9_23 
ROOT
HETATM    1  C3  UNL     1      33.747  61.741  10.061  1.00  0.00     0.166 A 
HETATM    2  C4  UNL     1      33.542  63.102  10.038  1.00  0.00     0.169 A 
HETATM    3  N4  UNL     1      34.161  63.570   8.941  1.00  0.00    -0.115 N 
HETATM    4  C5  UNL     1      34.428  64.700   8.232  1.00  0.00     0.286 A 
HETATM    5  N6  UNL     1      35.155  64.370   7.163  1.00  0.00    -0.251 N 
ATOM      6  H6  UNL     1      35.497  65.022   6.457  1.00  0.00     0.191 HD
HETATM    7  N7  UNL     1      35.364  63.063   7.163  1.00  0.00    -0.128 N 
ATOM      8  H7  UNL     1      35.887  62.526   6.471  1.00  0.00     0.205 HD
HETATM    9  C6  UNL     1      34.745  62.584   8.266  1.00  0.00     0.708 A 
HETATM   10  N8  UNL     1      34.481  61.463   8.968  1.00  0.00    -0.172 N 
ATOM     11  H8  UNL     1      34.796  60.529   8.706  1.00  0.00     0.186 HD
ENDROOT
BRANCH   1  12
HETATM   12  N3  UNL     1      33.280  60.795  11.041  1.00  0.00    -0.076 N 
HETATM   13  C2  UNL     1      32.162  60.849  11.786  1.00  0.00     0.362 A 
HETATM   14  N2  UNL     1      32.106  59.759  12.575  1.00  0.00    -0.234 N 
HETATM   15  O1  UNL     1      31.309  61.761  11.754  1.00  0.00    -0.244 OA
HETATM   16  N1  UNL     1      33.162  59.010  12.354  1.00  0.00    -0.124 N 
ATOM     17  H2  UNL     1      31.362  59.549  13.240  1.00  0.00     0.192 HD
HETATM   18  C1  UNL     1      33.527  57.731  12.980  1.00  0.00     0.197 C 
HETATM   19  C7  UNL     1      33.890  59.637  11.413  1.00  0.00     0.704 A 
BRANCH  19  20
HETATM   20  N9  UNL     1      35.017  59.245  10.894  1.00  0.00    -0.232 N 
ATOM     21  H92 UNL     1      35.276  58.260  10.830  1.00  0.00     0.174 HD
ATOM     22  H91 UNL     1      35.755  59.830  10.502  1.00  0.00     0.174 HD
ENDBRANCH  19  20
ENDBRANCH   1  12
BRANCH   4  23
HETATM   23  N5  UNL     1      34.006  66.000   8.569  1.00  0.00    -0.077 N 
HETATM   24  O2  UNL     1      33.248  66.184   9.540  1.00  0.00    -0.529 OA
HETATM   25  O3  UNL     1      34.425  67.083   7.833  1.00  0.00    -0.529 OA
ENDBRANCH   4  23
TORSDOF 3
ENDMDL
