MODEL 1
REMARK VINA RESULT: 1.404720426      0.000      0.000
REMARK  4 active torsions:
REMARK  status: ('A' for Active; 'I' for Inactive)
REMARK    1  A    between atoms: O1_2  and  C2_3 
REMARK    2  A    between atoms: C2_3  and  O2_4 
REMARK    3  A    between atoms: C3_6  and  O3_7 
REMARK    4  A    between atoms: C5_13  and  N3_14 
ROOT
HETATM    1  C2  UNL     1      31.962  60.091  12.975  1.00  0.00     0.226 C 
HETATM    2  C3  UNL     1      31.189  61.329  12.644  1.00  0.00     0.296 C 
HETATM    3  N1  UNL     1      32.013  62.483  12.399  1.00  0.00    -0.089 NA
HETATM    4  N2  UNL     1      32.956  62.296  11.411  1.00  0.00    -0.219 N 
HETATM    5  S1  UNL     1      33.565  63.671  10.460  1.00  0.00     0.064 SA
HETATM    6  C4  UNL     1      33.425  60.979  11.174  1.00  0.00     0.083 C 
HETATM    7  C5  UNL     1      33.966  60.657  10.025  1.00  0.00     0.196 C 
HETATM    8  C6  UNL     1      33.283  59.996  12.267  1.00  0.00     0.212 C 
HETATM    9  C7  UNL     1      34.390  60.141  13.210  1.00  0.00     0.076 C 
HETATM   10  N4  UNL     1      35.268  60.242  13.970  1.00  0.00    -0.196 NA
ENDROOT
BRANCH   1  11
HETATM   11  O1  UNL     1      31.181  58.961  12.743  1.00  0.00    -0.355 OA
HETATM   12  C1  UNL     1      31.947  57.817  12.556  1.00  0.00     0.205 C 
ENDBRANCH   1  11
BRANCH   1  13
HETATM   13  O2  UNL     1      32.228  60.118  14.343  1.00  0.00    -0.361 OA
ATOM     14  H2  UNL     1      31.564  60.671  14.737  1.00  0.00     0.213 HD
ENDBRANCH   1  13
BRANCH   2  15
HETATM   15  O3  UNL     1      30.476  61.095  11.466  1.00  0.00    -0.373 OA
ATOM     16  H3  UNL     1      30.304  61.933  11.052  1.00  0.00     0.212 HD
ENDBRANCH   2  15
BRANCH   7  17
HETATM   17  N3  UNL     1      34.426  59.344   9.807  1.00  0.00    -0.125 N 
HETATM   18  O4  UNL     1      33.620  58.430   9.604  1.00  0.00    -0.532 OA
HETATM   19  O5  UNL     1      35.761  59.070   9.819  1.00  0.00    -0.532 OA
ENDBRANCH   7  17
TORSDOF 4
ENDMDL
MODEL 2
REMARK VINA RESULT: 1.636137855      2.363      3.809
REMARK  4 active torsions:
REMARK  status: ('A' for Active; 'I' for Inactive)
REMARK    1  A    between atoms: O1_2  and  C2_3 
REMARK    2  A    between atoms: C2_3  and  O2_4 
REMARK    3  A    between atoms: C3_6  and  O3_7 
REMARK    4  A    between atoms: C5_13  and  N3_14 
ROOT
HETATM    1  C2  UNL     1      32.883  59.684  12.912  1.00  0.00     0.226 C 
HETATM    2  C3  UNL     1      33.886  58.670  12.456  1.00  0.00     0.296 C 
HETATM    3  N1  UNL     1      33.781  58.332  11.062  1.00  0.00    -0.089 NA
HETATM    4  N2  UNL     1      33.862  59.417  10.216  1.00  0.00    -0.219 N 
HETATM    5  S1  UNL     1      34.462  59.233   8.551  1.00  0.00     0.064 SA
HETATM    6  C4  UNL     1      33.456  60.683  10.711  1.00  0.00     0.083 C 
HETATM    7  C5  UNL     1      33.886  61.789  10.155  1.00  0.00     0.196 C 
HETATM    8  C6  UNL     1      32.534  60.702  11.864  1.00  0.00     0.212 C 
HETATM    9  C7  UNL     1      31.159  60.524  11.404  1.00  0.00     0.076 C 
HETATM   10  N4  UNL     1      30.057  60.386  11.051  1.00  0.00    -0.196 NA
ENDROOT
BRANCH   1  11
HETATM   11  O1  UNL     1      33.317  60.294  14.087  1.00  0.00    -0.355 OA
HETATM   12  C1  UNL     1      32.736  59.736  15.218  1.00  0.00     0.205 C 
ENDBRANCH   1  11
BRANCH   1  13
HETATM   13  O2  UNL     1      31.711  58.998  13.227  1.00  0.00    -0.361 OA
ATOM     14  H2  UNL     1      31.270  58.821  12.404  1.00  0.00     0.213 HD
ENDBRANCH   1  13
BRANCH   2  15
HETATM   15  O3  UNL     1      35.162  59.209  12.637  1.00  0.00    -0.373 OA
ATOM     16  H3  UNL     1      35.747  58.800  12.011  1.00  0.00     0.212 HD
ENDBRANCH   2  15
BRANCH   7  17
HETATM   17  N3  UNL     1      33.472  63.037  10.659  1.00  0.00    -0.125 N 
HETATM   18  O4  UNL     1      32.946  63.111  11.774  1.00  0.00    -0.532 OA
HETATM   19  O5  UNL     1      33.648  64.171   9.924  1.00  0.00    -0.532 OA
ENDBRANCH   7  17
TORSDOF 4
ENDMDL
MODEL 3
REMARK VINA RESULT: 3.400057082      4.037      6.081
REMARK  4 active torsions:
REMARK  status: ('A' for Active; 'I' for Inactive)
REMARK    1  A    between atoms: O1_2  and  C2_3 
REMARK    2  A    between atoms: C2_3  and  O2_4 
REMARK    3  A    between atoms: C3_6  and  O3_7 
REMARK    4  A    between atoms: C5_13  and  N3_14 
ROOT
HETATM    1  C2  UNL     1      36.183  63.455   7.834  1.00  0.00     0.226 C 
HETATM    2  C3  UNL     1      35.622  64.309   8.928  1.00  0.00     0.296 C 
HETATM    3  N1  UNL     1      34.210  64.132   9.140  1.00  0.00    -0.089 NA
HETATM    4  N2  UNL     1      33.841  62.827   9.390  1.00  0.00    -0.219 N 
HETATM    5  S1  UNL     1      32.388  62.458  10.347  1.00  0.00     0.064 SA
HETATM    6  C4  UNL     1      34.654  61.791   8.865  1.00  0.00     0.083 C 
HETATM    7  C5  UNL     1      34.631  60.590   9.391  1.00  0.00     0.196 C 
HETATM    8  C6  UNL     1      35.515  62.116   7.710  1.00  0.00     0.212 C 
HETATM    9  C7  UNL     1      34.740  62.033   6.475  1.00  0.00     0.076 C 
HETATM   10  N4  UNL     1      34.135  61.968   5.480  1.00  0.00    -0.196 NA
ENDROOT
BRANCH   1  11
HETATM   11  O1  UNL     1      37.561  63.322   7.986  1.00  0.00    -0.355 OA
HETATM   12  C1  UNL     1      38.271  64.089   7.072  1.00  0.00     0.205 C 
ENDBRANCH   1  11
BRANCH   1  13
HETATM   13  O2  UNL     1      35.977  64.130   6.632  1.00  0.00    -0.361 OA
ATOM     14  H2  UNL     1      36.837  64.283   6.256  1.00  0.00     0.213 HD
ENDBRANCH   1  13
BRANCH   2  15
HETATM   15  O3  UNL     1      36.249  63.951  10.123  1.00  0.00    -0.373 OA
ATOM     16  H3  UNL     1      36.862  64.640  10.355  1.00  0.00     0.212 HD
ENDBRANCH   2  15
BRANCH   7  17
HETATM   17  N3  UNL     1      35.444  59.573   8.856  1.00  0.00    -0.125 N 
HETATM   18  O4  UNL     1      36.479  59.236   9.440  1.00  0.00    -0.532 OA
HETATM   19  O5  UNL     1      35.098  58.953   7.693  1.00  0.00    -0.532 OA
ENDBRANCH   7  17
TORSDOF 4
ENDMDL
MODEL 4
REMARK VINA RESULT: 3.607242771      2.725      3.678
REMARK  4 active torsions:
REMARK  status: ('A' for Active; 'I' for Inactive)
REMARK    1  A    between atoms: O1_2  and  C2_3 
REMARK    2  A    between atoms: C2_3  and  O2_4 
REMARK    3  A    between atoms: C3_6  and  O3_7 
REMARK    4  A    between atoms: C5_13  and  N3_14 
ROOT
HETATM    1  C2  UNL     1      34.435  59.553  10.459  1.00  0.00     0.226 C 
HETATM    2  C3  UNL     1      33.927  60.958  10.541  1.00  0.00     0.296 C 
HETATM    3  N1  UNL     1      34.776  61.924   9.896  1.00  0.00    -0.089 NA
HETATM    4  N2  UNL     1      35.036  61.644   8.571  1.00  0.00    -0.219 N 
HETATM    5  S1  UNL     1      35.412  62.948   7.421  1.00  0.00     0.064 SA
HETATM    6  C4  UNL     1      34.992  60.290   8.153  1.00  0.00     0.083 C 
HETATM    7  C5  UNL     1      34.802  59.985   6.893  1.00  0.00     0.196 C 
HETATM    8  C6  UNL     1      35.171  59.250   9.185  1.00  0.00     0.212 C 
HETATM    9  C7  UNL     1      36.595  59.047   9.443  1.00  0.00     0.076 C 
HETATM   10  N4  UNL     1      37.727  58.871   9.657  1.00  0.00    -0.196 NA
ENDROOT
BRANCH   1  11
HETATM   11  O1  UNL     1      33.394  58.652  10.669  1.00  0.00    -0.355 OA
HETATM   12  C1  UNL     1      33.143  58.438  12.018  1.00  0.00     0.205 C 
ENDBRANCH   1  11
BRANCH   1  13
HETATM   13  O2  UNL     1      35.336  59.373  11.508  1.00  0.00    -0.361 OA
ATOM     14  H2  UNL     1      36.095  58.935  11.142  1.00  0.00     0.213 HD
ENDBRANCH   1  13
BRANCH   2  15
HETATM   15  O3  UNL     1      32.695  61.013   9.884  1.00  0.00    -0.373 OA
ATOM     16  H3  UNL     1      32.478  61.927   9.738  1.00  0.00     0.212 HD
ENDBRANCH   2  15
BRANCH   7  17
HETATM   17  N3  UNL     1      34.762  58.634   6.495  1.00  0.00    -0.125 N 
HETATM   18  O4  UNL     1      35.623  58.188   5.729  1.00  0.00    -0.532 OA
HETATM   19  O5  UNL     1      33.776  57.810   6.948  1.00  0.00    -0.532 OA
ENDBRANCH   7  17
TORSDOF 4
ENDMDL
MODEL 5
REMARK VINA RESULT: 3.615447805      5.205      6.641
REMARK  4 active torsions:
REMARK  status: ('A' for Active; 'I' for Inactive)
REMARK    1  A    between atoms: O1_2  and  C2_3 
REMARK    2  A    between atoms: C2_3  and  O2_4 
REMARK    3  A    between atoms: C3_6  and  O3_7 
REMARK    4  A    between atoms: C5_13  and  N3_14 
ROOT
HETATM    1  C2  UNL     1      34.031  65.283   8.218  1.00  0.00     0.226 C 
HETATM    2  C3  UNL     1      33.371  64.811   9.475  1.00  0.00     0.296 C 
HETATM    3  N1  UNL     1      33.056  63.407   9.477  1.00  0.00    -0.089 NA
HETATM    4  N2  UNL     1      34.140  62.590   9.235  1.00  0.00    -0.219 N 
HETATM    5  S1  UNL     1      34.188  60.927   9.864  1.00  0.00     0.064 SA
HETATM    6  C4  UNL     1      35.215  63.115   8.473  1.00  0.00     0.083 C 
HETATM    7  C5  UNL     1      36.414  62.592   8.559  1.00  0.00     0.196 C 
HETATM    8  C6  UNL     1      34.930  64.260   7.586  1.00  0.00     0.212 C 
HETATM    9  C7  UNL     1      34.368  63.782   6.325  1.00  0.00     0.076 C 
HETATM   10  N4  UNL     1      33.921  63.415   5.312  1.00  0.00    -0.196 NA
ENDROOT
BRANCH   1  11
HETATM   11  O1  UNL     1      34.709  66.478   8.451  1.00  0.00    -0.355 OA
HETATM   12  C1  UNL     1      33.954  67.591   8.105  1.00  0.00     0.205 C 
ENDBRANCH   1  11
BRANCH   1  13
HETATM   13  O2  UNL     1      33.022  65.569   7.300  1.00  0.00    -0.361 OA
ATOM     14  H2  UNL     1      33.438  65.618   6.446  1.00  0.00     0.213 HD
ENDBRANCH   1  13
BRANCH   2  15
HETATM   15  O3  UNL     1      34.257  65.018  10.535  1.00  0.00    -0.373 OA
ATOM     16  H3  UNL     1      34.144  64.309  11.158  1.00  0.00     0.212 HD
ENDBRANCH   2  15
BRANCH   7  17
HETATM   17  N3  UNL     1      37.471  63.125   7.795  1.00  0.00    -0.125 N 
HETATM   18  O4  UNL     1      38.573  62.568   7.788  1.00  0.00    -0.532 OA
HETATM   19  O5  UNL     1      37.287  64.258   7.060  1.00  0.00    -0.532 OA
ENDBRANCH   7  17
TORSDOF 4
ENDMDL
