MODEL 1
REMARK VINA RESULT: -5.454380040      0.000      0.000
REMARK  5 active torsions:
REMARK  status: ('A' for Active; 'I' for Inactive)
REMARK    1  A    between atoms: C4_4  and  N1_5 
REMARK    2  A    between atoms: N1_5  and  C5_7 
REMARK    3  A    between atoms: C5_7  and  C6_8 
REMARK    4  A    between atoms: C6_8  and  N2_9 
REMARK    5  A    between atoms: N2_9  and  C7_11 
ROOT
HETATM    1  C5  UNL     1      12.104  29.959  34.528  1.00  0.00     0.141 C 
ENDROOT
BRANCH   1   2
HETATM    2  N1  UNL     1      12.183  30.491  33.211  1.00  0.00    -0.375 N 
ATOM      3  H1  UNL     1      11.758  31.407  33.065  1.00  0.00     0.161 HD
BRANCH   2   4
HETATM    4  C4  UNL     1      12.731  29.946  32.187  1.00  0.00     0.100 A 
HETATM    5  C3  UNL     1      13.123  28.635  32.232  1.00  0.00     0.048 A 
HETATM    6  C2  UNL     1      13.712  28.102  31.087  1.00  0.00     0.005 A 
HETATM    7  C1  UNL     1      13.906  28.836  29.938  1.00  0.00     0.017 A 
HETATM    8  C10 UNL     1      13.487  30.153  29.960  1.00  0.00     0.089 A 
HETATM    9  N4  UNL     1      12.922  30.679  31.049  1.00  0.00    -0.353 N 
ATOM     10  H4  UNL     1      12.624  31.655  31.032  1.00  0.00     0.166 HD
ENDBRANCH   2   4
ENDBRANCH   1   2
BRANCH   1  11
HETATM   11  C6  UNL     1      10.747  30.213  35.181  1.00  0.00     0.141 C 
BRANCH  11  12
HETATM   12  N2  UNL     1      10.811  31.454  35.970  1.00  0.00    -0.369 N 
ATOM     13  H2  UNL     1      11.164  32.330  35.585  1.00  0.00     0.161 HD
BRANCH  12  14
HETATM   14  C7  UNL     1      10.380  31.351  37.208  1.00  0.00     0.144 A 
HETATM   15  N3  UNL     1      10.540  32.224  38.204  1.00  0.00    -0.346 N 
HETATM   16  C8  UNL     1      10.036  31.943  39.367  1.00  0.00     0.097 A 
ATOM     17  H3  UNL     1      11.047  33.095  38.054  1.00  0.00     0.167 HD
HETATM   18  C9  UNL     1       9.364  30.758  39.508  1.00  0.00     0.070 A 
HETATM   19  S1  UNL     1       9.489  30.093  37.938  1.00  0.00    -0.065 SA
ENDBRANCH  12  14
ENDBRANCH  11  12
ENDBRANCH   1  11
TORSDOF 5
ENDMDL
MODEL 2
REMARK VINA RESULT: -5.352647943      1.997      7.996
REMARK  5 active torsions:
REMARK  status: ('A' for Active; 'I' for Inactive)
REMARK    1  A    between atoms: C4_4  and  N1_5 
REMARK    2  A    between atoms: N1_5  and  C5_7 
REMARK    3  A    between atoms: C5_7  and  C6_8 
REMARK    4  A    between atoms: C6_8  and  N2_9 
REMARK    5  A    between atoms: N2_9  and  C7_11 
ROOT
HETATM    1  C5  UNL     1       9.652  32.099  37.579  1.00  0.00     0.141 C 
ENDROOT
BRANCH   1   2
HETATM    2  N1  UNL     1      10.477  32.104  38.737  1.00  0.00    -0.375 N 
ATOM      3  H1  UNL     1      11.442  32.409  38.607  1.00  0.00     0.161 HD
BRANCH   2   4
HETATM    4  C4  UNL     1      10.142  31.767  39.929  1.00  0.00     0.100 A 
HETATM    5  C3  UNL     1      10.671  32.427  41.005  1.00  0.00     0.048 A 
HETATM    6  C2  UNL     1      10.267  32.013  42.274  1.00  0.00     0.005 A 
HETATM    7  C1  UNL     1       9.371  30.985  42.472  1.00  0.00     0.017 A 
HETATM    8  C10 UNL     1       8.876  30.362  41.342  1.00  0.00     0.089 A 
HETATM    9  N4  UNL     1       9.254  30.745  40.120  1.00  0.00    -0.353 N 
ATOM     10  H4  UNL     1       8.869  30.264  39.307  1.00  0.00     0.166 HD
ENDBRANCH   2   4
ENDBRANCH   1   2
BRANCH   1  11
HETATM   11  C6  UNL     1      10.038  31.000  36.591  1.00  0.00     0.141 C 
BRANCH  11  12
HETATM   12  N2  UNL     1      11.170  31.458  35.770  1.00  0.00    -0.369 N 
ATOM     13  H2  UNL     1      11.619  32.363  35.913  1.00  0.00     0.161 HD
BRANCH  12  14
HETATM   14  C7  UNL     1      11.561  30.617  34.838  1.00  0.00     0.144 A 
HETATM   15  N3  UNL     1      11.947  30.899  33.593  1.00  0.00    -0.346 N 
HETATM   16  C8  UNL     1      12.301  29.924  32.813  1.00  0.00     0.097 A 
ATOM     17  H3  UNL     1      11.964  31.862  33.260  1.00  0.00     0.167 HD
HETATM   18  C9  UNL     1      12.259  28.650  33.316  1.00  0.00     0.070 A 
HETATM   19  S1  UNL     1      11.704  28.919  34.910  1.00  0.00    -0.065 SA
ENDBRANCH  12  14
ENDBRANCH  11  12
ENDBRANCH   1  11
TORSDOF 5
ENDMDL
MODEL 3
REMARK VINA RESULT: -5.336978990      1.310      1.533
REMARK  5 active torsions:
REMARK  status: ('A' for Active; 'I' for Inactive)
REMARK    1  A    between atoms: C4_4  and  N1_5 
REMARK    2  A    between atoms: N1_5  and  C5_7 
REMARK    3  A    between atoms: C5_7  and  C6_8 
REMARK    4  A    between atoms: C6_8  and  N2_9 
REMARK    5  A    between atoms: N2_9  and  C7_11 
ROOT
HETATM    1  C5  UNL     1      10.975  28.370  33.537  1.00  0.00     0.141 C 
ENDROOT
BRANCH   1   2
HETATM    2  N1  UNL     1      11.121  29.246  32.427  1.00  0.00    -0.375 N 
ATOM      3  H1  UNL     1      10.405  29.965  32.318  1.00  0.00     0.161 HD
BRANCH   2   4
HETATM    4  C4  UNL     1      12.055  29.232  31.546  1.00  0.00     0.100 A 
HETATM    5  C3  UNL     1      12.495  28.043  31.030  1.00  0.00     0.048 A 
HETATM    6  C2  UNL     1      13.512  28.095  30.078  1.00  0.00     0.005 A 
HETATM    7  C1  UNL     1      14.072  29.279  29.650  1.00  0.00     0.017 A 
HETATM    8  C10 UNL     1      13.581  30.442  30.212  1.00  0.00     0.089 A 
HETATM    9  N4  UNL     1      12.608  30.409  31.126  1.00  0.00    -0.353 N 
ATOM     10  H4  UNL     1      12.268  31.286  31.521  1.00  0.00     0.166 HD
ENDBRANCH   2   4
ENDBRANCH   1   2
BRANCH   1  11
HETATM   11  C6  UNL     1      11.710  28.871  34.779  1.00  0.00     0.141 C 
BRANCH  11  12
HETATM   12  N2  UNL     1      11.468  30.314  34.940  1.00  0.00    -0.369 N 
ATOM     13  H2  UNL     1      11.958  31.016  34.385  1.00  0.00     0.161 HD
BRANCH  12  14
HETATM   14  C7  UNL     1      10.576  30.632  35.851  1.00  0.00     0.144 A 
HETATM   15  N3  UNL     1      10.570  31.699  36.651  1.00  0.00    -0.346 N 
HETATM   16  C8  UNL     1       9.594  31.842  37.494  1.00  0.00     0.097 A 
ATOM     17  H3  UNL     1      11.319  32.389  36.602  1.00  0.00     0.167 HD
HETATM   18  C9  UNL     1       8.615  30.883  37.515  1.00  0.00     0.070 A 
HETATM   19  S1  UNL     1       9.155  29.805  36.303  1.00  0.00    -0.065 SA
ENDBRANCH  12  14
ENDBRANCH  11  12
ENDBRANCH   1  11
TORSDOF 5
ENDMDL
MODEL 4
REMARK VINA RESULT: -5.328062940      1.722      2.417
REMARK  5 active torsions:
REMARK  status: ('A' for Active; 'I' for Inactive)
REMARK    1  A    between atoms: C4_4  and  N1_5 
REMARK    2  A    between atoms: N1_5  and  C5_7 
REMARK    3  A    between atoms: C5_7  and  C6_8 
REMARK    4  A    between atoms: C6_8  and  N2_9 
REMARK    5  A    between atoms: N2_9  and  C7_11 
ROOT
HETATM    1  C5  UNL     1      12.263  30.254  32.429  1.00  0.00     0.141 C 
ENDROOT
BRANCH   1   2
HETATM    2  N1  UNL     1      12.112  29.589  31.181  1.00  0.00    -0.375 N 
ATOM      3  H1  UNL     1      11.639  30.110  30.442  1.00  0.00     0.161 HD
BRANCH   2   4
HETATM    4  C4  UNL     1      12.505  28.404  30.881  1.00  0.00     0.100 A 
HETATM    5  C3  UNL     1      13.813  28.046  31.070  1.00  0.00     0.048 A 
HETATM    6  C2  UNL     1      14.178  26.745  30.725  1.00  0.00     0.005 A 
HETATM    7  C1  UNL     1      13.282  25.832  30.214  1.00  0.00     0.017 A 
HETATM    8  C10 UNL     1      11.979  26.259  30.049  1.00  0.00     0.089 A 
HETATM    9  N4  UNL     1      11.613  27.502  30.374  1.00  0.00    -0.353 N 
ATOM     10  H4  UNL     1      10.642  27.785  30.239  1.00  0.00     0.166 HD
ENDBRANCH   2   4
ENDBRANCH   1   2
BRANCH   1  11
HETATM   11  C6  UNL     1      11.473  29.581  33.550  1.00  0.00     0.141 C 
BRANCH  11  12
HETATM   12  N2  UNL     1      11.867  30.165  34.842  1.00  0.00    -0.369 N 
ATOM     13  H2  UNL     1      12.842  30.317  35.099  1.00  0.00     0.161 HD
BRANCH  12  14
HETATM   14  C7  UNL     1      10.871  30.476  35.641  1.00  0.00     0.144 A 
HETATM   15  N3  UNL     1      10.720  31.586  36.364  1.00  0.00    -0.346 N 
HETATM   16  C8  UNL     1       9.658  31.713  37.099  1.00  0.00     0.097 A 
ATOM     17  H3  UNL     1      11.425  32.322  36.340  1.00  0.00     0.167 HD
HETATM   18  C9  UNL     1       8.743  30.693  37.092  1.00  0.00     0.070 A 
HETATM   19  S1  UNL     1       9.466  29.582  36.011  1.00  0.00    -0.065 SA
ENDBRANCH  12  14
ENDBRANCH  11  12
ENDBRANCH   1  11
TORSDOF 5
ENDMDL
MODEL 5
REMARK VINA RESULT: -5.295432115      1.959      7.404
REMARK  5 active torsions:
REMARK  status: ('A' for Active; 'I' for Inactive)
REMARK    1  A    between atoms: C4_4  and  N1_5 
REMARK    2  A    between atoms: N1_5  and  C5_7 
REMARK    3  A    between atoms: C5_7  and  C6_8 
REMARK    4  A    between atoms: C6_8  and  N2_9 
REMARK    5  A    between atoms: N2_9  and  C7_11 
ROOT
HETATM    1  C5  UNL     1      10.740  29.975  35.054  1.00  0.00     0.141 C 
ENDROOT
BRANCH   1   2
HETATM    2  N1  UNL     1      10.653  31.118  35.896  1.00  0.00    -0.375 N 
ATOM      3  H1  UNL     1      10.876  32.017  35.467  1.00  0.00     0.161 HD
BRANCH   2   4
HETATM    4  C4  UNL     1      10.326  31.143  37.136  1.00  0.00     0.100 A 
HETATM    5  C3  UNL     1       9.700  30.066  37.704  1.00  0.00     0.048 A 
HETATM    6  C2  UNL     1       9.369  30.155  39.055  1.00  0.00     0.005 A 
HETATM    7  C1  UNL     1       9.649  31.268  39.819  1.00  0.00     0.017 A 
HETATM    8  C10 UNL     1      10.282  32.318  39.183  1.00  0.00     0.089 A 
HETATM    9  N4  UNL     1      10.605  32.249  37.889  1.00  0.00    -0.353 N 
ATOM     10  H4  UNL     1      11.072  33.043  37.450  1.00  0.00     0.166 HD
ENDBRANCH   2   4
ENDBRANCH   1   2
BRANCH   1  11
HETATM   11  C6  UNL     1      12.107  29.843  34.385  1.00  0.00     0.141 C 
BRANCH  11  12
HETATM   12  N2  UNL     1      12.138  30.673  33.170  1.00  0.00    -0.369 N 
ATOM     13  H2  UNL     1      11.750  31.616  33.141  1.00  0.00     0.161 HD
BRANCH  12  14
HETATM   14  C7  UNL     1      12.700  30.110  32.123  1.00  0.00     0.144 A 
HETATM   15  N3  UNL     1      12.934  30.655  30.929  1.00  0.00    -0.346 N 
HETATM   16  C8  UNL     1      13.506  29.934  30.014  1.00  0.00     0.097 A 
ATOM     17  H3  UNL     1      12.669  31.621  30.739  1.00  0.00     0.167 HD
HETATM   18  C9  UNL     1      13.840  28.643  30.328  1.00  0.00     0.070 A 
HETATM   19  S1  UNL     1      13.308  28.526  31.948  1.00  0.00    -0.065 SA
ENDBRANCH  12  14
ENDBRANCH  11  12
ENDBRANCH   1  11
TORSDOF 5
ENDMDL
