MODEL 1
REMARK VINA RESULT: -6.874381956      0.000      0.000
REMARK  7 active torsions:
REMARK  status: ('A' for Active; 'I' for Inactive)
REMARK    1  A    between atoms: C4_10  and  C5_11 
REMARK    2  A    between atoms: C5_11  and  O1_12 
REMARK    3  A    between atoms: C5_11  and  C6_14 
REMARK    4  A    between atoms: C7_15  and  C8_16 
REMARK    5  A    between atoms: C9_20  and  N3_21 
REMARK    6  A    between atoms: N3_21  and  C10_23 
REMARK    7  A    between atoms: C16_29  and  N4_30 
ROOT
HETATM    1  C6  UNL     1      24.202  32.642   3.733  1.00  0.00     0.033 A 
HETATM    2  C7  UNL     1      24.101  33.033   2.381  1.00  0.00     0.095 A 
HETATM    3  S1  UNL     1      22.531  33.665   2.272  1.00  0.00    -0.063 SA
HETATM    4  C9  UNL     1      22.003  33.442   3.900  1.00  0.00     0.105 A 
HETATM    5  C16 UNL     1      23.094  32.868   4.486  1.00  0.00     0.146 A 
ENDROOT
BRANCH   1   6
HETATM    6  C5  UNL     1      25.554  32.168   4.190  1.00  0.00     0.187 C 
BRANCH   6   7
HETATM    7  C4  UNL     1      25.677  30.909   4.971  1.00  0.00     0.200 C 
HETATM    8  C3  UNL     1      26.807  30.043   4.423  1.00  0.00     0.220 C 
HETATM    9  C2  UNL     1      28.140  30.417   5.073  1.00  0.00     0.163 C 
HETATM   10  F1  UNL     1      26.986  30.262   3.064  1.00  0.00    -0.245 F 
HETATM   11  N2  UNL     1      28.070  30.058   6.497  1.00  0.00    -0.354 N 
HETATM   12  C1  UNL     1      26.829  30.479   7.116  1.00  0.00     0.213 C 
ATOM     13  H2  UNL     1      28.813  29.567   6.994  1.00  0.00     0.163 HD
HETATM   14  N1  UNL     1      26.533  30.082   8.309  1.00  0.00    -0.365 N 
HETATM   15  O6  UNL     1      26.047  31.298   6.343  1.00  0.00    -0.311 OA
ATOM     16  H12 UNL     1      27.115  29.472   8.884  1.00  0.00     0.159 HD
ATOM     17  H11 UNL     1      25.659  30.378   8.745  1.00  0.00     0.159 HD
ENDBRANCH   6   7
BRANCH   6  18
HETATM   18  O1  UNL     1      25.883  33.200   5.163  1.00  0.00    -0.388 OA
ATOM     19  H1  UNL     1      25.180  33.133   5.799  1.00  0.00     0.210 HD
ENDBRANCH   6  18
ENDBRANCH   1   6
BRANCH   2  20
HETATM   20  C8  UNL     1      25.072  32.940   1.288  1.00  0.00     0.217 C 
HETATM   21  O2  UNL     1      25.620  33.861   0.716  1.00  0.00    -0.643 OA
HETATM   22  O3  UNL     1      25.409  31.635   0.853  1.00  0.00    -0.643 OA
ENDBRANCH   2  20
BRANCH   5  23
HETATM   23  N4  UNL     1      22.989  32.589   5.927  1.00  0.00    -0.112 N 
HETATM   24  O4  UNL     1      23.368  33.358   6.793  1.00  0.00    -0.532 OA
HETATM   25  O5  UNL     1      22.473  31.355   6.312  1.00  0.00    -0.532 OA
ENDBRANCH   5  23
BRANCH   4  26
HETATM   26  N3  UNL     1      20.722  33.875   4.394  1.00  0.00    -0.378 N 
ATOM     27  H3  UNL     1      20.523  34.857   4.200  1.00  0.00     0.160 HD
BRANCH  26  28
HETATM   28  C10 UNL     1      19.694  33.226   5.083  1.00  0.00     0.082 C 
HETATM   29  C11 UNL     1      18.350  33.509   4.433  1.00  0.00     0.025 C 
HETATM   30  C12 UNL     1      17.270  33.702   5.478  1.00  0.00     0.002 C 
HETATM   31  C13 UNL     1      17.574  34.855   6.403  1.00  0.00     0.000 C 
HETATM   32  C14 UNL     1      19.067  35.078   6.560  1.00  0.00     0.002 C 
HETATM   33  C15 UNL     1      19.703  33.730   6.539  1.00  0.00     0.025 C 
ENDBRANCH  26  28
ENDBRANCH   4  26
TORSDOF 7
ENDMDL
MODEL 2
REMARK VINA RESULT: -6.858130432      1.358      2.065
REMARK  7 active torsions:
REMARK  status: ('A' for Active; 'I' for Inactive)
REMARK    1  A    between atoms: C4_10  and  C5_11 
REMARK    2  A    between atoms: C5_11  and  O1_12 
REMARK    3  A    between atoms: C5_11  and  C6_14 
REMARK    4  A    between atoms: C7_15  and  C8_16 
REMARK    5  A    between atoms: C9_20  and  N3_21 
REMARK    6  A    between atoms: N3_21  and  C10_23 
REMARK    7  A    between atoms: C16_29  and  N4_30 
ROOT
HETATM    1  C6  UNL     1      23.621  32.790   3.895  1.00  0.00     0.033 A 
HETATM    2  C7  UNL     1      23.682  32.940   2.494  1.00  0.00     0.095 A 
HETATM    3  S1  UNL     1      22.190  33.650   2.111  1.00  0.00    -0.063 SA
HETATM    4  C9  UNL     1      21.494  33.756   3.687  1.00  0.00     0.105 A 
HETATM    5  C16 UNL     1      22.471  33.222   4.476  1.00  0.00     0.146 A 
ENDROOT
BRANCH   1   6
HETATM    6  C5  UNL     1      24.878  32.312   4.569  1.00  0.00     0.187 C 
BRANCH   6   7
HETATM    7  C4  UNL     1      24.810  31.243   5.599  1.00  0.00     0.200 C 
HETATM    8  C3  UNL     1      25.802  30.127   5.284  1.00  0.00     0.220 C 
HETATM    9  C2  UNL     1      27.173  30.434   5.888  1.00  0.00     0.163 C 
HETATM   10  F1  UNL     1      26.016  30.026   3.916  1.00  0.00    -0.245 F 
HETATM   11  N2  UNL     1      27.046  30.398   7.352  1.00  0.00    -0.354 N 
HETATM   12  C1  UNL     1      25.878  31.114   7.826  1.00  0.00     0.213 C 
ATOM     13  H2  UNL     1      27.706  29.922   7.966  1.00  0.00     0.163 HD
HETATM   14  N1  UNL     1      25.522  31.025   9.065  1.00  0.00    -0.365 N 
HETATM   15  O6  UNL     1      25.228  31.856   6.873  1.00  0.00    -0.311 OA
ATOM     16  H12 UNL     1      26.005  30.473   9.774  1.00  0.00     0.159 HD
ATOM     17  H11 UNL     1      24.700  31.529   9.398  1.00  0.00     0.159 HD
ENDBRANCH   6   7
BRANCH   6  18
HETATM   18  O1  UNL     1      25.235  33.497   5.338  1.00  0.00    -0.388 OA
ATOM     19  H1  UNL     1      25.271  33.175   6.232  1.00  0.00     0.210 HD
ENDBRANCH   6  18
ENDBRANCH   1   6
BRANCH   2  20
HETATM   20  C8  UNL     1      24.740  32.588   1.543  1.00  0.00     0.217 C 
HETATM   21  O2  UNL     1      25.512  33.347   0.994  1.00  0.00    -0.643 OA
HETATM   22  O3  UNL     1      24.878  31.213   1.235  1.00  0.00    -0.643 OA
ENDBRANCH   2  20
BRANCH   5  23
HETATM   23  N4  UNL     1      22.207  33.211   5.924  1.00  0.00    -0.112 N 
HETATM   24  O4  UNL     1      21.503  32.384   6.476  1.00  0.00    -0.532 OA
HETATM   25  O5  UNL     1      22.758  34.234   6.689  1.00  0.00    -0.532 OA
ENDBRANCH   5  23
BRANCH   4  26
HETATM   26  N3  UNL     1      20.214  34.358   3.959  1.00  0.00    -0.378 N 
ATOM     27  H3  UNL     1      20.274  35.348   4.196  1.00  0.00     0.160 HD
BRANCH  26  28
HETATM   28  C10 UNL     1      18.908  33.862   3.964  1.00  0.00     0.082 C 
HETATM   29  C11 UNL     1      18.878  32.433   4.479  1.00  0.00     0.025 C 
HETATM   30  C12 UNL     1      17.889  31.593   3.697  1.00  0.00     0.002 C 
HETATM   31  C13 UNL     1      18.229  31.535   2.228  1.00  0.00     0.000 C 
HETATM   32  C14 UNL     1      18.956  32.785   1.763  1.00  0.00     0.002 C 
HETATM   33  C15 UNL     1      18.368  33.925   2.523  1.00  0.00     0.025 C 
ENDBRANCH  26  28
ENDBRANCH   4  26
TORSDOF 7
ENDMDL
MODEL 3
REMARK VINA RESULT: -6.776158780      1.499      1.904
REMARK  7 active torsions:
REMARK  status: ('A' for Active; 'I' for Inactive)
REMARK    1  A    between atoms: C4_10  and  C5_11 
REMARK    2  A    between atoms: C5_11  and  O1_12 
REMARK    3  A    between atoms: C5_11  and  C6_14 
REMARK    4  A    between atoms: C7_15  and  C8_16 
REMARK    5  A    between atoms: C9_20  and  N3_21 
REMARK    6  A    between atoms: N3_21  and  C10_23 
REMARK    7  A    between atoms: C16_29  and  N4_30 
ROOT
HETATM    1  C6  UNL     1      24.888  32.255   4.152  1.00  0.00     0.033 A 
HETATM    2  C7  UNL     1      24.463  32.408   2.816  1.00  0.00     0.095 A 
HETATM    3  S1  UNL     1      23.102  33.411   2.949  1.00  0.00    -0.063 SA
HETATM    4  C9  UNL     1      23.063  33.639   4.659  1.00  0.00     0.105 A 
HETATM    5  C16 UNL     1      24.135  32.906   5.078  1.00  0.00     0.146 A 
ENDROOT
BRANCH   1   6
HETATM    6  C5  UNL     1      26.185  31.523   4.359  1.00  0.00     0.187 C 
BRANCH   6   7
HETATM    7  C4  UNL     1      26.185  30.168   4.970  1.00  0.00     0.200 C 
HETATM    8  C3  UNL     1      27.179  29.255   4.256  1.00  0.00     0.220 C 
HETATM    9  C2  UNL     1      28.573  29.386   4.873  1.00  0.00     0.163 C 
HETATM   10  F1  UNL     1      27.328  29.628   2.927  1.00  0.00    -0.245 F 
HETATM   11  N2  UNL     1      28.517  28.855   6.243  1.00  0.00    -0.354 N 
HETATM   12  C1  UNL     1      27.363  29.332   6.977  1.00  0.00     0.213 C 
ATOM     13  H2  UNL     1      29.214  28.221   6.633  1.00  0.00     0.163 HD
HETATM   14  N1  UNL     1      27.069  28.820   8.127  1.00  0.00    -0.365 N 
HETATM   15  O6  UNL     1      26.655  30.330   6.357  1.00  0.00    -0.311 OA
ATOM     16  H12 UNL     1      27.595  28.077   8.588  1.00  0.00     0.159 HD
ATOM     17  H11 UNL     1      26.256  29.155   8.643  1.00  0.00     0.159 HD
ENDBRANCH   6   7
BRANCH   6  18
HETATM   18  O1  UNL     1      26.799  32.354   5.387  1.00  0.00    -0.388 OA
ATOM     19  H1  UNL     1      27.318  32.973   4.886  1.00  0.00     0.210 HD
ENDBRANCH   6  18
ENDBRANCH   1   6
BRANCH   2  20
HETATM   20  C8  UNL     1      25.012  31.858   1.573  1.00  0.00     0.217 C 
HETATM   21  O2  UNL     1      25.103  30.686   1.269  1.00  0.00    -0.643 OA
HETATM   22  O3  UNL     1      25.483  32.797   0.623  1.00  0.00    -0.643 OA
ENDBRANCH   2  20
BRANCH   5  23
HETATM   23  N4  UNL     1      24.420  32.932   6.522  1.00  0.00    -0.112 N 
HETATM   24  O4  UNL     1      24.232  31.984   7.264  1.00  0.00    -0.532 OA
HETATM   25  O5  UNL     1      24.884  34.124   7.069  1.00  0.00    -0.532 OA
ENDBRANCH   5  23
BRANCH   4  26
HETATM   26  N3  UNL     1      22.113  34.485   5.334  1.00  0.00    -0.378 N 
ATOM     27  H3  UNL     1      22.478  35.414   5.548  1.00  0.00     0.160 HD
BRANCH  26  28
HETATM   28  C10 UNL     1      20.794  34.296   5.755  1.00  0.00     0.082 C 
HETATM   29  C11 UNL     1      20.227  35.581   6.337  1.00  0.00     0.025 C 
HETATM   30  C12 UNL     1      19.362  35.294   7.547  1.00  0.00     0.002 C 
HETATM   31  C13 UNL     1      20.133  34.604   8.646  1.00  0.00     0.000 C 
HETATM   32  C14 UNL     1      21.270  33.761   8.098  1.00  0.00     0.002 C 
HETATM   33  C15 UNL     1      20.787  33.178   6.814  1.00  0.00     0.025 C 
ENDBRANCH  26  28
ENDBRANCH   4  26
TORSDOF 7
ENDMDL
MODEL 4
REMARK VINA RESULT: -6.731309165      0.881      1.555
REMARK  7 active torsions:
REMARK  status: ('A' for Active; 'I' for Inactive)
REMARK    1  A    between atoms: C4_10  and  C5_11 
REMARK    2  A    between atoms: C5_11  and  O1_12 
REMARK    3  A    between atoms: C5_11  and  C6_14 
REMARK    4  A    between atoms: C7_15  and  C8_16 
REMARK    5  A    between atoms: C9_20  and  N3_21 
REMARK    6  A    between atoms: N3_21  and  C10_23 
REMARK    7  A    between atoms: C16_29  and  N4_30 
ROOT
HETATM    1  C6  UNL     1      24.166  32.572   3.798  1.00  0.00     0.033 A 
HETATM    2  C7  UNL     1      24.071  33.035   2.469  1.00  0.00     0.095 A 
HETATM    3  S1  UNL     1      22.493  33.650   2.379  1.00  0.00    -0.063 SA
HETATM    4  C9  UNL     1      21.954  33.331   3.987  1.00  0.00     0.105 A 
HETATM    5  C16 UNL     1      23.047  32.740   4.552  1.00  0.00     0.146 A 
ENDROOT
BRANCH   1   6
HETATM    6  C5  UNL     1      25.521  32.092   4.241  1.00  0.00     0.187 C 
BRANCH   6   7
HETATM    7  C4  UNL     1      25.647  30.829   5.014  1.00  0.00     0.200 C 
HETATM    8  C3  UNL     1      26.727  29.935   4.412  1.00  0.00     0.220 C 
HETATM    9  C2  UNL     1      28.098  30.272   4.999  1.00  0.00     0.163 C 
HETATM   10  F1  UNL     1      26.847  30.153   3.046  1.00  0.00    -0.245 F 
HETATM   11  N2  UNL     1      28.086  29.911   6.424  1.00  0.00    -0.354 N 
HETATM   12  C1  UNL     1      26.887  30.362   7.101  1.00  0.00     0.213 C 
ATOM     13  H2  UNL     1      28.838  29.400   6.885  1.00  0.00     0.163 HD
HETATM   14  N1  UNL     1      26.637  29.969   8.307  1.00  0.00    -0.365 N 
HETATM   15  O6  UNL     1      26.091  31.204   6.368  1.00  0.00    -0.311 OA
ATOM     16  H12 UNL     1      27.229  29.343   8.852  1.00  0.00     0.159 HD
ATOM     17  H11 UNL     1      25.793  30.287   8.783  1.00  0.00     0.159 HD
ENDBRANCH   6   7
BRANCH   6  18
HETATM   18  O1  UNL     1      25.859  33.118   5.219  1.00  0.00    -0.388 OA
ATOM     19  H1  UNL     1      25.835  33.921   4.711  1.00  0.00     0.210 HD
ENDBRANCH   6  18
ENDBRANCH   1   6
BRANCH   2  20
HETATM   20  C8  UNL     1      25.053  33.015   1.381  1.00  0.00     0.217 C 
HETATM   21  O2  UNL     1      25.605  33.972   0.877  1.00  0.00    -0.643 OA
HETATM   22  O3  UNL     1      25.397  31.742   0.865  1.00  0.00    -0.643 OA
ENDBRANCH   2  20
BRANCH   5  23
HETATM   23  N4  UNL     1      22.934  32.382   5.975  1.00  0.00    -0.112 N 
HETATM   24  O4  UNL     1      22.329  31.405   6.378  1.00  0.00    -0.532 OA
HETATM   25  O5  UNL     1      23.512  33.239   6.906  1.00  0.00    -0.532 OA
ENDBRANCH   5  23
BRANCH   4  26
HETATM   26  N3  UNL     1      20.662  33.718   4.491  1.00  0.00    -0.378 N 
ATOM     27  H3  UNL     1      19.957  32.986   4.404  1.00  0.00     0.160 HD
BRANCH  26  28
HETATM   28  C10 UNL     1      20.177  34.891   5.076  1.00  0.00     0.082 C 
HETATM   29  C11 UNL     1      21.323  35.754   5.576  1.00  0.00     0.025 C 
HETATM   30  C12 UNL     1      20.976  36.405   6.900  1.00  0.00     0.002 C 
HETATM   31  C13 UNL     1      20.678  35.386   7.973  1.00  0.00     0.000 C 
HETATM   32  C14 UNL     1      20.113  34.101   7.395  1.00  0.00     0.002 C 
HETATM   33  C15 UNL     1      19.253  34.496   6.244  1.00  0.00     0.025 C 
ENDBRANCH  26  28
ENDBRANCH   4  26
TORSDOF 7
ENDMDL
MODEL 5
REMARK VINA RESULT: -6.634592631      4.029      5.832
REMARK  7 active torsions:
REMARK  status: ('A' for Active; 'I' for Inactive)
REMARK    1  A    between atoms: C4_10  and  C5_11 
REMARK    2  A    between atoms: C5_11  and  O1_12 
REMARK    3  A    between atoms: C5_11  and  C6_14 
REMARK    4  A    between atoms: C7_15  and  C8_16 
REMARK    5  A    between atoms: C9_20  and  N3_21 
REMARK    6  A    between atoms: N3_21  and  C10_23 
REMARK    7  A    between atoms: C16_29  and  N4_30 
ROOT
HETATM    1  C6  UNL     1      26.472  30.197   4.860  1.00  0.00     0.033 A 
HETATM    2  C7  UNL     1      26.470  31.117   5.929  1.00  0.00     0.095 A 
HETATM    3  S1  UNL     1      26.304  32.617   5.155  1.00  0.00    -0.063 SA
HETATM    4  C9  UNL     1      26.240  32.101   3.509  1.00  0.00     0.105 A 
HETATM    5  C16 UNL     1      26.354  30.746   3.621  1.00  0.00     0.146 A 
ENDROOT
BRANCH   1   6
HETATM    6  C5  UNL     1      26.458  28.741   5.234  1.00  0.00     0.187 C 
BRANCH   6   7
HETATM    7  C4  UNL     1      27.327  27.777   4.509  1.00  0.00     0.200 C 
HETATM    8  C3  UNL     1      28.326  27.129   5.463  1.00  0.00     0.220 C 
HETATM    9  C2  UNL     1      27.723  25.886   6.117  1.00  0.00     0.163 C 
HETATM   10  F1  UNL     1      28.636  27.984   6.513  1.00  0.00    -0.245 F 
HETATM   11  N2  UNL     1      27.518  24.874   5.070  1.00  0.00    -0.354 N 
HETATM   12  C1  UNL     1      26.905  25.424   3.878  1.00  0.00     0.213 C 
ATOM     13  H2  UNL     1      27.778  23.893   5.172  1.00  0.00     0.163 HD
HETATM   14  N1  UNL     1      26.824  24.711   2.803  1.00  0.00    -0.365 N 
HETATM   15  O6  UNL     1      26.445  26.710   4.005  1.00  0.00    -0.311 OA
ATOM     16  H12 UNL     1      27.167  23.755   2.708  1.00  0.00     0.159 HD
ATOM     17  H11 UNL     1      26.393  25.099   1.963  1.00  0.00     0.159 HD
ENDBRANCH   6   7
BRANCH   6  18
HETATM   18  O1  UNL     1      25.115  28.369   4.807  1.00  0.00    -0.388 OA
ATOM     19  H1  UNL     1      24.842  27.742   5.467  1.00  0.00     0.210 HD
ENDBRANCH   6  18
ENDBRANCH   1   6
BRANCH   2  20
HETATM   20  C8  UNL     1      26.583  30.900   7.373  1.00  0.00     0.217 C 
HETATM   21  O2  UNL     1      25.686  30.935   8.191  1.00  0.00    -0.643 OA
HETATM   22  O3  UNL     1      27.879  30.613   7.867  1.00  0.00    -0.643 OA
ENDBRANCH   2  20
BRANCH   5  23
HETATM   23  N4  UNL     1      26.281  29.978   2.368  1.00  0.00    -0.112 N 
HETATM   24  O4  UNL     1      27.186  29.275   1.954  1.00  0.00    -0.532 OA
HETATM   25  O5  UNL     1      25.131  30.107   1.596  1.00  0.00    -0.532 OA
ENDBRANCH   5  23
BRANCH   4  26
HETATM   26  N3  UNL     1      26.037  32.993   2.396  1.00  0.00    -0.378 N 
ATOM     27  H3  UNL     1      26.886  33.477   2.105  1.00  0.00     0.160 HD
BRANCH  26  28
HETATM   28  C10 UNL     1      24.915  33.330   1.635  1.00  0.00     0.082 C 
HETATM   29  C11 UNL     1      25.177  34.590   0.824  1.00  0.00     0.025 C 
HETATM   30  C12 UNL     1      23.949  35.477   0.787  1.00  0.00     0.002 C 
HETATM   31  C13 UNL     1      23.520  35.911   2.167  1.00  0.00     0.000 C 
HETATM   32  C14 UNL     1      23.894  34.889   3.226  1.00  0.00     0.002 C 
HETATM   33  C15 UNL     1      23.732  33.548   2.597  1.00  0.00     0.025 C 
ENDBRANCH  26  28
ENDBRANCH   4  26
TORSDOF 7
ENDMDL
