MODEL 1
REMARK VINA RESULT: -8.373242774      0.000      0.000
REMARK  11 active torsions:
REMARK  status: ('A' for Active; 'I' for Inactive)
REMARK    1  A    between atoms: N1_1  and  C1_4 
REMARK    2  A    between atoms: C2_7  and  S1_8 
REMARK    3  A    between atoms: S1_8  and  C3_9 
REMARK    4  A    between atoms: C3_9  and  C4_10 
REMARK    5  A    between atoms: C4_10  and  C5_11 
REMARK    6  A    between atoms: C5_11  and  N3_12 
REMARK    7  A    between atoms: C7_21  and  C8_22 
REMARK    8  A    between atoms: C8_22  and  C9_23 
REMARK    9  A    between atoms: C9_23  and  C10_24 
REMARK   10  A    between atoms: C12_29  and  O1_30 
REMARK   11  A    between atoms: C13_32  and  O2_33 
ROOT
HETATM    1  C1  UNL     1      43.769  28.255  16.148  1.00  0.00     0.132 A 
HETATM    2  N2  UNL     1      43.813  27.875  14.863  1.00  0.00    -0.321 N 
ATOM      3  H2  UNL     1      44.679  27.990  14.337  1.00  0.00     0.169 HD
HETATM    4  C2  UNL     1      42.738  27.347  14.254  1.00  0.00     0.147 A 
HETATM    5  N4  UNL     1      41.615  27.207  14.962  1.00  0.00    -0.321 N 
ATOM      6  H4  UNL     1      40.800  26.805  14.497  1.00  0.00     0.169 HD
HETATM    7  C6  UNL     1      41.495  27.566  16.252  1.00  0.00     0.140 A 
HETATM    8  N5  UNL     1      40.515  27.537  17.167  1.00  0.00    -0.327 N 
ATOM      9  H5  UNL     1      39.573  27.185  16.995  1.00  0.00     0.169 HD
HETATM   10  C7  UNL     1      40.948  28.039  18.355  1.00  0.00     0.107 A 
HETATM   11  N7  UNL     1      42.230  28.379  18.137  1.00  0.00    -0.336 N 
ATOM     12  H7  UNL     1      42.846  28.790  18.839  1.00  0.00     0.168 HD
HETATM   13  C14 UNL     1      42.591  28.106  16.878  1.00  0.00     0.122 A 
ENDROOT
BRANCH  10  14
HETATM   14  C8  UNL     1      40.183  28.175  19.588  1.00  0.00     0.046 C 
BRANCH  14  15
HETATM   15  C9  UNL     1      38.894  27.915  19.609  1.00  0.00     0.012 C 
BRANCH  15  16
HETATM   16  C10 UNL     1      38.119  27.641  20.824  1.00  0.00     0.239 C 
HETATM   17  N6  UNL     1      38.499  28.443  21.952  1.00  0.00    -0.063 N 
HETATM   18  C11 UNL     1      37.474  28.128  22.931  1.00  0.00     0.267 C 
ATOM     19  H62 UNL     1      39.456  28.299  22.275  1.00  0.00     0.278 HD
ATOM     20  H61 UNL     1      38.608  29.438  21.753  1.00  0.00     0.278 HD
HETATM   21  C12 UNL     1      36.225  27.791  22.169  1.00  0.00     0.174 C 
HETATM   22  C13 UNL     1      36.655  27.911  20.700  1.00  0.00     0.182 C 
BRANCH  21  23
HETATM   23  O1  UNL     1      35.943  26.420  22.352  1.00  0.00    -0.391 OA
ATOM     24  H1  UNL     1      36.457  25.920  21.729  1.00  0.00     0.210 HD
ENDBRANCH  21  23
BRANCH  22  25
HETATM   25  O2  UNL     1      36.375  29.224  20.336  1.00  0.00    -0.391 OA
ATOM     26  H2  UNL     1      35.997  29.732  21.044  1.00  0.00     0.210 HD
ENDBRANCH  22  25
ENDBRANCH  15  16
ENDBRANCH  14  15
ENDBRANCH  10  14
BRANCH   1  27
HETATM   27  N1  UNL     1      44.786  28.765  16.756  1.00  0.00    -0.383 N 
ATOM     28  H12 UNL     1      44.624  29.592  17.331  1.00  0.00     0.157 HD
ATOM     29  H11 UNL     1      45.724  28.373  16.679  1.00  0.00     0.157 HD
ENDBRANCH   1  27
BRANCH   4  30
HETATM   30  S1  UNL     1      42.889  26.868  12.540  1.00  0.00    -0.094 SA
BRANCH  30  31
HETATM   31  C3  UNL     1      41.401  25.985  12.071  1.00  0.00     0.084 C 
BRANCH  31  32
HETATM   32  C4  UNL     1      41.373  24.573  12.621  1.00  0.00     0.038 C 
BRANCH  32  33
HETATM   33  C5  UNL     1      40.052  23.902  12.383  1.00  0.00     0.230 C 
BRANCH  33  34
HETATM   34  N3  UNL     1      40.195  22.505  12.760  1.00  0.00    -0.079 N 
ATOM     35  H33 UNL     1      40.011  22.339  13.749  1.00  0.00     0.274 HD
ATOM     36  H32 UNL     1      39.453  21.915  12.385  1.00  0.00     0.274 HD
ATOM     37  H31 UNL     1      41.127  22.202  12.473  1.00  0.00     0.274 HD
ENDBRANCH  33  34
ENDBRANCH  32  33
ENDBRANCH  31  32
ENDBRANCH  30  31
ENDBRANCH   4  30
TORSDOF 11
ENDMDL
MODEL 2
REMARK VINA RESULT: -8.324901273      1.096      1.282
REMARK  11 active torsions:
REMARK  status: ('A' for Active; 'I' for Inactive)
REMARK    1  A    between atoms: N1_1  and  C1_4 
REMARK    2  A    between atoms: C2_7  and  S1_8 
REMARK    3  A    between atoms: S1_8  and  C3_9 
REMARK    4  A    between atoms: C3_9  and  C4_10 
REMARK    5  A    between atoms: C4_10  and  C5_11 
REMARK    6  A    between atoms: C5_11  and  N3_12 
REMARK    7  A    between atoms: C7_21  and  C8_22 
REMARK    8  A    between atoms: C8_22  and  C9_23 
REMARK    9  A    between atoms: C9_23  and  C10_24 
REMARK   10  A    between atoms: C12_29  and  O1_30 
REMARK   11  A    between atoms: C13_32  and  O2_33 
ROOT
HETATM    1  C1  UNL     1      43.686  28.318  16.413  1.00  0.00     0.132 A 
HETATM    2  N2  UNL     1      43.654  27.931  15.129  1.00  0.00    -0.321 N 
ATOM      3  H2  UNL     1      44.497  28.016  14.561  1.00  0.00     0.169 HD
HETATM    4  C2  UNL     1      42.535  27.434  14.578  1.00  0.00     0.147 A 
HETATM    5  N4  UNL     1      41.444  27.332  15.341  1.00  0.00    -0.321 N 
ATOM      6  H4  UNL     1      40.595  26.953  14.919  1.00  0.00     0.169 HD
HETATM    7  C6  UNL     1      41.399  27.700  16.633  1.00  0.00     0.140 A 
HETATM    8  N5  UNL     1      40.466  27.705  17.595  1.00  0.00    -0.327 N 
ATOM      9  H5  UNL     1      39.506  27.382  17.472  1.00  0.00     0.169 HD
HETATM   10  C7  UNL     1      40.971  28.199  18.757  1.00  0.00     0.107 A 
HETATM   11  N7  UNL     1      42.251  28.498  18.475  1.00  0.00    -0.336 N 
ATOM     12  H7  UNL     1      42.914  28.893  19.143  1.00  0.00     0.168 HD
HETATM   13  C14 UNL     1      42.541  28.209  17.201  1.00  0.00     0.122 A 
ENDROOT
BRANCH  10  14
HETATM   14  C8  UNL     1      40.273  28.364  20.026  1.00  0.00     0.046 C 
BRANCH  14  15
HETATM   15  C9  UNL     1      39.412  27.461  20.439  1.00  0.00     0.012 C 
BRANCH  15  16
HETATM   16  C10 UNL     1      38.076  27.762  20.967  1.00  0.00     0.239 C 
HETATM   17  N6  UNL     1      37.163  28.277  19.987  1.00  0.00    -0.063 N 
HETATM   18  C11 UNL     1      35.900  28.296  20.703  1.00  0.00     0.267 C 
ATOM     19  H62 UNL     1      37.435  29.171  19.578  1.00  0.00     0.278 HD
ATOM     20  H61 UNL     1      37.148  27.763  19.106  1.00  0.00     0.278 HD
HETATM   21  C12 UNL     1      35.947  27.185  21.711  1.00  0.00     0.174 C 
HETATM   22  C13 UNL     1      37.346  26.581  21.518  1.00  0.00     0.182 C 
BRANCH  21  23
HETATM   23  O1  UNL     1      35.976  27.752  23.004  1.00  0.00    -0.391 OA
ATOM     24  H1  UNL     1      36.816  28.179  23.128  1.00  0.00     0.210 HD
ENDBRANCH  21  23
BRANCH  22  25
HETATM   25  O2  UNL     1      37.185  25.561  20.586  1.00  0.00    -0.391 OA
ATOM     26  H2  UNL     1      36.640  25.815  19.850  1.00  0.00     0.210 HD
ENDBRANCH  22  25
ENDBRANCH  15  16
ENDBRANCH  14  15
ENDBRANCH  10  14
BRANCH   1  27
HETATM   27  N1  UNL     1      44.746  28.798  16.967  1.00  0.00    -0.383 N 
ATOM     28  H12 UNL     1      44.691  29.743  17.348  1.00  0.00     0.157 HD
ATOM     29  H11 UNL     1      45.618  28.272  17.032  1.00  0.00     0.157 HD
ENDBRANCH   1  27
BRANCH   4  30
HETATM   30  S1  UNL     1      42.586  26.942  12.861  1.00  0.00    -0.094 SA
BRANCH  30  31
HETATM   31  C3  UNL     1      41.994  25.254  12.743  1.00  0.00     0.084 C 
BRANCH  31  32
HETATM   32  C4  UNL     1      40.792  25.129  11.828  1.00  0.00     0.038 C 
BRANCH  32  33
HETATM   33  C5  UNL     1      39.900  23.990  12.224  1.00  0.00     0.230 C 
BRANCH  33  34
HETATM   34  N3  UNL     1      40.673  23.103  13.080  1.00  0.00    -0.079 N 
ATOM     35  H33 UNL     1      41.569  22.838  12.671  1.00  0.00     0.274 HD
ATOM     36  H32 UNL     1      41.037  23.571  13.909  1.00  0.00     0.274 HD
ATOM     37  H31 UNL     1      40.084  22.300  13.302  1.00  0.00     0.274 HD
ENDBRANCH  33  34
ENDBRANCH  32  33
ENDBRANCH  31  32
ENDBRANCH  30  31
ENDBRANCH   4  30
TORSDOF 11
ENDMDL
MODEL 3
REMARK VINA RESULT: -8.077939812      2.144      2.378
REMARK  11 active torsions:
REMARK  status: ('A' for Active; 'I' for Inactive)
REMARK    1  A    between atoms: N1_1  and  C1_4 
REMARK    2  A    between atoms: C2_7  and  S1_8 
REMARK    3  A    between atoms: S1_8  and  C3_9 
REMARK    4  A    between atoms: C3_9  and  C4_10 
REMARK    5  A    between atoms: C4_10  and  C5_11 
REMARK    6  A    between atoms: C5_11  and  N3_12 
REMARK    7  A    between atoms: C7_21  and  C8_22 
REMARK    8  A    between atoms: C8_22  and  C9_23 
REMARK    9  A    between atoms: C9_23  and  C10_24 
REMARK   10  A    between atoms: C12_29  and  O1_30 
REMARK   11  A    between atoms: C13_32  and  O2_33 
ROOT
HETATM    1  C1  UNL     1      43.363  28.850  17.096  1.00  0.00     0.132 A 
HETATM    2  N2  UNL     1      43.337  28.187  15.930  1.00  0.00    -0.321 N 
ATOM      3  H2  UNL     1      44.179  28.150  15.357  1.00  0.00     0.169 HD
HETATM    4  C2  UNL     1      42.222  27.571  15.503  1.00  0.00     0.147 A 
HETATM    5  N4  UNL     1      41.131  27.633  16.270  1.00  0.00    -0.321 N 
ATOM      6  H4  UNL     1      40.286  27.163  15.944  1.00  0.00     0.169 HD
HETATM    7  C6  UNL     1      41.081  28.278  17.449  1.00  0.00     0.140 A 
HETATM    8  N5  UNL     1      40.146  28.490  18.385  1.00  0.00    -0.327 N 
ATOM      9  H5  UNL     1      39.189  28.140  18.338  1.00  0.00     0.169 HD
HETATM   10  C7  UNL     1      40.646  29.234  19.409  1.00  0.00     0.107 A 
HETATM   11  N7  UNL     1      41.924  29.473  19.066  1.00  0.00    -0.336 N 
ATOM     12  H7  UNL     1      42.583  30.011  19.630  1.00  0.00     0.168 HD
HETATM   13  C14 UNL     1      42.218  28.910  17.888  1.00  0.00     0.122 A 
ENDROOT
BRANCH  10  14
HETATM   14  C8  UNL     1      39.945  29.671  20.609  1.00  0.00     0.046 C 
BRANCH  14  15
HETATM   15  C9  UNL     1      39.472  28.794  21.466  1.00  0.00     0.012 C 
BRANCH  15  16
HETATM   16  C10 UNL     1      38.125  28.214  21.408  1.00  0.00     0.239 C 
HETATM   17  N6  UNL     1      37.318  28.718  20.333  1.00  0.00    -0.063 N 
HETATM   18  C11 UNL     1      36.148  27.860  20.380  1.00  0.00     0.267 C 
ATOM     19  H62 UNL     1      37.117  29.717  20.381  1.00  0.00     0.278 HD
ATOM     20  H61 UNL     1      37.787  28.753  19.427  1.00  0.00     0.278 HD
HETATM   21  C12 UNL     1      36.597  26.530  20.913  1.00  0.00     0.174 C 
HETATM   22  C13 UNL     1      38.093  26.737  21.188  1.00  0.00     0.182 C 
BRANCH  21  23
HETATM   23  O1  UNL     1      36.019  26.338  22.187  1.00  0.00    -0.391 OA
ATOM     24  H1  UNL     1      36.672  25.954  22.760  1.00  0.00     0.210 HD
ENDBRANCH  21  23
BRANCH  22  25
HETATM   25  O2  UNL     1      38.744  26.350  20.021  1.00  0.00    -0.391 OA
ATOM     26  H2  UNL     1      39.542  25.862  20.188  1.00  0.00     0.210 HD
ENDBRANCH  22  25
ENDBRANCH  15  16
ENDBRANCH  14  15
ENDBRANCH  10  14
BRANCH   1  27
HETATM   27  N1  UNL     1      44.419  29.450  17.529  1.00  0.00    -0.383 N 
ATOM     28  H12 UNL     1      44.845  29.093  18.385  1.00  0.00     0.157 HD
ATOM     29  H11 UNL     1      44.829  30.252  17.051  1.00  0.00     0.157 HD
ENDBRANCH   1  27
BRANCH   4  30
HETATM   30  S1  UNL     1      42.279  26.711  13.939  1.00  0.00    -0.094 SA
BRANCH  30  31
HETATM   31  C3  UNL     1      42.907  27.842  12.698  1.00  0.00     0.084 C 
BRANCH  31  32
HETATM   32  C4  UNL     1      43.873  27.171  11.743  1.00  0.00     0.038 C 
BRANCH  32  33
HETATM   33  C5  UNL     1      43.222  26.063  10.970  1.00  0.00     0.230 C 
BRANCH  33  34
HETATM   34  N3  UNL     1      43.735  26.116   9.610  1.00  0.00    -0.079 N 
ATOM     35  H33 UNL     1      43.175  26.709   8.998  1.00  0.00     0.274 HD
ATOM     36  H32 UNL     1      44.610  26.635   9.535  1.00  0.00     0.274 HD
ATOM     37  H31 UNL     1      43.811  25.156   9.272  1.00  0.00     0.274 HD
ENDBRANCH  33  34
ENDBRANCH  32  33
ENDBRANCH  31  32
ENDBRANCH  30  31
ENDBRANCH   4  30
TORSDOF 11
ENDMDL
MODEL 4
REMARK VINA RESULT: -8.018258256      1.600      1.726
REMARK  11 active torsions:
REMARK  status: ('A' for Active; 'I' for Inactive)
REMARK    1  A    between atoms: N1_1  and  C1_4 
REMARK    2  A    between atoms: C2_7  and  S1_8 
REMARK    3  A    between atoms: S1_8  and  C3_9 
REMARK    4  A    between atoms: C3_9  and  C4_10 
REMARK    5  A    between atoms: C4_10  and  C5_11 
REMARK    6  A    between atoms: C5_11  and  N3_12 
REMARK    7  A    between atoms: C7_21  and  C8_22 
REMARK    8  A    between atoms: C8_22  and  C9_23 
REMARK    9  A    between atoms: C9_23  and  C10_24 
REMARK   10  A    between atoms: C12_29  and  O1_30 
REMARK   11  A    between atoms: C13_32  and  O2_33 
ROOT
HETATM    1  C1  UNL     1      43.617  28.582  17.135  1.00  0.00     0.132 A 
HETATM    2  N2  UNL     1      43.674  28.317  15.822  1.00  0.00    -0.321 N 
ATOM      3  H2  UNL     1      44.520  28.547  15.302  1.00  0.00     0.169 HD
HETATM    4  C2  UNL     1      42.638  27.753  15.178  1.00  0.00     0.147 A 
HETATM    5  N4  UNL     1      41.540  27.460  15.879  1.00  0.00    -0.321 N 
ATOM      6  H4  UNL     1      40.755  27.032  15.388  1.00  0.00     0.169 HD
HETATM    7  C6  UNL     1      41.409  27.697  17.197  1.00  0.00     0.140 A 
HETATM    8  N5  UNL     1      40.449  27.508  18.112  1.00  0.00    -0.327 N 
ATOM      9  H5  UNL     1      39.537  27.094  17.918  1.00  0.00     0.169 HD
HETATM   10  C7  UNL     1      40.855  27.944  19.336  1.00  0.00     0.107 A 
HETATM   11  N7  UNL     1      42.101  28.407  19.138  1.00  0.00    -0.336 N 
ATOM     12  H7  UNL     1      42.691  28.808  19.868  1.00  0.00     0.168 HD
HETATM   13  C14 UNL     1      42.465  28.273  17.858  1.00  0.00     0.122 A 
ENDROOT
BRANCH  10  14
HETATM   14  C8  UNL     1      40.099  27.910  20.581  1.00  0.00     0.046 C 
BRANCH  14  15
HETATM   15  C9  UNL     1      39.192  26.981  20.790  1.00  0.00     0.012 C 
BRANCH  15  16
HETATM   16  C10 UNL     1      38.002  27.151  21.631  1.00  0.00     0.239 C 
HETATM   17  N6  UNL     1      38.019  28.343  22.431  1.00  0.00    -0.063 N 
HETATM   18  C11 UNL     1      36.681  28.371  22.993  1.00  0.00     0.267 C 
ATOM     19  H62 UNL     1      38.771  28.386  23.118  1.00  0.00     0.278 HD
ATOM     20  H61 UNL     1      38.290  29.190  21.931  1.00  0.00     0.278 HD
HETATM   21  C12 UNL     1      35.771  27.702  22.004  1.00  0.00     0.174 C 
HETATM   22  C13 UNL     1      36.720  27.273  20.875  1.00  0.00     0.182 C 
BRANCH  21  23
HETATM   23  O1  UNL     1      35.309  26.491  22.565  1.00  0.00    -0.391 OA
ATOM     24  H1  UNL     1      34.391  26.387  22.344  1.00  0.00     0.210 HD
ENDBRANCH  21  23
BRANCH  22  25
HETATM   25  O2  UNL     1      36.723  28.330  19.970  1.00  0.00    -0.391 OA
ATOM     26  H2  UNL     1      37.320  29.026  20.217  1.00  0.00     0.210 HD
ENDBRANCH  22  25
ENDBRANCH  15  16
ENDBRANCH  14  15
ENDBRANCH  10  14
BRANCH   1  27
HETATM   27  N1  UNL     1      44.596  29.122  17.777  1.00  0.00    -0.383 N 
ATOM     28  H12 UNL     1      45.235  29.717  17.249  1.00  0.00     0.157 HD
ATOM     29  H11 UNL     1      44.746  28.973  18.775  1.00  0.00     0.157 HD
ENDBRANCH   1  27
BRANCH   4  30
HETATM   30  S1  UNL     1      42.804  27.435  13.428  1.00  0.00    -0.094 SA
BRANCH  30  31
HETATM   31  C3  UNL     1      41.765  26.034  13.012  1.00  0.00     0.084 C 
BRANCH  31  32
HETATM   32  C4  UNL     1      41.905  25.625  11.560  1.00  0.00     0.038 C 
BRANCH  32  33
HETATM   33  C5  UNL     1      43.287  25.880  11.033  1.00  0.00     0.230 C 
BRANCH  33  34
HETATM   34  N3  UNL     1      43.159  26.285   9.643  1.00  0.00    -0.079 N 
ATOM     35  H33 UNL     1      43.343  25.525   8.989  1.00  0.00     0.274 HD
ATOM     36  H32 UNL     1      42.193  26.467   9.369  1.00  0.00     0.274 HD
ATOM     37  H31 UNL     1      43.771  27.089   9.499  1.00  0.00     0.274 HD
ENDBRANCH  33  34
ENDBRANCH  32  33
ENDBRANCH  31  32
ENDBRANCH  30  31
ENDBRANCH   4  30
TORSDOF 11
ENDMDL
MODEL 5
REMARK VINA RESULT: -7.910965420      4.139      8.850
REMARK  11 active torsions:
REMARK  status: ('A' for Active; 'I' for Inactive)
REMARK    1  A    between atoms: N1_1  and  C1_4 
REMARK    2  A    between atoms: C2_7  and  S1_8 
REMARK    3  A    between atoms: S1_8  and  C3_9 
REMARK    4  A    between atoms: C3_9  and  C4_10 
REMARK    5  A    between atoms: C4_10  and  C5_11 
REMARK    6  A    between atoms: C5_11  and  N3_12 
REMARK    7  A    between atoms: C7_21  and  C8_22 
REMARK    8  A    between atoms: C8_22  and  C9_23 
REMARK    9  A    between atoms: C9_23  and  C10_24 
REMARK   10  A    between atoms: C12_29  and  O1_30 
REMARK   11  A    between atoms: C13_32  and  O2_33 
ROOT
HETATM    1  C1  UNL     1      40.879  28.845  20.297  1.00  0.00     0.132 A 
HETATM    2  N2  UNL     1      39.632  28.784  20.785  1.00  0.00    -0.321 N 
ATOM      3  H2  UNL     1      39.447  29.126  21.728  1.00  0.00     0.169 HD
HETATM    4  C2  UNL     1      38.621  28.280  20.057  1.00  0.00     0.147 A 
HETATM    5  N4  UNL     1      38.887  27.838  18.826  1.00  0.00    -0.321 N 
ATOM      6  H4  UNL     1      38.118  27.456  18.275  1.00  0.00     0.169 HD
HETATM    7  C6  UNL     1      40.111  27.866  18.269  1.00  0.00     0.140 A 
HETATM    8  N5  UNL     1      40.636  27.498  17.092  1.00  0.00    -0.327 N 
ATOM      9  H5  UNL     1      40.106  27.079  16.327  1.00  0.00     0.169 HD
HETATM   10  C7  UNL     1      41.971  27.758  17.055  1.00  0.00     0.107 A 
HETATM   11  N7  UNL     1      42.247  28.301  18.254  1.00  0.00    -0.336 N 
ATOM     12  H7  UNL     1      43.174  28.611  18.548  1.00  0.00     0.168 HD
HETATM   13  C14 UNL     1      41.146  28.379  19.010  1.00  0.00     0.122 A 
ENDROOT
BRANCH  10  14
HETATM   14  C8  UNL     1      42.891  27.504  15.955  1.00  0.00     0.046 C 
BRANCH  14  15
HETATM   15  C9  UNL     1      42.535  27.751  14.713  1.00  0.00     0.012 C 
BRANCH  15  16
HETATM   16  C10 UNL     1      42.546  26.761  13.630  1.00  0.00     0.239 C 
HETATM   17  N6  UNL     1      41.326  26.013  13.511  1.00  0.00    -0.063 N 
HETATM   18  C11 UNL     1      41.522  25.275  12.277  1.00  0.00     0.267 C 
ATOM     19  H62 UNL     1      41.097  25.438  14.321  1.00  0.00     0.278 HD
ATOM     20  H61 UNL     1      40.475  26.576  13.543  1.00  0.00     0.278 HD
HETATM   21  C12 UNL     1      42.413  26.106  11.400  1.00  0.00     0.174 C 
HETATM   22  C13 UNL     1      42.720  27.338  12.263  1.00  0.00     0.182 C 
BRANCH  21  23
HETATM   23  O1  UNL     1      43.653  25.445  11.263  1.00  0.00    -0.391 OA
ATOM     24  H1  UNL     1      44.140  25.859  10.561  1.00  0.00     0.210 HD
ENDBRANCH  21  23
BRANCH  22  25
HETATM   25  O2  UNL     1      41.740  28.272  11.941  1.00  0.00    -0.391 OA
ATOM     26  H2  UNL     1      41.912  28.721  11.122  1.00  0.00     0.210 HD
ENDBRANCH  22  25
ENDBRANCH  15  16
ENDBRANCH  14  15
ENDBRANCH  10  14
BRANCH   1  27
HETATM   27  N1  UNL     1      41.867  29.323  20.974  1.00  0.00    -0.383 N 
ATOM     28  H12 UNL     1      42.049  30.324  20.897  1.00  0.00     0.157 HD
ATOM     29  H11 UNL     1      42.456  28.741  21.569  1.00  0.00     0.157 HD
ENDBRANCH   1  27
BRANCH   4  30
HETATM   30  S1  UNL     1      36.992  28.240  20.788  1.00  0.00    -0.094 SA
BRANCH  30  31
HETATM   31  C3  UNL     1      37.172  27.930  22.545  1.00  0.00     0.084 C 
BRANCH  31  32
HETATM   32  C4  UNL     1      37.052  29.196  23.368  1.00  0.00     0.038 C 
BRANCH  32  33
HETATM   33  C5  UNL     1      36.740  28.906  24.806  1.00  0.00     0.230 C 
BRANCH  33  34
HETATM   34  N3  UNL     1      35.508  28.134  24.840  1.00  0.00    -0.079 N 
ATOM     35  H33 UNL     1      35.665  27.130  24.747  1.00  0.00     0.274 HD
ATOM     36  H32 UNL     1      35.076  28.117  25.764  1.00  0.00     0.274 HD
ATOM     37  H31 UNL     1      34.890  28.507  24.119  1.00  0.00     0.274 HD
ENDBRANCH  33  34
ENDBRANCH  32  33
ENDBRANCH  31  32
ENDBRANCH  30  31
ENDBRANCH   4  30
TORSDOF 11
ENDMDL
