MODEL 1
REMARK VINA RESULT: -7.854709742      0.000      0.000
REMARK  7 active torsions:
REMARK  status: ('A' for Active; 'I' for Inactive)
REMARK       I    between atoms: C1_4  and  N3_6 
REMARK    1  A    between atoms: N3_6  and  C2_8 
REMARK    2  A    between atoms: C2_8  and  C3_9 
REMARK    3  A    between atoms: C3_9  and  N4_10 
REMARK    4  A    between atoms: N4_10  and  C4_12 
REMARK    5  A    between atoms: C4_12  and  N5_13 
REMARK    6  A    between atoms: C6_19  and  N8_20 
REMARK    7  A    between atoms: N8_20  and  C7_22 
ROOT
HETATM    1  N5  UNL     1       2.290 -11.331   3.402  1.00  0.00    -0.242 N 
HETATM    2  N6  UNL     1       1.638 -10.236   3.734  1.00  0.00    -0.238 N 
ATOM      3  H6  UNL     1       0.686 -10.003   3.453  1.00  0.00     0.208 HD
HETATM    4  N7  UNL     1       2.431  -9.480   4.500  1.00  0.00    -0.294 N 
ATOM      5  H7  UNL     1       2.184  -8.575   4.901  1.00  0.00     0.187 HD
HETATM    6  C5  UNL     1       3.613 -10.114   4.655  1.00  0.00     0.159 A 
HETATM    7  C6  UNL     1       3.501 -11.301   3.942  1.00  0.00     0.157 A 
ENDROOT
BRANCH   1   8
HETATM    8  C4  UNL     1       1.786 -12.423   2.571  1.00  0.00     0.273 C 
BRANCH   8   9
HETATM    9  N4  UNL     1       2.269 -12.270   1.250  1.00  0.00    -0.383 N 
ATOM     10  H4  UNL     1       1.986 -11.467   0.690  1.00  0.00     0.160 HD
BRANCH   9  11
HETATM   11  C3  UNL     1       3.142 -13.233   0.714  1.00  0.00     0.076 C 
BRANCH  11  12
HETATM   12  C2  UNL     1       3.965 -12.871  -0.464  1.00  0.00     0.166 C 
BRANCH  12  13
HETATM   13  N3  UNL     1       5.359 -12.672  -0.262  1.00  0.00    -0.360 N 
HETATM   14  C1  UNL     1       5.943 -11.455   0.163  1.00  0.00     0.182 C 
HETATM   15  N1  UNL     1       5.235 -10.532   0.685  1.00  0.00    -0.374 N 
HETATM   16  N2  UNL     1       7.325 -11.269   0.006  1.00  0.00    -0.064 NA
ATOM     17  H12 UNL     1       5.656  -9.655   0.991  1.00  0.00     0.158 HD
ATOM     18  H11 UNL     1       4.230 -10.667   0.800  1.00  0.00     0.158 HD
ATOM     19  H3  UNL     1       5.982 -13.461  -0.434  1.00  0.00     0.162 HD
ENDBRANCH  12  13
ENDBRANCH  11  12
ENDBRANCH   9  11
ENDBRANCH   8   9
ENDBRANCH   1   8
BRANCH   7  20
HETATM   20  N8  UNL     1       4.415 -12.204   3.833  1.00  0.00    -0.172 N 
ATOM     21  H8  UNL     1       5.025 -12.190   3.016  1.00  0.00     0.186 HD
BRANCH  20  22
HETATM   22  C7  UNL     1       4.604 -13.221   4.811  1.00  0.00     0.699 A 
HETATM   23  N9  UNL     1       4.663 -12.997   6.146  1.00  0.00    -0.185 N 
HETATM   24  C8  UNL     1       4.852 -14.179   6.773  1.00  0.00     0.215 A 
ATOM     25  H9  UNL     1       4.578 -12.089   6.602  1.00  0.00     0.185 HD
HETATM   26  N10 UNL     1       4.910 -15.140   5.833  1.00  0.00    -0.281 N 
HETATM   27  N11 UNL     1       4.760 -14.545   4.665  1.00  0.00    -0.131 N 
ATOM     28  H10 UNL     1       5.045 -16.138   5.993  1.00  0.00     0.188 HD
ATOM     29  H11 UNL     1       4.762 -15.030   3.768  1.00  0.00     0.205 HD
ENDBRANCH  20  22
ENDBRANCH   7  20
TORSDOF 7
ENDMDL
MODEL 2
REMARK VINA RESULT: -7.837268834      1.427      3.964
REMARK  7 active torsions:
REMARK  status: ('A' for Active; 'I' for Inactive)
REMARK       I    between atoms: C1_4  and  N3_6 
REMARK    1  A    between atoms: N3_6  and  C2_8 
REMARK    2  A    between atoms: C2_8  and  C3_9 
REMARK    3  A    between atoms: C3_9  and  N4_10 
REMARK    4  A    between atoms: N4_10  and  C4_12 
REMARK    5  A    between atoms: C4_12  and  N5_13 
REMARK    6  A    between atoms: C6_19  and  N8_20 
REMARK    7  A    between atoms: N8_20  and  C7_22 
ROOT
HETATM    1  N5  UNL     1       4.447 -14.492   4.498  1.00  0.00    -0.242 N 
HETATM    2  N6  UNL     1       4.745 -15.012   5.671  1.00  0.00    -0.238 N 
ATOM      3  H6  UNL     1       4.918 -15.999   5.857  1.00  0.00     0.208 HD
HETATM    4  N7  UNL     1       4.782 -14.030   6.578  1.00  0.00    -0.294 N 
ATOM      5  H7  UNL     1       4.989 -14.145   7.571  1.00  0.00     0.187 HD
HETATM    6  C5  UNL     1       4.500 -12.862   5.962  1.00  0.00     0.159 A 
HETATM    7  C6  UNL     1       4.289 -13.182   4.626  1.00  0.00     0.157 A 
ENDROOT
BRANCH   1   8
HETATM    8  C4  UNL     1       4.306 -15.220   3.238  1.00  0.00     0.273 C 
BRANCH   8   9
HETATM    9  N4  UNL     1       5.402 -14.916   2.395  1.00  0.00    -0.383 N 
ATOM     10  H4  UNL     1       6.250 -14.507   2.785  1.00  0.00     0.160 HD
BRANCH   9  11
HETATM   11  C3  UNL     1       5.314 -15.182   1.018  1.00  0.00     0.076 C 
BRANCH  11  12
HETATM   12  C2  UNL     1       5.064 -14.055   0.089  1.00  0.00     0.166 C 
BRANCH  12  13
HETATM   13  N3  UNL     1       3.786 -13.431   0.134  1.00  0.00    -0.360 N 
HETATM   14  C1  UNL     1       3.572 -12.054   0.378  1.00  0.00     0.182 C 
HETATM   15  N1  UNL     1       4.524 -11.212   0.278  1.00  0.00    -0.374 N 
HETATM   16  N2  UNL     1       2.286 -11.616   0.732  1.00  0.00    -0.064 NA
ATOM     17  H12 UNL     1       4.370 -10.220   0.454  1.00  0.00     0.158 HD
ATOM     18  H11 UNL     1       5.458 -11.531   0.021  1.00  0.00     0.158 HD
ATOM     19  H3  UNL     1       2.966 -14.018  -0.021  1.00  0.00     0.162 HD
ENDBRANCH  12  13
ENDBRANCH  11  12
ENDBRANCH   9  11
ENDBRANCH   8   9
ENDBRANCH   1   8
BRANCH   7  20
HETATM   20  N8  UNL     1       3.995 -12.347   3.689  1.00  0.00    -0.172 N 
ATOM     21  H8  UNL     1       4.275 -12.564   2.732  1.00  0.00     0.186 HD
BRANCH  20  22
HETATM   22  C7  UNL     1       3.293 -11.134   3.938  1.00  0.00     0.699 A 
HETATM   23  N9  UNL     1       3.860 -10.013   4.448  1.00  0.00    -0.185 N 
HETATM   24  C8  UNL     1       2.908  -9.060   4.555  1.00  0.00     0.215 A 
ATOM     25  H9  UNL     1       4.840  -9.908   4.708  1.00  0.00     0.185 HD
HETATM   26  N10 UNL     1       1.750  -9.582   4.112  1.00  0.00    -0.281 N 
HETATM   27  N11 UNL     1       2.002 -10.824   3.748  1.00  0.00    -0.131 N 
ATOM     28  H10 UNL     1       0.849  -9.107   4.066  1.00  0.00     0.188 HD
ATOM     29  H11 UNL     1       1.306 -11.466   3.370  1.00  0.00     0.205 HD
ENDBRANCH  20  22
ENDBRANCH   7  20
TORSDOF 7
ENDMDL
MODEL 3
REMARK VINA RESULT: -7.831758059      2.171      5.164
REMARK  7 active torsions:
REMARK  status: ('A' for Active; 'I' for Inactive)
REMARK       I    between atoms: C1_4  and  N3_6 
REMARK    1  A    between atoms: N3_6  and  C2_8 
REMARK    2  A    between atoms: C2_8  and  C3_9 
REMARK    3  A    between atoms: C3_9  and  N4_10 
REMARK    4  A    between atoms: N4_10  and  C4_12 
REMARK    5  A    between atoms: C4_12  and  N5_13 
REMARK    6  A    between atoms: C6_19  and  N8_20 
REMARK    7  A    between atoms: N8_20  and  C7_22 
ROOT
HETATM    1  N5  UNL     1       4.011 -11.811   0.596  1.00  0.00    -0.242 N 
HETATM    2  N6  UNL     1       4.752 -10.727   0.697  1.00  0.00    -0.238 N 
ATOM      3  H6  UNL     1       4.434  -9.819   1.035  1.00  0.00     0.208 HD
HETATM    4  N7  UNL     1       5.991 -11.014   0.284  1.00  0.00    -0.294 N 
ATOM      5  H7  UNL     1       6.775 -10.362   0.255  1.00  0.00     0.187 HD
HETATM    6  C5  UNL     1       6.032 -12.312  -0.088  1.00  0.00     0.159 A 
HETATM    7  C6  UNL     1       4.750 -12.805   0.121  1.00  0.00     0.157 A 
ENDROOT
BRANCH   1   8
HETATM    8  C4  UNL     1       2.595 -11.930   0.943  1.00  0.00     0.273 C 
BRANCH   8   9
HETATM    9  N4  UNL     1       2.474 -12.510   2.228  1.00  0.00    -0.383 N 
ATOM     10  H4  UNL     1       2.463 -13.524   2.333  1.00  0.00     0.160 HD
BRANCH   9  11
HETATM   11  C3  UNL     1       2.368 -11.681   3.358  1.00  0.00     0.076 C 
BRANCH  11  12
HETATM   12  C2  UNL     1       3.610 -11.220   4.022  1.00  0.00     0.166 C 
BRANCH  12  13
HETATM   13  N3  UNL     1       3.888 -11.719   5.325  1.00  0.00    -0.360 N 
HETATM   14  C1  UNL     1       4.508 -12.962   5.594  1.00  0.00     0.182 C 
HETATM   15  N1  UNL     1       5.138 -13.594   4.684  1.00  0.00    -0.374 N 
HETATM   16  N2  UNL     1       4.427 -13.499   6.888  1.00  0.00    -0.064 NA
ATOM     17  H12 UNL     1       5.585 -14.490   4.877  1.00  0.00     0.158 HD
ATOM     18  H11 UNL     1       5.196 -13.204   3.743  1.00  0.00     0.158 HD
ATOM     19  H3  UNL     1       3.621 -11.141   6.122  1.00  0.00     0.162 HD
ENDBRANCH  12  13
ENDBRANCH  11  12
ENDBRANCH   9  11
ENDBRANCH   8   9
ENDBRANCH   1   8
BRANCH   7  20
HETATM   20  N8  UNL     1       4.360 -14.012  -0.107  1.00  0.00    -0.172 N 
ATOM     21  H8  UNL     1       3.392 -14.172  -0.385  1.00  0.00     0.186 HD
BRANCH  20  22
HETATM   22  C7  UNL     1       5.231 -15.132   0.014  1.00  0.00     0.699 A 
HETATM   23  N9  UNL     1       5.594 -15.695   1.192  1.00  0.00    -0.185 N 
HETATM   24  C8  UNL     1       6.426 -16.729   0.937  1.00  0.00     0.215 A 
ATOM     25  H9  UNL     1       5.291 -15.389   2.117  1.00  0.00     0.185 HD
HETATM   26  N10 UNL     1       6.581 -16.813  -0.396  1.00  0.00    -0.281 N 
HETATM   27  N11 UNL     1       5.858 -15.848  -0.930  1.00  0.00    -0.131 N 
ATOM     28  H10 UNL     1       7.150 -17.494  -0.899  1.00  0.00     0.188 HD
ATOM     29  H11 UNL     1       5.785 -15.670  -1.932  1.00  0.00     0.205 HD
ENDBRANCH  20  22
ENDBRANCH   7  20
TORSDOF 7
ENDMDL
MODEL 4
REMARK VINA RESULT: -7.730398612      1.071      3.525
REMARK  7 active torsions:
REMARK  status: ('A' for Active; 'I' for Inactive)
REMARK       I    between atoms: C1_4  and  N3_6 
REMARK    1  A    between atoms: N3_6  and  C2_8 
REMARK    2  A    between atoms: C2_8  and  C3_9 
REMARK    3  A    between atoms: C3_9  and  N4_10 
REMARK    4  A    between atoms: N4_10  and  C4_12 
REMARK    5  A    between atoms: C4_12  and  N5_13 
REMARK    6  A    between atoms: C6_19  and  N8_20 
REMARK    7  A    between atoms: N8_20  and  C7_22 
ROOT
HETATM    1  N5  UNL     1       4.582 -14.526   3.762  1.00  0.00    -0.242 N 
HETATM    2  N6  UNL     1       4.656 -15.380   4.761  1.00  0.00    -0.238 N 
ATOM      3  H6  UNL     1       4.696 -16.395   4.674  1.00  0.00     0.208 HD
HETATM    4  N7  UNL     1       4.673 -14.695   5.910  1.00  0.00    -0.294 N 
ATOM      5  H7  UNL     1       4.726 -15.101   6.844  1.00  0.00     0.187 HD
HETATM    6  C5  UNL     1       4.606 -13.377   5.627  1.00  0.00     0.159 A 
HETATM    7  C6  UNL     1       4.548 -13.291   4.241  1.00  0.00     0.157 A 
ENDROOT
BRANCH   1   8
HETATM    8  C4  UNL     1       4.540 -14.859   2.338  1.00  0.00     0.273 C 
BRANCH   8   9
HETATM    9  N4  UNL     1       3.425 -14.223   1.740  1.00  0.00    -0.383 N 
ATOM     10  H4  UNL     1       2.667 -13.865   2.320  1.00  0.00     0.160 HD
BRANCH   9  11
HETATM   11  C3  UNL     1       3.370 -14.089   0.342  1.00  0.00     0.076 C 
BRANCH  11  12
HETATM   12  C2  UNL     1       3.948 -12.875  -0.280  1.00  0.00     0.166 C 
BRANCH  12  13
HETATM   13  N3  UNL     1       5.348 -12.661  -0.139  1.00  0.00    -0.360 N 
HETATM   14  C1  UNL     1       5.940 -11.424   0.208  1.00  0.00     0.182 C 
HETATM   15  N1  UNL     1       5.248 -10.481   0.714  1.00  0.00    -0.374 N 
HETATM   16  N2  UNL     1       7.315 -11.241  -0.009  1.00  0.00    -0.064 NA
ATOM     17  H12 UNL     1       5.675  -9.589   0.964  1.00  0.00     0.158 HD
ATOM     18  H11 UNL     1       4.249 -10.614   0.872  1.00  0.00     0.158 HD
ATOM     19  H3  UNL     1       5.968 -13.455  -0.299  1.00  0.00     0.162 HD
ENDBRANCH  12  13
ENDBRANCH  11  12
ENDBRANCH   9  11
ENDBRANCH   8   9
ENDBRANCH   1   8
BRANCH   7  20
HETATM   20  N8  UNL     1       4.478 -12.201   3.556  1.00  0.00    -0.172 N 
ATOM     21  H8  UNL     1       5.150 -12.050   2.804  1.00  0.00     0.186 HD
BRANCH  20  22
HETATM   22  C7  UNL     1       3.497 -11.201   3.809  1.00  0.00     0.699 A 
HETATM   23  N9  UNL     1       3.722 -10.072   4.525  1.00  0.00    -0.185 N 
HETATM   24  C8  UNL     1       2.578  -9.354   4.568  1.00  0.00     0.215 A 
ATOM     25  H9  UNL     1       4.606  -9.810   4.960  1.00  0.00     0.185 HD
HETATM   26  N10 UNL     1       1.641 -10.031   3.879  1.00  0.00    -0.281 N 
HETATM   27  N11 UNL     1       2.211 -11.133   3.433  1.00  0.00    -0.131 N 
ATOM     28  H10 UNL     1       0.673  -9.745   3.730  1.00  0.00     0.188 HD
ATOM     29  H11 UNL     1       1.736 -11.843   2.875  1.00  0.00     0.205 HD
ENDBRANCH  20  22
ENDBRANCH   7  20
TORSDOF 7
ENDMDL
MODEL 5
REMARK VINA RESULT: -7.675115642      2.198      5.037
REMARK  7 active torsions:
REMARK  status: ('A' for Active; 'I' for Inactive)
REMARK       I    between atoms: C1_4  and  N3_6 
REMARK    1  A    between atoms: N3_6  and  C2_8 
REMARK    2  A    between atoms: C2_8  and  C3_9 
REMARK    3  A    between atoms: C3_9  and  N4_10 
REMARK    4  A    between atoms: N4_10  and  C4_12 
REMARK    5  A    between atoms: C4_12  and  N5_13 
REMARK    6  A    between atoms: C6_19  and  N8_20 
REMARK    7  A    between atoms: N8_20  and  C7_22 
ROOT
HETATM    1  N5  UNL     1       4.146 -12.158   0.066  1.00  0.00    -0.242 N 
HETATM    2  N6  UNL     1       4.575 -10.986   0.484  1.00  0.00    -0.238 N 
ATOM      3  H6  UNL     1       3.989 -10.229   0.833  1.00  0.00     0.208 HD
HETATM    4  N7  UNL     1       5.907 -10.953   0.375  1.00  0.00    -0.294 N 
ATOM      5  H7  UNL     1       6.506 -10.166   0.628  1.00  0.00     0.187 HD
HETATM    6  C5  UNL     1       6.329 -12.134  -0.125  1.00  0.00     0.159 A 
HETATM    7  C6  UNL     1       5.181 -12.894  -0.317  1.00  0.00     0.157 A 
ENDROOT
BRANCH   1   8
HETATM    8  C4  UNL     1       2.754 -12.606   0.017  1.00  0.00     0.273 C 
BRANCH   8   9
HETATM    9  N4  UNL     1       2.222 -12.626   1.329  1.00  0.00    -0.383 N 
ATOM     10  H4  UNL     1       1.285 -12.263   1.507  1.00  0.00     0.160 HD
BRANCH   9  11
HETATM   11  C3  UNL     1       2.990 -13.148   2.383  1.00  0.00     0.076 C 
BRANCH  11  12
HETATM   12  C2  UNL     1       3.203 -12.315   3.590  1.00  0.00     0.166 C 
BRANCH  12  13
HETATM   13  N3  UNL     1       2.769 -10.960   3.544  1.00  0.00    -0.360 N 
HETATM   14  C1  UNL     1       3.056  -9.991   4.534  1.00  0.00     0.182 C 
HETATM   15  N1  UNL     1       3.978 -10.181   5.393  1.00  0.00    -0.374 N 
HETATM   16  N2  UNL     1       2.311  -8.802   4.561  1.00  0.00    -0.064 NA
ATOM     17  H12 UNL     1       4.185  -9.482   6.107  1.00  0.00     0.158 HD
ATOM     18  H11 UNL     1       4.520 -11.045   5.374  1.00  0.00     0.158 HD
ATOM     19  H3  UNL     1       2.212 -10.667   2.741  1.00  0.00     0.162 HD
ENDBRANCH  12  13
ENDBRANCH  11  12
ENDBRANCH   9  11
ENDBRANCH   8   9
ENDBRANCH   1   8
BRANCH   7  20
HETATM   20  N8  UNL     1       5.141 -14.096  -0.780  1.00  0.00    -0.172 N 
ATOM     21  H8  UNL     1       4.741 -14.253  -1.705  1.00  0.00     0.186 HD
BRANCH  20  22
HETATM   22  C7  UNL     1       5.635 -15.214  -0.049  1.00  0.00     0.699 A 
HETATM   23  N9  UNL     1       6.383 -16.209  -0.584  1.00  0.00    -0.185 N 
HETATM   24  C8  UNL     1       6.673 -17.100   0.389  1.00  0.00     0.215 A 
ATOM     25  H9  UNL     1       6.677 -16.274  -1.559  1.00  0.00     0.185 HD
HETATM   26  N10 UNL     1       6.109 -16.664   1.529  1.00  0.00    -0.281 N 
HETATM   27  N11 UNL     1       5.492 -15.533   1.246  1.00  0.00    -0.131 N 
ATOM     28  H10 UNL     1       6.151 -17.120   2.440  1.00  0.00     0.188 HD
ATOM     29  H11 UNL     1       4.975 -14.974   1.923  1.00  0.00     0.205 HD
ENDBRANCH  20  22
ENDBRANCH   7  20
TORSDOF 7
ENDMDL
