MODEL 1
REMARK VINA RESULT: -6.829298183      0.000      0.000
REMARK  8 active torsions:
REMARK  status: ('A' for Active; 'I' for Inactive)
REMARK    1  A    between atoms: N1_2  and  C2_3 
REMARK    2  A    between atoms: N1_2  and  C10_26 
REMARK    3  A    between atoms: C2_3  and  C3_4 
REMARK    4  A    between atoms: C4_11  and  C5_12 
REMARK    5  A    between atoms: C5_12  and  C6_14 
REMARK    6  A    between atoms: C7_19  and  C8_20 
REMARK    7  A    between atoms: C9_23  and  O4_24 
REMARK    8  A    between atoms: C11_29  and  N8_30 
REMARK       I    between atoms: N8_30  and  C12_32 
REMARK       I    between atoms: C12_32  and  N9_33 
REMARK       I    between atoms: C12_32  and  N10_37 
ROOT
HETATM    1  C1  UNL     1      32.999  47.334   8.552  1.00  0.00     0.152 C 
HETATM    2  N1  UNL     1      33.504  46.459   7.476  1.00  0.00    -0.361 N 
ENDROOT
BRANCH   2   3
HETATM    3  C2  UNL     1      32.804  46.509   6.239  1.00  0.00     0.185 C 
BRANCH   3   4
HETATM    4  C3  UNL     1      32.157  45.219   5.881  1.00  0.00     0.077 A 
HETATM    5  N2  UNL     1      31.022  44.736   6.419  1.00  0.00    -0.286 N 
HETATM    6  N3  UNL     1      30.714  43.565   5.851  1.00  0.00    -0.242 N 
ATOM      7  H2  UNL     1      30.478  45.194   7.151  1.00  0.00     0.188 HD
HETATM    8  N4  UNL     1      31.625  43.276   4.957  1.00  0.00    -0.281 N 
ATOM      9  H3  UNL     1      29.901  42.992   6.078  1.00  0.00     0.208 HD
HETATM   10  C4  UNL     1      32.541  44.284   4.947  1.00  0.00     0.127 A 
ATOM     11  H4  UNL     1      31.645  42.442   4.369  1.00  0.00     0.188 HD
BRANCH  10  12
HETATM   12  C5  UNL     1      33.704  44.270   4.089  1.00  0.00     0.232 C 
HETATM   13  O1  UNL     1      34.793  43.912   4.661  1.00  0.00    -0.283 OA
BRANCH  12  14
HETATM   14  C6  UNL     1      33.737  44.618   2.691  1.00  0.00     0.136 A 
HETATM   15  N5  UNL     1      34.222  45.730   2.127  1.00  0.00    -0.294 N 
HETATM   16  N6  UNL     1      34.115  45.695   0.819  1.00  0.00    -0.292 N 
ATOM     17  H5  UNL     1      34.624  46.508   2.649  1.00  0.00     0.187 HD
HETATM   18  C7  UNL     1      33.539  44.533   0.439  1.00  0.00     0.161 A 
ATOM     19  H6  UNL     1      34.419  46.434   0.185  1.00  0.00     0.187 HD
HETATM   20  C9  UNL     1      33.298  43.847   1.607  1.00  0.00     0.133 A 
BRANCH  18  21
HETATM   21  C8  UNL     1      33.235  44.086  -0.913  1.00  0.00     0.231 C 
HETATM   22  O2  UNL     1      32.691  44.852  -1.757  1.00  0.00    -0.643 OA
HETATM   23  O3  UNL     1      33.528  42.803  -1.330  1.00  0.00    -0.643 OA
ENDBRANCH  18  21
BRANCH  20  24
HETATM   24  O4  UNL     1      32.727  42.605   1.804  1.00  0.00    -0.356 OA
ATOM     25  H4  UNL     1      32.551  42.027   1.071  1.00  0.00     0.218 HD
ENDBRANCH  20  24
ENDBRANCH  12  14
ENDBRANCH  10  12
ENDBRANCH   3   4
ENDBRANCH   2   3
BRANCH   2  26
HETATM   26  C10 UNL     1      34.632  45.681   7.791  1.00  0.00     0.188 C 
HETATM   27  N7  UNL     1      34.459  44.335   7.825  1.00  0.00    -0.171 N 
HETATM   28  C11 UNL     1      35.284  43.365   8.370  1.00  0.00     0.688 C 
ATOM     29  H7  UNL     1      33.603  43.991   7.389  1.00  0.00     0.186 HD
HETATM   30  N11 UNL     1      36.147  43.636   9.377  1.00  0.00    -0.137 N 
HETATM   31  C13 UNL     1      36.257  42.644  10.426  1.00  0.00     0.180 C 
HETATM   32  C14 UNL     1      36.913  44.741   9.513  1.00  0.00     0.343 C 
HETATM   33  O5  UNL     1      37.935  44.607  10.226  1.00  0.00    -0.246 OA
HETATM   34  N12 UNL     1      36.721  45.988   8.977  1.00  0.00    -0.272 N 
HETATM   35  C15 UNL     1      35.809  46.356   8.042  1.00  0.00     0.293 C 
ATOM     36  H12 UNL     1      37.336  46.726   9.322  1.00  0.00     0.174 HD
HETATM   37  O6  UNL     1      36.044  47.385   7.351  1.00  0.00    -0.264 OA
BRANCH  28  38
HETATM   38  N8  UNL     1      35.173  42.242   7.880  1.00  0.00    -0.173 N 
HETATM   39  C12 UNL     1      34.493  41.461   6.978  1.00  0.00     0.494 C 
HETATM   40  N9  UNL     1      33.953  40.212   7.598  1.00  0.00    -0.032 N 
HETATM   41  N10 UNL     1      35.324  40.955   5.891  1.00  0.00    -0.032 N 
ATOM     42  H93 UNL     1      34.693  39.682   8.060  1.00  0.00     0.278 HD
ATOM     43  H92 UNL     1      33.374  40.425   8.410  1.00  0.00     0.278 HD
ATOM     44  H91 UNL     1      33.448  39.632   6.929  1.00  0.00     0.278 HD
ATOM     45 3H10 UNL     1      35.799  41.723   5.414  1.00  0.00     0.278 HD
ATOM     46 2H10 UNL     1      36.133  40.456   6.259  1.00  0.00     0.278 HD
ATOM     47 1H10 UNL     1      34.819  40.376   5.221  1.00  0.00     0.278 HD
ATOM     48  H8  UNL     1      35.872  41.648   8.326  1.00  0.00     0.181 HD
ENDBRANCH  28  38
ENDBRANCH   2  26
TORSDOF 8
ENDMDL
MODEL 2
REMARK VINA RESULT: -6.799889949      9.971     14.085
REMARK  8 active torsions:
REMARK  status: ('A' for Active; 'I' for Inactive)
REMARK    1  A    between atoms: N1_2  and  C2_3 
REMARK    2  A    between atoms: N1_2  and  C10_26 
REMARK    3  A    between atoms: C2_3  and  C3_4 
REMARK    4  A    between atoms: C4_11  and  C5_12 
REMARK    5  A    between atoms: C5_12  and  C6_14 
REMARK    6  A    between atoms: C7_19  and  C8_20 
REMARK    7  A    between atoms: C9_23  and  O4_24 
REMARK    8  A    between atoms: C11_29  and  N8_30 
REMARK       I    between atoms: N8_30  and  C12_32 
REMARK       I    between atoms: C12_32  and  N9_33 
REMARK       I    between atoms: C12_32  and  N10_37 
ROOT
HETATM    1  C1  UNL     1      35.137  53.854   0.512  1.00  0.00     0.152 C 
HETATM    2  N1  UNL     1      36.512  54.119   0.045  1.00  0.00    -0.361 N 
ENDROOT
BRANCH   2   3
HETATM    3  C2  UNL     1      37.404  54.688   0.995  1.00  0.00     0.185 C 
BRANCH   3   4
HETATM    4  C3  UNL     1      38.718  53.995   1.050  1.00  0.00     0.077 A 
HETATM    5  N2  UNL     1      39.698  54.100   0.134  1.00  0.00    -0.286 N 
HETATM    6  N3  UNL     1      40.749  53.362   0.508  1.00  0.00    -0.242 N 
ATOM      7  H2  UNL     1      39.647  54.658  -0.718  1.00  0.00     0.188 HD
HETATM    8  N4  UNL     1      40.472  52.779   1.648  1.00  0.00    -0.281 N 
ATOM      9  H3  UNL     1      41.623  53.269  -0.009  1.00  0.00     0.208 HD
HETATM   10  C4  UNL     1      39.214  53.150   2.016  1.00  0.00     0.127 A 
ATOM     11  H4  UNL     1      41.090  52.156   2.168  1.00  0.00     0.188 HD
BRANCH  10  12
HETATM   12  C5  UNL     1      38.581  52.662   3.220  1.00  0.00     0.232 C 
HETATM   13  O1  UNL     1      37.533  51.949   3.028  1.00  0.00    -0.283 OA
BRANCH  12  14
HETATM   14  C6  UNL     1      39.015  52.905   4.572  1.00  0.00     0.136 A 
HETATM   15  N5  UNL     1      39.979  53.731   4.995  1.00  0.00    -0.294 N 
HETATM   16  N6  UNL     1      40.082  53.723   6.305  1.00  0.00    -0.292 N 
ATOM     17  H5  UNL     1      40.562  54.295   4.377  1.00  0.00     0.187 HD
HETATM   18  C7  UNL     1      39.173  52.873   6.828  1.00  0.00     0.161 A 
ATOM     19  H6  UNL     1      40.749  54.276   6.844  1.00  0.00     0.187 HD
HETATM   20  C9  UNL     1      38.496  52.353   5.750  1.00  0.00     0.133 A 
BRANCH  18  21
HETATM   21  C8  UNL     1      38.944  52.563   8.233  1.00  0.00     0.231 C 
HETATM   22  O2  UNL     1      38.295  51.540   8.588  1.00  0.00    -0.643 OA
HETATM   23  O3  UNL     1      39.428  53.377   9.238  1.00  0.00    -0.643 OA
ENDBRANCH  18  21
BRANCH  20  24
HETATM   24  O4  UNL     1      37.463  51.437   5.709  1.00  0.00    -0.356 OA
ATOM     25  H4  UNL     1      37.019  51.166   6.504  1.00  0.00     0.218 HD
ENDBRANCH  20  24
ENDBRANCH  12  14
ENDBRANCH  10  12
ENDBRANCH   3   4
ENDBRANCH   2   3
BRANCH   2  26
HETATM   26  C10 UNL     1      36.790  53.766  -1.287  1.00  0.00     0.188 C 
HETATM   27  N7  UNL     1      37.146  54.772  -2.126  1.00  0.00    -0.171 N 
HETATM   28  C11 UNL     1      37.195  54.775  -3.511  1.00  0.00     0.688 C 
ATOM     29  H7  UNL     1      37.415  55.647  -1.675  1.00  0.00     0.186 HD
HETATM   30  N11 UNL     1      36.434  53.942  -4.260  1.00  0.00    -0.137 N 
HETATM   31  C13 UNL     1      35.837  54.502  -5.454  1.00  0.00     0.180 C 
HETATM   32  C14 UNL     1      36.166  52.641  -4.007  1.00  0.00     0.343 C 
HETATM   33  O5  UNL     1      35.847  51.951  -5.003  1.00  0.00    -0.246 OA
HETATM   34  N12 UNL     1      36.195  51.978  -2.809  1.00  0.00    -0.272 N 
HETATM   35  C15 UNL     1      36.670  52.433  -1.621  1.00  0.00     0.293 C 
ATOM     36  H12 UNL     1      35.815  51.031  -2.809  1.00  0.00     0.174 HD
HETATM   37  O6  UNL     1      37.027  51.586  -0.757  1.00  0.00    -0.264 OA
BRANCH  28  38
HETATM   38  N8  UNL     1      37.971  55.589  -4.010  1.00  0.00    -0.173 N 
HETATM   39  C12 UNL     1      38.510  56.848  -3.912  1.00  0.00     0.494 C 
HETATM   40  N9  UNL     1      38.368  57.629  -5.180  1.00  0.00    -0.032 N 
HETATM   41  N10 UNL     1      39.950  56.856  -3.681  1.00  0.00    -0.032 N 
ATOM     42  H93 UNL     1      38.762  57.120  -5.971  1.00  0.00     0.278 HD
ATOM     43  H92 UNL     1      37.394  57.669  -5.480  1.00  0.00     0.278 HD
ATOM     44  H91 UNL     1      38.769  58.564  -5.107  1.00  0.00     0.278 HD
ATOM     45 3H10 UNL     1      40.186  56.300  -2.858  1.00  0.00     0.278 HD
ATOM     46 2H10 UNL     1      40.433  56.314  -4.397  1.00  0.00     0.278 HD
ATOM     47 1H10 UNL     1      40.351  57.791  -3.608  1.00  0.00     0.278 HD
ATOM     48  H8  UNL     1      38.381  55.148  -4.833  1.00  0.00     0.181 HD
ENDBRANCH  28  38
ENDBRANCH   2  26
TORSDOF 8
ENDMDL
MODEL 3
REMARK VINA RESULT: -6.650669034      2.301      3.560
REMARK  8 active torsions:
REMARK  status: ('A' for Active; 'I' for Inactive)
REMARK    1  A    between atoms: N1_2  and  C2_3 
REMARK    2  A    between atoms: N1_2  and  C10_26 
REMARK    3  A    between atoms: C2_3  and  C3_4 
REMARK    4  A    between atoms: C4_11  and  C5_12 
REMARK    5  A    between atoms: C5_12  and  C6_14 
REMARK    6  A    between atoms: C7_19  and  C8_20 
REMARK    7  A    between atoms: C9_23  and  O4_24 
REMARK    8  A    between atoms: C11_29  and  N8_30 
REMARK       I    between atoms: N8_30  and  C12_32 
REMARK       I    between atoms: C12_32  and  N9_33 
REMARK       I    between atoms: C12_32  and  N10_37 
ROOT
HETATM    1  C1  UNL     1      31.897  47.605   6.149  1.00  0.00     0.152 C 
HETATM    2  N1  UNL     1      32.731  46.654   5.390  1.00  0.00    -0.361 N 
ENDROOT
BRANCH   2   3
HETATM    3  C2  UNL     1      32.454  46.539   4.000  1.00  0.00     0.185 C 
BRANCH   3   4
HETATM    4  C3  UNL     1      33.674  46.334   3.176  1.00  0.00     0.077 A 
HETATM    5  N2  UNL     1      34.440  47.309   2.652  1.00  0.00    -0.286 N 
HETATM    6  N3  UNL     1      35.467  46.770   1.987  1.00  0.00    -0.242 N 
ATOM      7  H2  UNL     1      34.262  48.309   2.748  1.00  0.00     0.188 HD
HETATM    8  N4  UNL     1      35.386  45.466   2.067  1.00  0.00    -0.281 N 
ATOM      9  H3  UNL     1      36.196  47.291   1.499  1.00  0.00     0.208 HD
HETATM   10  C4  UNL     1      34.280  45.156   2.799  1.00  0.00     0.127 A 
ATOM     11  H4  UNL     1      36.037  44.798   1.652  1.00  0.00     0.188 HD
BRANCH  10  12
HETATM   12  C5  UNL     1      33.876  43.794   3.059  1.00  0.00     0.232 C 
HETATM   13  O1  UNL     1      34.761  43.070   3.638  1.00  0.00    -0.283 OA
BRANCH  12  14
HETATM   14  C6  UNL     1      32.606  43.201   2.727  1.00  0.00     0.136 A 
HETATM   15  N5  UNL     1      32.081  42.996   1.514  1.00  0.00    -0.294 N 
HETATM   16  N6  UNL     1      30.912  42.402   1.587  1.00  0.00    -0.292 N 
ATOM     17  H5  UNL     1      32.532  43.267   0.641  1.00  0.00     0.187 HD
HETATM   18  C7  UNL     1      30.594  42.179   2.881  1.00  0.00     0.161 A 
ATOM     19  H6  UNL     1      30.331  42.148   0.787  1.00  0.00     0.187 HD
HETATM   20  C9  UNL     1      31.650  42.676   3.607  1.00  0.00     0.133 A 
BRANCH  18  21
HETATM   21  C8  UNL     1      29.393  41.546   3.410  1.00  0.00     0.231 C 
HETATM   22  O2  UNL     1      28.271  41.681   2.848  1.00  0.00    -0.643 OA
HETATM   23  O3  UNL     1      29.432  40.771   4.552  1.00  0.00    -0.643 OA
ENDBRANCH  18  21
BRANCH  20  24
HETATM   24  O4  UNL     1      31.850  42.710   4.973  1.00  0.00    -0.356 OA
ATOM     25  H4  UNL     1      31.367  42.130   5.551  1.00  0.00     0.218 HD
ENDBRANCH  20  24
ENDBRANCH  12  14
ENDBRANCH  10  12
ENDBRANCH   3   4
ENDBRANCH   2   3
BRANCH   2  26
HETATM   26  C10 UNL     1      33.718  45.974   6.125  1.00  0.00     0.188 C 
HETATM   27  N7  UNL     1      33.568  44.632   6.259  1.00  0.00    -0.171 N 
HETATM   28  C11 UNL     1      34.198  43.768   7.140  1.00  0.00     0.688 C 
ATOM     29  H7  UNL     1      32.897  44.198   5.623  1.00  0.00     0.186 HD
HETATM   30  N11 UNL     1      34.697  44.188   8.327  1.00  0.00    -0.137 N 
HETATM   31  C13 UNL     1      34.492  43.317   9.465  1.00  0.00     0.180 C 
HETATM   32  C14 UNL     1      35.362  45.341   8.565  1.00  0.00     0.343 C 
HETATM   33  O5  UNL     1      36.112  45.337   9.569  1.00  0.00    -0.246 OA
HETATM   34  N12 UNL     1      35.324  46.513   7.856  1.00  0.00    -0.272 N 
HETATM   35  C15 UNL     1      34.744  46.734   6.649  1.00  0.00     0.293 C 
ATOM     36  H12 UNL     1      35.787  47.315   8.286  1.00  0.00     0.174 HD
HETATM   37  O6  UNL     1      35.165  47.696   5.951  1.00  0.00    -0.264 OA
BRANCH  28  38
HETATM   38  N8  UNL     1      34.267  42.596   6.773  1.00  0.00    -0.173 N 
HETATM   39  C12 UNL     1      34.876  41.382   6.969  1.00  0.00     0.494 C 
HETATM   40  N9  UNL     1      35.453  40.823   5.707  1.00  0.00    -0.032 N 
HETATM   41  N10 UNL     1      33.965  40.329   7.408  1.00  0.00    -0.032 N 
ATOM     42  H93 UNL     1      34.747  40.766   4.974  1.00  0.00     0.278 HD
ATOM     43  H92 UNL     1      36.091  41.487   5.269  1.00  0.00     0.278 HD
ATOM     44  H91 UNL     1      35.905  39.920   5.853  1.00  0.00     0.278 HD
ATOM     45 3H10 UNL     1      33.461  40.617   8.247  1.00  0.00     0.278 HD
ATOM     46 2H10 UNL     1      33.183  40.238   6.760  1.00  0.00     0.278 HD
ATOM     47 1H10 UNL     1      34.418  39.427   7.554  1.00  0.00     0.278 HD
ATOM     48  H8  UNL     1      33.599  42.480   6.011  1.00  0.00     0.181 HD
ENDBRANCH  28  38
ENDBRANCH   2  26
TORSDOF 8
ENDMDL
MODEL 4
REMARK VINA RESULT: -6.493915824     11.682     14.714
REMARK  8 active torsions:
REMARK  status: ('A' for Active; 'I' for Inactive)
REMARK    1  A    between atoms: N1_2  and  C2_3 
REMARK    2  A    between atoms: N1_2  and  C10_26 
REMARK    3  A    between atoms: C2_3  and  C3_4 
REMARK    4  A    between atoms: C4_11  and  C5_12 
REMARK    5  A    between atoms: C5_12  and  C6_14 
REMARK    6  A    between atoms: C7_19  and  C8_20 
REMARK    7  A    between atoms: C9_23  and  O4_24 
REMARK    8  A    between atoms: C11_29  and  N8_30 
REMARK       I    between atoms: N8_30  and  C12_32 
REMARK       I    between atoms: C12_32  and  N9_33 
REMARK       I    between atoms: C12_32  and  N10_37 
ROOT
HETATM    1  C1  UNL     1      37.432  52.119  -3.904  1.00  0.00     0.152 C 
HETATM    2  N1  UNL     1      36.406  52.832  -3.117  1.00  0.00    -0.361 N 
ENDROOT
BRANCH   2   3
HETATM    3  C2  UNL     1      35.219  53.198  -3.809  1.00  0.00     0.185 C 
BRANCH   3   4
HETATM    4  C3  UNL     1      35.483  53.844  -5.122  1.00  0.00     0.077 A 
HETATM    5  N2  UNL     1      35.373  53.249  -6.324  1.00  0.00    -0.286 N 
HETATM    6  N3  UNL     1      35.662  54.126  -7.291  1.00  0.00    -0.242 N 
ATOM      7  H2  UNL     1      35.110  52.275  -6.475  1.00  0.00     0.188 HD
HETATM    8  N4  UNL     1      35.959  55.278  -6.743  1.00  0.00    -0.281 N 
ATOM      9  H3  UNL     1      35.653  53.930  -8.292  1.00  0.00     0.208 HD
HETATM   10  C4  UNL     1      35.858  55.140  -5.392  1.00  0.00     0.127 A 
ATOM     11  H4  UNL     1      36.219  56.130  -7.241  1.00  0.00     0.188 HD
BRANCH  10  12
HETATM   12  C5  UNL     1      36.146  56.221  -4.476  1.00  0.00     0.232 C 
HETATM   13  O1  UNL     1      35.125  56.903  -4.108  1.00  0.00    -0.283 OA
BRANCH  12  14
HETATM   14  C6  UNL     1      37.443  56.584  -3.965  1.00  0.00     0.136 A 
HETATM   15  N5  UNL     1      38.615  55.976  -4.177  1.00  0.00    -0.294 N 
HETATM   16  N6  UNL     1      39.601  56.603  -3.576  1.00  0.00    -0.292 N 
ATOM     17  H5  UNL     1      38.730  55.131  -4.736  1.00  0.00     0.187 HD
HETATM   18  C7  UNL     1      39.122  57.681  -2.918  1.00  0.00     0.161 A 
ATOM     19  H6  UNL     1      40.580  56.318  -3.601  1.00  0.00     0.187 HD
HETATM   20  C9  UNL     1      37.767  57.680  -3.155  1.00  0.00     0.133 A 
BRANCH  18  21
HETATM   21  C8  UNL     1      39.867  58.649  -2.124  1.00  0.00     0.231 C 
HETATM   22  O2  UNL     1      39.316  59.313  -1.203  1.00  0.00    -0.643 OA
HETATM   23  O3  UNL     1      41.210  58.880  -2.347  1.00  0.00    -0.643 OA
ENDBRANCH  18  21
BRANCH  20  24
HETATM   24  O4  UNL     1      36.791  58.557  -2.724  1.00  0.00    -0.356 OA
ATOM     25  H4  UNL     1      37.019  59.345  -2.245  1.00  0.00     0.218 HD
ENDBRANCH  20  24
ENDBRANCH  12  14
ENDBRANCH  10  12
ENDBRANCH   3   4
ENDBRANCH   2   3
BRANCH   2  26
HETATM   26  C10 UNL     1      36.713  53.058  -1.764  1.00  0.00     0.188 C 
HETATM   27  N7  UNL     1      37.327  54.231  -1.463  1.00  0.00    -0.171 N 
HETATM   28  C11 UNL     1      37.990  54.595  -0.302  1.00  0.00     0.688 C 
ATOM     29  H7  UNL     1      37.295  54.945  -2.192  1.00  0.00     0.186 HD
HETATM   30  N11 UNL     1      38.553  53.679   0.522  1.00  0.00    -0.137 N 
HETATM   31  C13 UNL     1      39.847  54.012   1.078  1.00  0.00     0.180 C 
HETATM   32  C14 UNL     1      38.038  52.480   0.875  1.00  0.00     0.343 C 
HETATM   33  O5  UNL     1      38.463  52.004   1.953  1.00  0.00    -0.246 OA
HETATM   34  N12 UNL     1      37.114  51.716   0.212  1.00  0.00    -0.272 N 
HETATM   35  C15 UNL     1      36.370  52.067  -0.869  1.00  0.00     0.293 C 
ATOM     36  H12 UNL     1      36.967  50.773   0.572  1.00  0.00     0.174 HD
HETATM   37  O6  UNL     1      35.290  51.450  -1.076  1.00  0.00    -0.264 OA
BRANCH  28  38
HETATM   38  N8  UNL     1      38.036  55.803  -0.076  1.00  0.00    -0.173 N 
HETATM   39  C12 UNL     1      37.770  56.796   0.833  1.00  0.00     0.494 C 
HETATM   40  N9  UNL     1      36.940  57.896   0.251  1.00  0.00    -0.032 N 
HETATM   41  N10 UNL     1      38.959  57.497   1.306  1.00  0.00    -0.032 N 
ATOM     42  H93 UNL     1      37.372  58.275  -0.592  1.00  0.00     0.278 HD
ATOM     43  H92 UNL     1      36.079  57.530  -0.157  1.00  0.00     0.278 HD
ATOM     44  H91 UNL     1      36.742  58.634   0.926  1.00  0.00     0.278 HD
ATOM     45 3H10 UNL     1      39.639  56.837   1.685  1.00  0.00     0.278 HD
ATOM     46 2H10 UNL     1      39.495  57.865   0.520  1.00  0.00     0.278 HD
ATOM     47 1H10 UNL     1      38.761  58.235   1.982  1.00  0.00     0.278 HD
ATOM     48  H8  UNL     1      38.435  56.249  -0.902  1.00  0.00     0.181 HD
ENDBRANCH  28  38
ENDBRANCH   2  26
TORSDOF 8
ENDMDL
MODEL 5
REMARK VINA RESULT: -6.481008290      3.015      5.345
REMARK  8 active torsions:
REMARK  status: ('A' for Active; 'I' for Inactive)
REMARK    1  A    between atoms: N1_2  and  C2_3 
REMARK    2  A    between atoms: N1_2  and  C10_26 
REMARK    3  A    between atoms: C2_3  and  C3_4 
REMARK    4  A    between atoms: C4_11  and  C5_12 
REMARK    5  A    between atoms: C5_12  and  C6_14 
REMARK    6  A    between atoms: C7_19  and  C8_20 
REMARK    7  A    between atoms: C9_23  and  O4_24 
REMARK    8  A    between atoms: C11_29  and  N8_30 
REMARK       I    between atoms: N8_30  and  C12_32 
REMARK       I    between atoms: C12_32  and  N9_33 
REMARK       I    between atoms: C12_32  and  N10_37 
ROOT
HETATM    1  C1  UNL     1      30.437  44.159   2.723  1.00  0.00     0.152 C 
HETATM    2  N1  UNL     1      31.802  43.664   2.460  1.00  0.00    -0.361 N 
ENDROOT
BRANCH   2   3
HETATM    3  C2  UNL     1      31.934  42.685   1.437  1.00  0.00     0.185 C 
BRANCH   3   4
HETATM    4  C3  UNL     1      30.999  42.897   0.301  1.00  0.00     0.077 A 
HETATM    5  N2  UNL     1      29.738  42.433   0.226  1.00  0.00    -0.286 N 
HETATM    6  N3  UNL     1      29.178  42.828  -0.922  1.00  0.00    -0.242 N 
ATOM      7  H2  UNL     1      29.279  41.865   0.938  1.00  0.00     0.188 HD
HETATM    8  N4  UNL     1      30.047  43.537  -1.596  1.00  0.00    -0.281 N 
ATOM      9  H3  UNL     1      28.227  42.611  -1.223  1.00  0.00     0.208 HD
HETATM   10  C4  UNL     1      31.196  43.602  -0.865  1.00  0.00     0.127 A 
ATOM     11  H4  UNL     1      29.893  43.966  -2.508  1.00  0.00     0.188 HD
BRANCH  10  12
HETATM   12  C5  UNL     1      32.377  44.291  -1.332  1.00  0.00     0.232 C 
HETATM   13  O1  UNL     1      33.438  43.573  -1.376  1.00  0.00    -0.283 OA
BRANCH  12  14
HETATM   14  C6  UNL     1      32.457  45.671  -1.735  1.00  0.00     0.136 A 
HETATM   15  N5  UNL     1      32.677  46.745  -0.968  1.00  0.00    -0.294 N 
HETATM   16  N6  UNL     1      32.717  47.848  -1.680  1.00  0.00    -0.292 N 
ATOM     17  H5  UNL     1      32.799  46.711   0.044  1.00  0.00     0.187 HD
HETATM   18  C7  UNL     1      32.519  47.556  -2.984  1.00  0.00     0.161 A 
ATOM     19  H6  UNL     1      32.873  48.784  -1.305  1.00  0.00     0.187 HD
HETATM   20  C9  UNL     1      32.355  46.192  -3.032  1.00  0.00     0.133 A 
BRANCH  18  21
HETATM   21  C8  UNL     1      32.486  48.478  -4.112  1.00  0.00     0.231 C 
HETATM   22  O2  UNL     1      33.217  49.506  -4.147  1.00  0.00    -0.643 OA
HETATM   23  O3  UNL     1      31.651  48.265  -5.191  1.00  0.00    -0.643 OA
ENDBRANCH  18  21
BRANCH  20  24
HETATM   24  O4  UNL     1      32.124  45.363  -4.113  1.00  0.00    -0.356 OA
ATOM     25  H4  UNL     1      31.760  45.705  -4.921  1.00  0.00     0.218 HD
ENDBRANCH  20  24
ENDBRANCH  12  14
ENDBRANCH  10  12
ENDBRANCH   3   4
ENDBRANCH   2   3
BRANCH   2  26
HETATM   26  C10 UNL     1      32.825  44.227   3.243  1.00  0.00     0.188 C 
HETATM   27  N7  UNL     1      33.243  43.507   4.315  1.00  0.00    -0.171 N 
HETATM   28  C11 UNL     1      34.003  43.919   5.398  1.00  0.00     0.688 C 
ATOM     29  H7  UNL     1      32.959  42.527   4.325  1.00  0.00     0.186 HD
HETATM   30  N11 UNL     1      34.037  45.210   5.805  1.00  0.00    -0.137 N 
HETATM   31  C13 UNL     1      34.013  45.445   7.233  1.00  0.00     0.180 C 
HETATM   32  C14 UNL     1      34.083  46.308   5.016  1.00  0.00     0.343 C 
HETATM   33  O5  UNL     1      34.556  47.338   5.550  1.00  0.00    -0.246 OA
HETATM   34  N12 UNL     1      33.681  46.444   3.713  1.00  0.00    -0.272 N 
HETATM   35  C15 UNL     1      33.304  45.461   2.855  1.00  0.00     0.293 C 
ATOM     36  H12 UNL     1      33.663  47.395   3.344  1.00  0.00     0.174 HD
HETATM   37  O6  UNL     1      33.395  45.683   1.617  1.00  0.00    -0.264 OA
BRANCH  28  38
HETATM   38  N8  UNL     1      34.637  43.031   5.966  1.00  0.00    -0.173 N 
HETATM   39  C12 UNL     1      34.592  41.762   6.487  1.00  0.00     0.494 C 
HETATM   40  N9  UNL     1      35.076  41.708   7.901  1.00  0.00    -0.032 N 
HETATM   41  N10 UNL     1      35.464  40.812   5.805  1.00  0.00    -0.032 N 
ATOM     42  H93 UNL     1      36.011  42.107   7.985  1.00  0.00     0.278 HD
ATOM     43  H92 UNL     1      34.565  42.365   8.490  1.00  0.00     0.278 HD
ATOM     44  H91 UNL     1      35.042  40.765   8.288  1.00  0.00     0.278 HD
ATOM     45 3H10 UNL     1      35.266  40.797   4.804  1.00  0.00     0.278 HD
ATOM     46 2H10 UNL     1      36.424  41.157   5.784  1.00  0.00     0.278 HD
ATOM     47 1H10 UNL     1      35.431  39.870   6.191  1.00  0.00     0.278 HD
ATOM     48  H8  UNL     1      35.585  43.382   6.108  1.00  0.00     0.181 HD
ENDBRANCH  28  38
ENDBRANCH   2  26
TORSDOF 8
ENDMDL
