MODEL 1
REMARK VINA RESULT: -5.851017883      0.000      0.000
REMARK  4 active torsions:
REMARK  status: ('A' for Active; 'I' for Inactive)
REMARK    1  A    between atoms: C2_3  and  N2_4 
REMARK    2  A    between atoms: C2_3  and  C3_8 
REMARK    3  A    between atoms: C3_8  and  C4_9 
REMARK    4  A    between atoms: C4_9  and  C5_10 
ROOT
HETATM    1  N1  UNL     1      27.342   3.990  23.392  1.00  0.00    -0.195 NA
HETATM    2  C1  UNL     1      26.694   3.296  24.061  1.00  0.00     0.092 C 
HETATM    3  C2  UNL     1      25.871   2.400  24.888  1.00  0.00     0.289 C 
ENDROOT
BRANCH   3   4
HETATM    4  N2  UNL     1      26.668   1.332  25.385  1.00  0.00    -0.063 N 
ATOM      5  H23 UNL     1      27.293   0.957  24.672  1.00  0.00     0.275 HD
ATOM      6  H22 UNL     1      27.375   1.657  26.045  1.00  0.00     0.275 HD
ATOM      7  H21 UNL     1      26.070   0.611  25.789  1.00  0.00     0.275 HD
ENDBRANCH   3   4
BRANCH   3   8
HETATM    8  C3  UNL     1      24.597   2.033  24.211  1.00  0.00     0.048 C 
BRANCH   8   9
HETATM    9  C4  UNL     1      23.552   1.397  25.048  1.00  0.00     0.008 C 
BRANCH   9  10
HETATM   10  C5  UNL     1      23.662  -0.090  25.251  1.00  0.00    -0.012 C 
HETATM   11  C6  UNL     1      23.675  -0.378  26.721  1.00  0.00     0.024 C 
HETATM   12  C7  UNL     1      22.484  -1.179  27.178  1.00  0.00     0.114 C 
HETATM   13  N3  UNL     1      22.224  -2.344  26.402  1.00  0.00    -0.421 N 
HETATM   14  C8  UNL     1      22.251  -2.144  24.989  1.00  0.00     0.114 C 
ATOM     15  H3  UNL     1      22.033  -3.253  26.823  1.00  0.00     0.153 HD
HETATM   16  C9  UNL     1      22.454  -0.708  24.563  1.00  0.00     0.024 C 
ENDBRANCH   9  10
ENDBRANCH   8   9
ENDBRANCH   3   8
TORSDOF 4
ENDMDL
MODEL 2
REMARK VINA RESULT: -5.746341843      1.638      5.571
REMARK  4 active torsions:
REMARK  status: ('A' for Active; 'I' for Inactive)
REMARK    1  A    between atoms: C2_3  and  N2_4 
REMARK    2  A    between atoms: C2_3  and  C3_8 
REMARK    3  A    between atoms: C3_8  and  C4_9 
REMARK    4  A    between atoms: C4_9  and  C5_10 
ROOT
HETATM    1  N1  UNL     1      22.208  -2.445  29.428  1.00  0.00    -0.195 NA
HETATM    2  C1  UNL     1      22.200  -2.077  28.326  1.00  0.00     0.092 C 
HETATM    3  C2  UNL     1      22.217  -1.612  26.931  1.00  0.00     0.289 C 
ENDROOT
BRANCH   3   4
HETATM    4  N2  UNL     1      22.337  -2.724  26.052  1.00  0.00    -0.063 N 
ATOM      5  H23 UNL     1      23.041  -2.567  25.330  1.00  0.00     0.275 HD
ATOM      6  H22 UNL     1      22.771  -3.528  26.507  1.00  0.00     0.275 HD
ATOM      7  H21 UNL     1      21.426  -2.954  25.656  1.00  0.00     0.275 HD
ENDBRANCH   3   4
BRANCH   3   8
HETATM    8  C3  UNL     1      23.171  -0.487  26.730  1.00  0.00     0.048 C 
BRANCH   8   9
HETATM    9  C4  UNL     1      22.682   0.874  27.053  1.00  0.00     0.008 C 
BRANCH   9  10
HETATM   10  C5  UNL     1      22.962   1.951  26.040  1.00  0.00    -0.012 C 
HETATM   11  C6  UNL     1      24.001   2.877  26.592  1.00  0.00     0.024 C 
HETATM   12  C7  UNL     1      25.282   2.870  25.800  1.00  0.00     0.114 C 
HETATM   13  N3  UNL     1      25.107   3.030  24.395  1.00  0.00    -0.421 N 
HETATM   14  C8  UNL     1      24.091   2.210  23.818  1.00  0.00     0.114 C 
ATOM     15  H3  UNL     1      25.666   3.681  23.844  1.00  0.00     0.153 HD
HETATM   16  C9  UNL     1      23.444   1.243  24.782  1.00  0.00     0.024 C 
ENDBRANCH   9  10
ENDBRANCH   8   9
ENDBRANCH   3   8
TORSDOF 4
ENDMDL
MODEL 3
REMARK VINA RESULT: -5.711640986      1.532      5.597
REMARK  4 active torsions:
REMARK  status: ('A' for Active; 'I' for Inactive)
REMARK    1  A    between atoms: C2_3  and  N2_4 
REMARK    2  A    between atoms: C2_3  and  C3_8 
REMARK    3  A    between atoms: C3_8  and  C4_9 
REMARK    4  A    between atoms: C4_9  and  C5_10 
ROOT
HETATM    1  N1  UNL     1      22.313  -2.417  29.428  1.00  0.00    -0.195 NA
HETATM    2  C1  UNL     1      22.246  -2.115  28.308  1.00  0.00     0.092 C 
HETATM    3  C2  UNL     1      22.187  -1.733  26.889  1.00  0.00     0.289 C 
ENDROOT
BRANCH   3   4
HETATM    4  N2  UNL     1      22.336  -2.888  26.070  1.00  0.00    -0.063 N 
ATOM      5  H23 UNL     1      21.507  -3.481  26.092  1.00  0.00     0.275 HD
ATOM      6  H22 UNL     1      22.326  -2.656  25.077  1.00  0.00     0.275 HD
ATOM      7  H21 UNL     1      23.179  -3.396  26.337  1.00  0.00     0.275 HD
ENDBRANCH   3   4
BRANCH   3   8
HETATM    8  C3  UNL     1      23.071  -0.574  26.587  1.00  0.00     0.048 C 
BRANCH   8   9
HETATM    9  C4  UNL     1      23.483  -0.394  25.175  1.00  0.00     0.008 C 
BRANCH   9  10
HETATM   10  C5  UNL     1      23.997   0.967  24.790  1.00  0.00    -0.012 C 
HETATM   11  C6  UNL     1      23.266   2.003  25.587  1.00  0.00     0.024 C 
HETATM   12  C7  UNL     1      24.163   2.776  26.518  1.00  0.00     0.114 C 
HETATM   13  N3  UNL     1      25.340   3.295  25.906  1.00  0.00    -0.421 N 
HETATM   14  C8  UNL     1      26.053   2.367  25.089  1.00  0.00     0.114 C 
ATOM     15  H3  UNL     1      25.650   4.257  26.042  1.00  0.00     0.153 HD
HETATM   16  C9  UNL     1      25.488   0.966  25.093  1.00  0.00     0.024 C 
ENDBRANCH   9  10
ENDBRANCH   8   9
ENDBRANCH   3   8
TORSDOF 4
ENDMDL
MODEL 4
REMARK VINA RESULT: -5.653123789      0.451      1.484
REMARK  4 active torsions:
REMARK  status: ('A' for Active; 'I' for Inactive)
REMARK    1  A    between atoms: C2_3  and  N2_4 
REMARK    2  A    between atoms: C2_3  and  C3_8 
REMARK    3  A    between atoms: C3_8  and  C4_9 
REMARK    4  A    between atoms: C4_9  and  C5_10 
ROOT
HETATM    1  N1  UNL     1      27.180   3.921  23.393  1.00  0.00    -0.195 NA
HETATM    2  C1  UNL     1      26.643   3.252  24.176  1.00  0.00     0.092 C 
HETATM    3  C2  UNL     1      25.953   2.390  25.148  1.00  0.00     0.289 C 
ENDROOT
BRANCH   3   4
HETATM    4  N2  UNL     1      26.724   1.219  25.389  1.00  0.00    -0.063 N 
ATOM      5  H23 UNL     1      26.282   0.384  25.004  1.00  0.00     0.275 HD
ATOM      6  H22 UNL     1      27.580   1.203  24.834  1.00  0.00     0.275 HD
ATOM      7  H21 UNL     1      26.913   1.127  26.388  1.00  0.00     0.275 HD
ENDBRANCH   3   4
BRANCH   3   8
HETATM    8  C3  UNL     1      24.519   2.194  24.799  1.00  0.00     0.048 C 
BRANCH   8   9
HETATM    9  C4  UNL     1      24.079   0.806  24.525  1.00  0.00     0.008 C 
BRANCH   9  10
HETATM   10  C5  UNL     1      22.961   0.271  25.378  1.00  0.00    -0.012 C 
HETATM   11  C6  UNL     1      22.245  -0.804  24.619  1.00  0.00     0.024 C 
HETATM   12  C7  UNL     1      22.356  -2.160  25.266  1.00  0.00     0.114 C 
HETATM   13  N3  UNL     1      22.040  -2.177  26.655  1.00  0.00    -0.421 N 
HETATM   14  C8  UNL     1      22.652  -1.142  27.424  1.00  0.00     0.114 C 
ATOM     15  H3  UNL     1      21.424  -2.877  27.069  1.00  0.00     0.153 HD
HETATM   16  C9  UNL     1      23.606  -0.265  26.647  1.00  0.00     0.024 C 
ENDBRANCH   9  10
ENDBRANCH   8   9
ENDBRANCH   3   8
TORSDOF 4
ENDMDL
MODEL 5
REMARK VINA RESULT: -5.491934323      1.973      5.416
REMARK  4 active torsions:
REMARK  status: ('A' for Active; 'I' for Inactive)
REMARK    1  A    between atoms: C2_3  and  N2_4 
REMARK    2  A    between atoms: C2_3  and  C3_8 
REMARK    3  A    between atoms: C3_8  and  C4_9 
REMARK    4  A    between atoms: C4_9  and  C5_10 
ROOT
HETATM    1  N1  UNL     1      21.954  -2.419  29.428  1.00  0.00    -0.195 NA
HETATM    2  C1  UNL     1      22.568  -1.611  28.863  1.00  0.00     0.092 C 
HETATM    3  C2  UNL     1      23.326  -0.572  28.150  1.00  0.00     0.289 C 
ENDROOT
BRANCH   3   4
HETATM    4  N2  UNL     1      23.837   0.379  29.078  1.00  0.00    -0.063 N 
ATOM      5  H23 UNL     1      23.102   0.972  29.462  1.00  0.00     0.275 HD
ATOM      6  H22 UNL     1      24.142  -0.060  29.947  1.00  0.00     0.275 HD
ATOM      7  H21 UNL     1      24.581   0.923  28.642  1.00  0.00     0.275 HD
ENDBRANCH   3   4
BRANCH   3   8
HETATM    8  C3  UNL     1      22.573  -0.036  26.982  1.00  0.00     0.048 C 
BRANCH   8   9
HETATM    9  C4  UNL     1      23.129  -0.319  25.638  1.00  0.00     0.008 C 
BRANCH   9  10
HETATM   10  C5  UNL     1      23.864   0.805  24.960  1.00  0.00    -0.012 C 
HETATM   11  C6  UNL     1      23.323   2.108  25.461  1.00  0.00     0.024 C 
HETATM   12  C7  UNL     1      24.341   2.923  26.215  1.00  0.00     0.114 C 
HETATM   13  N3  UNL     1      25.587   3.077  25.542  1.00  0.00    -0.421 N 
HETATM   14  C8  UNL     1      26.129   1.876  24.994  1.00  0.00     0.114 C 
ATOM     15  H3  UNL     1      26.056   3.979  25.457  1.00  0.00     0.153 HD
HETATM   16  C9  UNL     1      25.335   0.630  25.310  1.00  0.00     0.024 C 
ENDBRANCH   9  10
ENDBRANCH   8   9
ENDBRANCH   3   8
TORSDOF 4
ENDMDL
