MODEL 1
REMARK VINA RESULT: -6.287840459      0.000      0.000
REMARK  13 active torsions:
REMARK  status: ('A' for Active; 'I' for Inactive)
REMARK    1  A    between atoms: N2_4  and  N3_6 
REMARK    2  A    between atoms: N3_6  and  C1_8 
REMARK    3  A    between atoms: C1_8  and  C2_9 
REMARK    4  A    between atoms: C1_8  and  C6_17 
REMARK    5  A    between atoms: C2_9  and  C3_10 
REMARK    6  A    between atoms: C3_10  and  C4_11 
REMARK    7  A    between atoms: C4_11  and  C5_12 
REMARK    8  A    between atoms: C5_12  and  N4_13 
REMARK    9  A    between atoms: C6_17  and  O1_18 
REMARK   10  A    between atoms: O1_18  and  C7_19 
REMARK   11  A    between atoms: C8_23  and  N6_24 
REMARK   12  A    between atoms: C13_34  and  C14_35 
REMARK   13  A    between atoms: C14_35  and  O5_36 
ROOT
HETATM    1  C7  UNL     1      55.319  13.239  13.620  1.00  0.00     0.357 C 
HETATM    2  N5  UNL     1      55.909  14.466  13.183  1.00  0.00    -0.001 N 
ATOM      3  H51 UNL     1      55.376  15.308  13.402  1.00  0.00     0.285 HD
ATOM      4  H52 UNL     1      55.906  14.615  12.173  1.00  0.00     0.285 HD
HETATM    5  C8  UNL     1      57.220  14.388  13.793  1.00  0.00     0.442 C 
HETATM    6  O4  UNL     1      57.548  13.025  13.818  1.00  0.00    -0.331 OA
HETATM    7  C13 UNL     1      56.535  12.339  13.197  1.00  0.00     0.206 C 
ENDROOT
BRANCH   1   8
HETATM    8  O1  UNL     1      55.233  13.247  14.989  1.00  0.00    -0.355 OA
BRANCH   8   9
HETATM    9  C6  UNL     1      54.098  12.851  15.579  1.00  0.00     0.197 C 
BRANCH   9  10
HETATM   10  C1  UNL     1      54.115  12.045  16.828  1.00  0.00     0.124 C 
BRANCH  10  11
HETATM   11  N3  UNL     1      55.370  11.789  17.433  1.00  0.00    -0.316 N 
ATOM     12  H3  UNL     1      55.533  10.863  17.828  1.00  0.00     0.182 HD
BRANCH  11  13
HETATM   13  N2  UNL     1      56.376  12.714  17.519  1.00  0.00    -0.253 N 
HETATM   14  N1  UNL     1      57.512  12.558  16.971  1.00  0.00    -0.331 N 
ATOM     15  H12 UNL     1      57.664  11.698  16.445  1.00  0.00     0.178 HD
ATOM     16  H11 UNL     1      58.261  13.246  17.035  1.00  0.00     0.178 HD
ATOM     17  H2  UNL     1      56.206  13.569  18.049  1.00  0.00     0.207 HD
ENDBRANCH  11  13
ENDBRANCH  10  11
BRANCH  10  18
HETATM   18  C2  UNL     1      53.447  10.709  16.445  1.00  0.00     0.029 C 
BRANCH  18  19
HETATM   19  C3  UNL     1      52.514  10.211  17.490  1.00  0.00     0.004 C 
BRANCH  19  20
HETATM   20  C4  UNL     1      51.562   9.221  16.870  1.00  0.00     0.027 C 
BRANCH  20  21
HETATM   21  C5  UNL     1      51.796   9.072  15.384  1.00  0.00     0.229 C 
BRANCH  21  22
HETATM   22  N4  UNL     1      51.484   7.710  14.963  1.00  0.00    -0.079 N 
ATOM     23  H43 UNL     1      50.668   7.677  14.353  1.00  0.00     0.274 HD
ATOM     24  H42 UNL     1      52.175   7.345  14.307  1.00  0.00     0.274 HD
ATOM     25  H41 UNL     1      51.376   7.108  15.779  1.00  0.00     0.274 HD
ENDBRANCH  21  22
ENDBRANCH  20  21
ENDBRANCH  19  20
ENDBRANCH  18  19
ENDBRANCH  10  18
ENDBRANCH   9  10
ENDBRANCH   8   9
ENDBRANCH   1   8
BRANCH   7  26
HETATM   26  C14 UNL     1      56.340  10.943  13.616  1.00  0.00     0.200 C 
BRANCH  26  27
HETATM   27  O5  UNL     1      56.804  10.795  14.915  1.00  0.00    -0.398 OA
ATOM     28  H5  UNL     1      57.658  10.380  14.891  1.00  0.00     0.209 HD
ENDBRANCH  26  27
ENDBRANCH   7  26
BRANCH   5  29
HETATM   29  N6  UNL     1      58.225  15.120  13.099  1.00  0.00    -0.259 N 
HETATM   30  C9  UNL     1      59.100  14.438  12.338  1.00  0.00     0.105 A 
HETATM   31  C10 UNL     1      60.108  15.050  11.628  1.00  0.00     0.092 A 
HETATM   32  C11 UNL     1      60.208  16.423  11.711  1.00  0.00     0.250 A 
HETATM   33  O2  UNL     1      61.107  17.076  11.090  1.00  0.00    -0.268 OA
HETATM   34  N7  UNL     1      59.312  17.079  12.484  1.00  0.00    -0.275 N 
HETATM   35  C12 UNL     1      58.338  16.444  13.167  1.00  0.00     0.332 A 
ATOM     36  H7  UNL     1      59.376  18.095  12.553  1.00  0.00     0.173 HD
HETATM   37  O3  UNL     1      57.521  17.075  13.876  1.00  0.00    -0.246 OA
ENDBRANCH   5  29
TORSDOF 13
ENDMDL
MODEL 2
REMARK VINA RESULT: -6.244639695      0.804      1.003
REMARK  13 active torsions:
REMARK  status: ('A' for Active; 'I' for Inactive)
REMARK    1  A    between atoms: N2_4  and  N3_6 
REMARK    2  A    between atoms: N3_6  and  C1_8 
REMARK    3  A    between atoms: C1_8  and  C2_9 
REMARK    4  A    between atoms: C1_8  and  C6_17 
REMARK    5  A    between atoms: C2_9  and  C3_10 
REMARK    6  A    between atoms: C3_10  and  C4_11 
REMARK    7  A    between atoms: C4_11  and  C5_12 
REMARK    8  A    between atoms: C5_12  and  N4_13 
REMARK    9  A    between atoms: C6_17  and  O1_18 
REMARK   10  A    between atoms: O1_18  and  C7_19 
REMARK   11  A    between atoms: C8_23  and  N6_24 
REMARK   12  A    between atoms: C13_34  and  C14_35 
REMARK   13  A    between atoms: C14_35  and  O5_36 
ROOT
HETATM    1  C7  UNL     1      55.316  13.099  13.465  1.00  0.00     0.357 C 
HETATM    2  N5  UNL     1      55.887  14.343  13.050  1.00  0.00    -0.001 N 
ATOM      3  H51 UNL     1      55.319  15.168  13.241  1.00  0.00     0.285 HD
ATOM      4  H52 UNL     1      55.926  14.489  12.041  1.00  0.00     0.285 HD
HETATM    5  C8  UNL     1      57.170  14.306  13.721  1.00  0.00     0.442 C 
HETATM    6  O4  UNL     1      57.539  12.955  13.767  1.00  0.00    -0.331 OA
HETATM    7  C13 UNL     1      56.578  12.236  13.102  1.00  0.00     0.206 C 
ENDROOT
BRANCH   1   8
HETATM    8  O1  UNL     1      55.166  13.107  14.828  1.00  0.00    -0.355 OA
BRANCH   8   9
HETATM    9  C6  UNL     1      54.009  12.699  15.365  1.00  0.00     0.197 C 
BRANCH   9  10
HETATM   10  C1  UNL     1      53.974  11.946  16.646  1.00  0.00     0.124 C 
BRANCH  10  11
HETATM   11  N3  UNL     1      55.208  11.661  17.281  1.00  0.00    -0.316 N 
ATOM     12  H3  UNL     1      55.370  10.710  17.611  1.00  0.00     0.182 HD
BRANCH  11  13
HETATM   13  N2  UNL     1      56.196  12.590  17.476  1.00  0.00    -0.253 N 
HETATM   14  N1  UNL     1      57.330  12.528  16.905  1.00  0.00    -0.331 N 
ATOM     15  H12 UNL     1      57.495  11.743  16.275  1.00  0.00     0.178 HD
ATOM     16  H11 UNL     1      58.066  13.219  17.050  1.00  0.00     0.178 HD
ATOM     17  H2  UNL     1      56.013  13.368  18.109  1.00  0.00     0.207 HD
ENDBRANCH  11  13
ENDBRANCH  10  11
BRANCH  10  18
HETATM   18  C2  UNL     1      53.254  10.625  16.308  1.00  0.00     0.029 C 
BRANCH  18  19
HETATM   19  C3  UNL     1      52.916  10.505  14.865  1.00  0.00     0.004 C 
BRANCH  19  20
HETATM   20  C4  UNL     1      52.517   9.083  14.568  1.00  0.00     0.027 C 
BRANCH  20  21
HETATM   21  C5  UNL     1      53.378   8.473  13.487  1.00  0.00     0.229 C 
BRANCH  21  22
HETATM   22  N4  UNL     1      53.252   7.020  13.507  1.00  0.00    -0.079 N 
ATOM     23  H43 UNL     1      53.240   6.651  14.458  1.00  0.00     0.274 HD
ATOM     24  H42 UNL     1      52.324   6.712  13.216  1.00  0.00     0.274 HD
ATOM     25  H41 UNL     1      53.990   6.597  12.944  1.00  0.00     0.274 HD
ENDBRANCH  21  22
ENDBRANCH  20  21
ENDBRANCH  19  20
ENDBRANCH  18  19
ENDBRANCH  10  18
ENDBRANCH   9  10
ENDBRANCH   8   9
ENDBRANCH   1   8
BRANCH   7  26
HETATM   26  C14 UNL     1      56.407  10.835  13.517  1.00  0.00     0.200 C 
BRANCH  26  27
HETATM   27  O5  UNL     1      56.779  10.713  14.847  1.00  0.00    -0.398 OA
ATOM     28  H5  UNL     1      57.323   9.940  14.944  1.00  0.00     0.209 HD
ENDBRANCH  26  27
ENDBRANCH   7  26
BRANCH   5  29
HETATM   29  N6  UNL     1      58.183  15.068  13.071  1.00  0.00    -0.259 N 
HETATM   30  C9  UNL     1      59.076  14.417  12.303  1.00  0.00     0.105 A 
HETATM   31  C10 UNL     1      60.093  15.060  11.633  1.00  0.00     0.092 A 
HETATM   32  C11 UNL     1      60.183  16.429  11.766  1.00  0.00     0.250 A 
HETATM   33  O2  UNL     1      61.090  17.108  11.184  1.00  0.00    -0.268 OA
HETATM   34  N7  UNL     1      59.269  17.054  12.545  1.00  0.00    -0.275 N 
HETATM   35  C12 UNL     1      58.287  16.390  13.187  1.00  0.00     0.332 A 
ATOM     36  H7  UNL     1      59.326  18.067  12.651  1.00  0.00     0.173 HD
HETATM   37  O3  UNL     1      57.453  16.991  13.903  1.00  0.00    -0.246 OA
ENDBRANCH   5  29
TORSDOF 13
ENDMDL
MODEL 3
REMARK VINA RESULT: -6.109428912      5.078      6.431
REMARK  13 active torsions:
REMARK  status: ('A' for Active; 'I' for Inactive)
REMARK    1  A    between atoms: N2_4  and  N3_6 
REMARK    2  A    between atoms: N3_6  and  C1_8 
REMARK    3  A    between atoms: C1_8  and  C2_9 
REMARK    4  A    between atoms: C1_8  and  C6_17 
REMARK    5  A    between atoms: C2_9  and  C3_10 
REMARK    6  A    between atoms: C3_10  and  C4_11 
REMARK    7  A    between atoms: C4_11  and  C5_12 
REMARK    8  A    between atoms: C5_12  and  N4_13 
REMARK    9  A    between atoms: C6_17  and  O1_18 
REMARK   10  A    between atoms: O1_18  and  C7_19 
REMARK   11  A    between atoms: C8_23  and  N6_24 
REMARK   12  A    between atoms: C13_34  and  C14_35 
REMARK   13  A    between atoms: C14_35  and  O5_36 
ROOT
HETATM    1  C7  UNL     1      54.826  15.092  17.569  1.00  0.00     0.357 C 
HETATM    2  N5  UNL     1      54.061  16.202  17.094  1.00  0.00    -0.001 N 
ATOM      3  H51 UNL     1      53.684  16.813  17.818  1.00  0.00     0.285 HD
ATOM      4  H52 UNL     1      53.154  15.965  16.692  1.00  0.00     0.285 HD
HETATM    5  C8  UNL     1      54.998  16.827  16.183  1.00  0.00     0.442 C 
HETATM    6  O4  UNL     1      55.762  15.782  15.645  1.00  0.00    -0.331 OA
HETATM    7  C13 UNL     1      55.268  14.603  16.143  1.00  0.00     0.206 C 
ENDROOT
BRANCH   1   8
HETATM    8  O1  UNL     1      55.931  15.561  18.234  1.00  0.00    -0.355 OA
BRANCH   8   9
HETATM    9  C6  UNL     1      56.116  15.226  19.518  1.00  0.00     0.197 C 
BRANCH   9  10
HETATM   10  C1  UNL     1      55.624  16.092  20.621  1.00  0.00     0.124 C 
BRANCH  10  11
HETATM   11  N3  UNL     1      56.203  17.377  20.763  1.00  0.00    -0.316 N 
ATOM     12  H3  UNL     1      56.640  17.611  21.654  1.00  0.00     0.182 HD
BRANCH  11  13
HETATM   13  N2  UNL     1      56.210  18.322  19.772  1.00  0.00    -0.253 N 
HETATM   14  N1  UNL     1      57.007  19.313  19.762  1.00  0.00    -0.331 N 
ATOM     15  H12 UNL     1      57.666  19.392  20.536  1.00  0.00     0.178 HD
ATOM     16  H11 UNL     1      57.011  20.017  19.024  1.00  0.00     0.178 HD
ATOM     17  H2  UNL     1      55.544  18.228  19.006  1.00  0.00     0.207 HD
ENDBRANCH  11  13
ENDBRANCH  10  11
BRANCH  10  18
HETATM   18  C2  UNL     1      55.871  15.274  21.905  1.00  0.00     0.029 C 
BRANCH  18  19
HETATM   19  C3  UNL     1      56.766  14.108  21.683  1.00  0.00     0.004 C 
BRANCH  19  20
HETATM   20  C4  UNL     1      56.568  13.113  22.797  1.00  0.00     0.027 C 
BRANCH  20  21
HETATM   21  C5  UNL     1      55.636  13.643  23.863  1.00  0.00     0.229 C 
BRANCH  21  22
HETATM   22  N4  UNL     1      55.018  12.535  24.582  1.00  0.00    -0.079 N 
ATOM     23  H43 UNL     1      54.160  12.219  24.132  1.00  0.00     0.274 HD
ATOM     24  H42 UNL     1      55.558  11.674  24.495  1.00  0.00     0.274 HD
ATOM     25  H41 UNL     1      54.865  12.793  25.557  1.00  0.00     0.274 HD
ENDBRANCH  21  22
ENDBRANCH  20  21
ENDBRANCH  19  20
ENDBRANCH  18  19
ENDBRANCH  10  18
ENDBRANCH   9  10
ENDBRANCH   8   9
ENDBRANCH   1   8
BRANCH   7  26
HETATM   26  C14 UNL     1      56.216  13.483  16.229  1.00  0.00     0.200 C 
BRANCH  26  27
HETATM   27  O5  UNL     1      55.844  12.660  17.281  1.00  0.00    -0.398 OA
ATOM     28  H5  UNL     1      55.876  11.756  16.991  1.00  0.00     0.209 HD
ENDBRANCH  26  27
ENDBRANCH   7  26
BRANCH   5  29
HETATM   29  N6  UNL     1      54.379  17.569  15.137  1.00  0.00    -0.259 N 
HETATM   30  C9  UNL     1      53.580  16.913  14.276  1.00  0.00     0.105 A 
HETATM   31  C10 UNL     1      52.936  17.537  13.232  1.00  0.00     0.092 A 
HETATM   32  C11 UNL     1      53.130  18.894  13.078  1.00  0.00     0.250 A 
HETATM   33  O2  UNL     1      52.576  19.555  12.141  1.00  0.00    -0.268 OA
HETATM   34  N7  UNL     1      53.939  19.524  13.961  1.00  0.00    -0.275 N 
HETATM   35  C12 UNL     1      54.554  18.878  14.972  1.00  0.00     0.332 A 
ATOM     36  H7  UNL     1      54.089  20.528  13.857  1.00  0.00     0.173 HD
HETATM   37  O3  UNL     1      55.298  19.485  15.777  1.00  0.00    -0.246 OA
ENDBRANCH   5  29
TORSDOF 13
ENDMDL
MODEL 4
REMARK VINA RESULT: -6.101466279      6.048      8.167
REMARK  13 active torsions:
REMARK  status: ('A' for Active; 'I' for Inactive)
REMARK    1  A    between atoms: N2_4  and  N3_6 
REMARK    2  A    between atoms: N3_6  and  C1_8 
REMARK    3  A    between atoms: C1_8  and  C2_9 
REMARK    4  A    between atoms: C1_8  and  C6_17 
REMARK    5  A    between atoms: C2_9  and  C3_10 
REMARK    6  A    between atoms: C3_10  and  C4_11 
REMARK    7  A    between atoms: C4_11  and  C5_12 
REMARK    8  A    between atoms: C5_12  and  N4_13 
REMARK    9  A    between atoms: C6_17  and  O1_18 
REMARK   10  A    between atoms: O1_18  and  C7_19 
REMARK   11  A    between atoms: C8_23  and  N6_24 
REMARK   12  A    between atoms: C13_34  and  C14_35 
REMARK   13  A    between atoms: C14_35  and  O5_36 
ROOT
HETATM    1  C7  UNL     1      54.699  16.953  18.102  1.00  0.00     0.357 C 
HETATM    2  N5  UNL     1      53.973  17.657  17.092  1.00  0.00    -0.001 N 
ATOM      3  H51 UNL     1      53.818  18.648  17.278  1.00  0.00     0.285 HD
ATOM      4  H52 UNL     1      52.983  17.421  17.022  1.00  0.00     0.285 HD
HETATM    5  C8  UNL     1      54.764  17.365  15.914  1.00  0.00     0.442 C 
HETATM    6  O4  UNL     1      55.289  16.081  16.116  1.00  0.00    -0.331 OA
HETATM    7  C13 UNL     1      54.786  15.605  17.300  1.00  0.00     0.206 C 
ENDROOT
BRANCH   1   8
HETATM    8  O1  UNL     1      55.959  17.486  18.203  1.00  0.00    -0.355 OA
BRANCH   8   9
HETATM    9  C6  UNL     1      56.388  17.939  19.388  1.00  0.00     0.197 C 
BRANCH   9  10
HETATM   10  C1  UNL     1      57.325  17.146  20.226  1.00  0.00     0.124 C 
BRANCH  10  11
HETATM   11  N3  UNL     1      56.779  16.383  21.287  1.00  0.00    -0.316 N 
ATOM     12  H3  UNL     1      57.400  15.753  21.795  1.00  0.00     0.182 HD
BRANCH  11  13
HETATM   13  N2  UNL     1      55.465  16.443  21.671  1.00  0.00    -0.253 N 
HETATM   14  N1  UNL     1      54.875  15.494  22.277  1.00  0.00    -0.331 N 
ATOM     15  H12 UNL     1      55.419  14.657  22.480  1.00  0.00     0.178 HD
ATOM     16  H11 UNL     1      53.897  15.539  22.562  1.00  0.00     0.178 HD
ATOM     17  H2  UNL     1      54.936  17.288  21.460  1.00  0.00     0.207 HD
ENDBRANCH  11  13
ENDBRANCH  10  11
BRANCH  10  18
HETATM   18  C2  UNL     1      58.319  18.179  20.795  1.00  0.00     0.029 C 
BRANCH  18  19
HETATM   19  C3  UNL     1      57.757  19.554  20.840  1.00  0.00     0.004 C 
BRANCH  19  20
HETATM   20  C4  UNL     1      58.339  20.287  22.021  1.00  0.00     0.027 C 
BRANCH  20  21
HETATM   21  C5  UNL     1      57.990  21.757  21.996  1.00  0.00     0.229 C 
BRANCH  21  22
HETATM   22  N4  UNL     1      56.598  21.947  22.391  1.00  0.00    -0.079 N 
ATOM     23  H43 UNL     1      56.000  22.158  21.592  1.00  0.00     0.274 HD
ATOM     24  H42 UNL     1      56.159  21.072  22.678  1.00  0.00     0.274 HD
ATOM     25  H41 UNL     1      56.534  22.663  23.114  1.00  0.00     0.274 HD
ENDBRANCH  21  22
ENDBRANCH  20  21
ENDBRANCH  19  20
ENDBRANCH  18  19
ENDBRANCH  10  18
ENDBRANCH   9  10
ENDBRANCH   8   9
ENDBRANCH   1   8
BRANCH   7  26
HETATM   26  C14 UNL     1      55.609  14.612  18.007  1.00  0.00     0.200 C 
BRANCH  26  27
HETATM   27  O5  UNL     1      55.246  14.598  19.345  1.00  0.00    -0.398 OA
ATOM     28  H5  UNL     1      55.506  13.767  19.725  1.00  0.00     0.209 HD
ENDBRANCH  26  27
ENDBRANCH   7  26
BRANCH   5  29
HETATM   29  N6  UNL     1      54.025  17.406  14.697  1.00  0.00    -0.259 N 
HETATM   30  C9  UNL     1      53.943  16.282  13.962  1.00  0.00     0.105 A 
HETATM   31  C10 UNL     1      53.254  16.216  12.773  1.00  0.00     0.092 A 
HETATM   32  C11 UNL     1      52.627  17.362  12.332  1.00  0.00     0.250 A 
HETATM   33  O2  UNL     1      51.967  17.396  11.243  1.00  0.00    -0.268 OA
HETATM   34  N7  UNL     1      52.727  18.475  13.094  1.00  0.00    -0.275 N 
HETATM   35  C12 UNL     1      53.413  18.501  14.255  1.00  0.00     0.332 A 
ATOM     36  H7  UNL     1      52.267  19.329  12.777  1.00  0.00     0.173 HD
HETATM   37  O3  UNL     1      53.491  19.546  14.942  1.00  0.00    -0.246 OA
ENDBRANCH   5  29
TORSDOF 13
ENDMDL
MODEL 5
REMARK VINA RESULT: -5.991420993      3.151      7.905
REMARK  13 active torsions:
REMARK  status: ('A' for Active; 'I' for Inactive)
REMARK    1  A    between atoms: N2_4  and  N3_6 
REMARK    2  A    between atoms: N3_6  and  C1_8 
REMARK    3  A    between atoms: C1_8  and  C2_9 
REMARK    4  A    between atoms: C1_8  and  C6_17 
REMARK    5  A    between atoms: C2_9  and  C3_10 
REMARK    6  A    between atoms: C3_10  and  C4_11 
REMARK    7  A    between atoms: C4_11  and  C5_12 
REMARK    8  A    between atoms: C5_12  and  N4_13 
REMARK    9  A    between atoms: C6_17  and  O1_18 
REMARK   10  A    between atoms: O1_18  and  C7_19 
REMARK   11  A    between atoms: C8_23  and  N6_24 
REMARK   12  A    between atoms: C13_34  and  C14_35 
REMARK   13  A    between atoms: C14_35  and  O5_36 
ROOT
HETATM    1  C7  UNL     1      54.005  12.375  13.399  1.00  0.00     0.357 C 
HETATM    2  N5  UNL     1      54.502  11.320  12.572  1.00  0.00    -0.001 N 
ATOM      3  H51 UNL     1      55.284  11.572  11.967  1.00  0.00     0.285 HD
ATOM      4  H52 UNL     1      53.885  11.035  11.812  1.00  0.00     0.285 HD
HETATM    5  C8  UNL     1      54.787  10.295  13.555  1.00  0.00     0.442 C 
HETATM    6  O4  UNL     1      53.833  10.462  14.568  1.00  0.00    -0.331 OA
HETATM    7  C13 UNL     1      52.987  11.471  14.184  1.00  0.00     0.206 C 
ENDROOT
BRANCH   1   8
HETATM    8  O1  UNL     1      54.995  12.772  14.262  1.00  0.00    -0.355 OA
BRANCH   8   9
HETATM    9  C6  UNL     1      55.735  13.848  13.964  1.00  0.00     0.197 C 
BRANCH   9  10
HETATM   10  C1  UNL     1      56.940  13.742  13.101  1.00  0.00     0.124 C 
BRANCH  10  11
HETATM   11  N3  UNL     1      57.854  12.693  13.366  1.00  0.00    -0.316 N 
ATOM     12  H3  UNL     1      58.404  12.740  14.223  1.00  0.00     0.182 HD
BRANCH  11  13
HETATM   13  N2  UNL     1      58.041  11.619  12.536  1.00  0.00    -0.253 N 
HETATM   14  N1  UNL     1      58.519  11.723  11.363  1.00  0.00    -0.331 N 
ATOM     15  H12 UNL     1      58.771  12.657  11.040  1.00  0.00     0.178 HD
ATOM     16  H11 UNL     1      58.659  10.924  10.745  1.00  0.00     0.178 HD
ATOM     17  H2  UNL     1      57.785  10.692  12.876  1.00  0.00     0.207 HD
ENDBRANCH  11  13
ENDBRANCH  10  11
BRANCH  10  18
HETATM   18  C2  UNL     1      57.657  15.099  13.257  1.00  0.00     0.029 C 
BRANCH  18  19
HETATM   19  C3  UNL     1      58.361  15.524  12.019  1.00  0.00     0.004 C 
BRANCH  19  20
HETATM   20  C4  UNL     1      59.849  15.447  12.244  1.00  0.00     0.027 C 
BRANCH  20  21
HETATM   21  C5  UNL     1      60.617  16.196  11.180  1.00  0.00     0.229 C 
BRANCH  21  22
HETATM   22  N4  UNL     1      61.677  15.350  10.641  1.00  0.00    -0.079 N 
ATOM     23  H43 UNL     1      62.576  15.831  10.620  1.00  0.00     0.274 HD
ATOM     24  H42 UNL     1      61.927  14.596  11.281  1.00  0.00     0.274 HD
ATOM     25  H41 UNL     1      61.411  14.999   9.721  1.00  0.00     0.274 HD
ENDBRANCH  21  22
ENDBRANCH  20  21
ENDBRANCH  19  20
ENDBRANCH  18  19
ENDBRANCH  10  18
ENDBRANCH   9  10
ENDBRANCH   8   9
ENDBRANCH   1   8
BRANCH   7  26
HETATM   26  C14 UNL     1      52.329  12.219  15.266  1.00  0.00     0.200 C 
BRANCH  26  27
HETATM   27  O5  UNL     1      53.154  12.214  16.381  1.00  0.00    -0.398 OA
ATOM     28  H5  UNL     1      52.648  11.941  17.137  1.00  0.00     0.209 HD
ENDBRANCH  26  27
ENDBRANCH   7  26
BRANCH   5  29
HETATM   29  N6  UNL     1      54.726   8.968  13.040  1.00  0.00    -0.259 N 
HETATM   30  C9  UNL     1      53.717   8.174  13.441  1.00  0.00     0.105 A 
HETATM   31  C10 UNL     1      53.568   6.877  13.003  1.00  0.00     0.092 A 
HETATM   32  C11 UNL     1      54.503   6.390  12.114  1.00  0.00     0.250 A 
HETATM   33  O2  UNL     1      54.446   5.203  11.655  1.00  0.00    -0.268 OA
HETATM   34  N7  UNL     1      55.504   7.214  11.729  1.00  0.00    -0.275 N 
HETATM   35  C12 UNL     1      55.618   8.479  12.181  1.00  0.00     0.332 A 
ATOM     36  H7  UNL     1      56.201   6.864  11.071  1.00  0.00     0.173 HD
HETATM   37  O3  UNL     1      56.556   9.223  11.810  1.00  0.00    -0.246 OA
ENDBRANCH   5  29
TORSDOF 13
ENDMDL
