MODEL 1
REMARK VINA RESULT: -9.760730381      0.000      0.000
REMARK  11 active torsions:
REMARK  status: ('A' for Active; 'I' for Inactive)
REMARK    1  A    between atoms: C2_2  and  N1_3 
REMARK    2  A    between atoms: N1_3  and  C3_4 
REMARK    3  A    between atoms: N1_3  and  C5_6 
REMARK    4  A    between atoms: C5_6  and  C6_7 
REMARK    5  A    between atoms: C7_8  and  C8_9 
REMARK    6  A    between atoms: C8_9  and  C9_10 
REMARK    7  A    between atoms: C9_10  and  C10_11 
REMARK    8  A    between atoms: C10_11  and  C11_12 
REMARK    9  A    between atoms: C11_12  and  C12_13 
REMARK   10  A    between atoms: C12_13  and  N2_14 
REMARK   11  A    between atoms: C24_27  and  O2_29 
ROOT
HETATM    1  N2  UNL     1      10.245  -4.286  46.584  1.00  0.00    -0.323 N 
HETATM    2  C13 UNL     1      11.319  -3.424  47.056  1.00  0.00     0.232 C 
HETATM    3  O1  UNL     1      12.506  -3.598  46.678  1.00  0.00    -0.272 OA
HETATM    4  C14 UNL     1      10.678  -2.492  47.926  1.00  0.00     0.113 C 
HETATM    5  C15 UNL     1      11.375  -1.721  48.921  1.00  0.00    -0.074 C 
HETATM    6  C16 UNL     1      12.840  -1.671  49.064  1.00  0.00     0.044 C 
HETATM    7  C17 UNL     1      10.705  -0.971  49.818  1.00  0.00    -0.023 C 
HETATM    8  C18 UNL     1       9.277  -0.724  50.050  1.00  0.00     0.028 C 
HETATM    9  C19 UNL     1       8.382  -1.277  48.965  1.00  0.00     0.016 C 
HETATM   10  C20 UNL     1       8.377  -2.749  48.839  1.00  0.00    -0.004 C 
HETATM   11  C21 UNL     1       7.614  -3.395  49.994  1.00  0.00     0.019 C 
HETATM   12  C22 UNL     1       9.729  -3.400  48.713  1.00  0.00     0.040 C 
HETATM   13  C23 UNL     1       9.226  -4.273  47.616  1.00  0.00     0.132 C 
HETATM   14  C24 UNL     1       8.072  -3.347  47.489  1.00  0.00     0.083 C 
HETATM   15  C25 UNL     1       6.766  -4.158  47.608  1.00  0.00     0.049 C 
ENDROOT
BRANCH   1  16
HETATM   16  C12 UNL     1      10.141  -5.057  45.392  1.00  0.00     0.067 C 
BRANCH  16  17
HETATM   17  C11 UNL     1       9.515  -6.354  45.286  1.00  0.00     0.045 C 
BRANCH  17  18
HETATM   18  C10 UNL     1       9.707  -7.201  44.095  1.00  0.00     0.006 C 
BRANCH  18  19
HETATM   19  C9  UNL     1      10.728  -6.783  43.102  1.00  0.00     0.012 C 
BRANCH  19  20
HETATM   20  C8  UNL     1      11.571  -8.032  42.773  1.00  0.00     0.094 C 
BRANCH  20  21
HETATM   21  C7  UNL     1      11.051  -8.645  41.555  1.00  0.00    -0.105 C 
HETATM   22  C6  UNL     1      10.629  -9.141  40.523  1.00  0.00    -0.076 C 
BRANCH  22  23
HETATM   23  C5  UNL     1      10.132  -9.767  39.322  1.00  0.00     0.365 C 
BRANCH  23  24
HETATM   24  N1  UNL     1      10.499  -8.990  38.159  1.00  0.00     0.098 N 
BRANCH  24  25
HETATM   25  C2  UNL     1      11.965  -8.725  38.371  1.00  0.00     0.269 C 
HETATM   26  C1  UNL     1      12.480  -7.964  37.167  1.00  0.00     0.037 C 
ENDBRANCH  24  25
BRANCH  24  27
HETATM   27  C3  UNL     1      10.509  -9.880  36.991  1.00  0.00     0.269 C 
HETATM   28  C4  UNL     1       9.163 -10.257  36.488  1.00  0.00     0.037 C 
ENDBRANCH  24  27
ENDBRANCH  23  24
ENDBRANCH  22  23
ENDBRANCH  20  21
ENDBRANCH  19  20
ENDBRANCH  18  19
ENDBRANCH  17  18
ENDBRANCH  16  17
ENDBRANCH   1  16
BRANCH  14  29
HETATM   29  O2  UNL     1       7.967  -2.516  46.420  1.00  0.00    -0.387 OA
ATOM     30  H2  UNL     1       7.203  -1.956  46.355  1.00  0.00     0.210 HD
ENDBRANCH  14  29
TORSDOF 11
ENDMDL
MODEL 2
REMARK VINA RESULT: -9.349488793      4.920     13.649
REMARK  11 active torsions:
REMARK  status: ('A' for Active; 'I' for Inactive)
REMARK    1  A    between atoms: C2_2  and  N1_3 
REMARK    2  A    between atoms: N1_3  and  C3_4 
REMARK    3  A    between atoms: N1_3  and  C5_6 
REMARK    4  A    between atoms: C5_6  and  C6_7 
REMARK    5  A    between atoms: C7_8  and  C8_9 
REMARK    6  A    between atoms: C8_9  and  C9_10 
REMARK    7  A    between atoms: C9_10  and  C10_11 
REMARK    8  A    between atoms: C10_11  and  C11_12 
REMARK    9  A    between atoms: C11_12  and  C12_13 
REMARK   10  A    between atoms: C12_13  and  N2_14 
REMARK   11  A    between atoms: C24_27  and  O2_29 
ROOT
HETATM    1  N2  UNL     1       8.878 -11.219  35.478  1.00  0.00    -0.323 N 
HETATM    2  C13 UNL     1       8.523 -12.603  35.200  1.00  0.00     0.232 C 
HETATM    3  O1  UNL     1       9.256 -13.552  35.579  1.00  0.00    -0.272 OA
HETATM    4  C14 UNL     1       7.287 -12.523  34.489  1.00  0.00     0.113 C 
HETATM    5  C15 UNL     1       6.769 -13.586  33.668  1.00  0.00    -0.074 C 
HETATM    6  C16 UNL     1       7.353 -14.935  33.584  1.00  0.00     0.044 C 
HETATM    7  C17 UNL     1       5.680 -13.404  32.898  1.00  0.00    -0.023 C 
HETATM    8  C18 UNL     1       4.795 -12.256  32.668  1.00  0.00     0.028 C 
HETATM    9  C19 UNL     1       5.045 -11.100  33.609  1.00  0.00     0.016 C 
HETATM   10  C20 UNL     1       6.363 -10.448  33.472  1.00  0.00    -0.004 C 
HETATM   11  C21 UNL     1       6.430  -9.608  32.197  1.00  0.00     0.019 C 
HETATM   12  C22 UNL     1       7.556 -11.365  33.524  1.00  0.00     0.040 C 
HETATM   13  C23 UNL     1       8.265 -10.421  34.433  1.00  0.00     0.132 C 
HETATM   14  C24 UNL     1       6.953  -9.773  34.685  1.00  0.00     0.083 C 
HETATM   15  C25 UNL     1       7.075  -8.266  34.382  1.00  0.00     0.049 C 
ENDROOT
BRANCH   1  16
HETATM   16  C12 UNL     1       9.686 -10.667  36.510  1.00  0.00     0.067 C 
BRANCH  16  17
HETATM   17  C11 UNL     1      10.330  -9.375  36.468  1.00  0.00     0.045 C 
BRANCH  17  18
HETATM   18  C10 UNL     1      11.687  -9.178  37.013  1.00  0.00     0.006 C 
BRANCH  18  19
HETATM   19  C9  UNL     1      11.821  -8.441  38.294  1.00  0.00     0.012 C 
BRANCH  19  20
HETATM   20  C8  UNL     1      10.846  -9.098  39.293  1.00  0.00     0.094 C 
BRANCH  20  21
HETATM   21  C7  UNL     1      11.159  -8.627  40.637  1.00  0.00    -0.105 C 
HETATM   22  C6  UNL     1      11.398  -8.228  41.766  1.00  0.00    -0.076 C 
BRANCH  22  23
HETATM   23  C5  UNL     1      11.712  -7.787  43.104  1.00  0.00     0.365 C 
BRANCH  23  24
HETATM   24  N1  UNL     1      10.781  -6.766  43.530  1.00  0.00     0.098 N 
BRANCH  24  25
HETATM   25  C2  UNL     1       9.734  -7.546  44.280  1.00  0.00     0.269 C 
HETATM   26  C1  UNL     1       8.542  -7.725  43.364  1.00  0.00     0.037 C 
ENDBRANCH  24  25
BRANCH  24  27
HETATM   27  C3  UNL     1      11.410  -5.982  44.599  1.00  0.00     0.269 C 
HETATM   28  C4  UNL     1      10.461  -5.220  45.449  1.00  0.00     0.037 C 
ENDBRANCH  24  27
ENDBRANCH  23  24
ENDBRANCH  22  23
ENDBRANCH  20  21
ENDBRANCH  19  20
ENDBRANCH  18  19
ENDBRANCH  17  18
ENDBRANCH  16  17
ENDBRANCH   1  16
BRANCH  14  29
HETATM   29  O2  UNL     1       6.326  -9.923  35.880  1.00  0.00    -0.387 OA
ATOM     30  H2  UNL     1       6.375  -9.214  36.510  1.00  0.00     0.210 HD
ENDBRANCH  14  29
TORSDOF 11
ENDMDL
MODEL 3
REMARK VINA RESULT: -9.135011680      4.355     13.200
REMARK  11 active torsions:
REMARK  status: ('A' for Active; 'I' for Inactive)
REMARK    1  A    between atoms: C2_2  and  N1_3 
REMARK    2  A    between atoms: N1_3  and  C3_4 
REMARK    3  A    between atoms: N1_3  and  C5_6 
REMARK    4  A    between atoms: C5_6  and  C6_7 
REMARK    5  A    between atoms: C7_8  and  C8_9 
REMARK    6  A    between atoms: C8_9  and  C9_10 
REMARK    7  A    between atoms: C9_10  and  C10_11 
REMARK    8  A    between atoms: C10_11  and  C11_12 
REMARK    9  A    between atoms: C11_12  and  C12_13 
REMARK   10  A    between atoms: C12_13  and  N2_14 
REMARK   11  A    between atoms: C24_27  and  O2_29 
ROOT
HETATM    1  N2  UNL     1       9.055 -11.016  36.771  1.00  0.00    -0.323 N 
HETATM    2  C13 UNL     1       8.883 -12.451  36.595  1.00  0.00     0.232 C 
HETATM    3  O1  UNL     1       9.552 -13.274  37.270  1.00  0.00    -0.272 OA
HETATM    4  C14 UNL     1       7.881 -12.573  35.584  1.00  0.00     0.113 C 
HETATM    5  C15 UNL     1       7.677 -13.766  34.805  1.00  0.00    -0.074 C 
HETATM    6  C16 UNL     1       8.354 -15.050  35.051  1.00  0.00     0.044 C 
HETATM    7  C17 UNL     1       6.824 -13.779  33.763  1.00  0.00    -0.023 C 
HETATM    8  C18 UNL     1       5.956 -12.758  33.165  1.00  0.00     0.028 C 
HETATM    9  C19 UNL     1       5.865 -11.487  33.978  1.00  0.00     0.016 C 
HETATM   10  C20 UNL     1       7.123 -10.724  34.101  1.00  0.00    -0.004 C 
HETATM   11  C21 UNL     1       7.471 -10.025  32.789  1.00  0.00     0.019 C 
HETATM   12  C22 UNL     1       8.319 -11.505  34.579  1.00  0.00     0.040 C 
HETATM   13  C23 UNL     1       8.691 -10.402  35.508  1.00  0.00     0.132 C 
HETATM   14  C24 UNL     1       7.318  -9.866  35.326  1.00  0.00     0.083 C 
HETATM   15  C25 UNL     1       7.413  -8.396  34.871  1.00  0.00     0.049 C 
ENDROOT
BRANCH   1  16
HETATM   16  C12 UNL     1       9.517 -10.277  37.895  1.00  0.00     0.067 C 
BRANCH  16  17
HETATM   17  C11 UNL     1      10.641  -9.370  37.896  1.00  0.00     0.045 C 
BRANCH  17  18
HETATM   18  C10 UNL     1      11.205  -8.852  39.157  1.00  0.00     0.006 C 
BRANCH  18  19
HETATM   19  C9  UNL     1      10.486  -9.160  40.418  1.00  0.00     0.012 C 
BRANCH  19  20
HETATM   20  C8  UNL     1      11.453  -8.837  41.575  1.00  0.00     0.094 C 
BRANCH  20  21
HETATM   21  C7  UNL     1      10.896  -7.743  42.364  1.00  0.00    -0.105 C 
HETATM   22  C6  UNL     1      10.417  -6.845  43.037  1.00  0.00    -0.076 C 
BRANCH  22  23
HETATM   23  C5  UNL     1       9.889  -5.761  43.831  1.00  0.00     0.365 C 
BRANCH  23  24
HETATM   24  N1  UNL     1      10.380  -5.845  45.188  1.00  0.00     0.098 N 
BRANCH  24  25
HETATM   25  C2  UNL     1       9.913  -4.553  45.803  1.00  0.00     0.269 C 
HETATM   26  C1  UNL     1      11.094  -3.920  46.509  1.00  0.00     0.037 C 
ENDBRANCH  24  25
BRANCH  24  27
HETATM   27  C3  UNL     1       9.578  -6.841  45.910  1.00  0.00     0.269 C 
HETATM   28  C4  UNL     1       8.262  -6.347  46.388  1.00  0.00     0.037 C 
ENDBRANCH  24  27
ENDBRANCH  23  24
ENDBRANCH  22  23
ENDBRANCH  20  21
ENDBRANCH  19  20
ENDBRANCH  18  19
ENDBRANCH  17  18
ENDBRANCH  16  17
ENDBRANCH   1  16
BRANCH  14  29
HETATM   29  O2  UNL     1       6.406  -9.949  36.329  1.00  0.00    -0.387 OA
ATOM     30  H2  UNL     1       5.786 -10.668  36.318  1.00  0.00     0.210 HD
ENDBRANCH  14  29
TORSDOF 11
ENDMDL
MODEL 4
REMARK VINA RESULT: -9.005881545      6.074     14.471
REMARK  11 active torsions:
REMARK  status: ('A' for Active; 'I' for Inactive)
REMARK    1  A    between atoms: C2_2  and  N1_3 
REMARK    2  A    between atoms: N1_3  and  C3_4 
REMARK    3  A    between atoms: N1_3  and  C5_6 
REMARK    4  A    between atoms: C5_6  and  C6_7 
REMARK    5  A    between atoms: C7_8  and  C8_9 
REMARK    6  A    between atoms: C8_9  and  C9_10 
REMARK    7  A    between atoms: C9_10  and  C10_11 
REMARK    8  A    between atoms: C10_11  and  C11_12 
REMARK    9  A    between atoms: C11_12  and  C12_13 
REMARK   10  A    between atoms: C12_13  and  N2_14 
REMARK   11  A    between atoms: C24_27  and  O2_29 
ROOT
HETATM    1  N2  UNL     1       8.398 -12.256  35.519  1.00  0.00    -0.323 N 
HETATM    2  C13 UNL     1       8.868 -13.527  36.051  1.00  0.00     0.232 C 
HETATM    3  O1  UNL     1       9.534 -13.579  37.117  1.00  0.00    -0.272 OA
HETATM    4  C14 UNL     1       8.397 -14.503  35.122  1.00  0.00     0.113 C 
HETATM    5  C15 UNL     1       8.948 -15.829  35.011  1.00  0.00    -0.074 C 
HETATM    6  C16 UNL     1       9.945 -16.398  35.933  1.00  0.00     0.044 C 
HETATM    7  C17 UNL     1       8.574 -16.658  34.018  1.00  0.00    -0.023 C 
HETATM    8  C18 UNL     1       7.634 -16.521  32.899  1.00  0.00     0.028 C 
HETATM    9  C19 UNL     1       6.787 -15.271  32.967  1.00  0.00     0.016 C 
HETATM   10  C20 UNL     1       7.528 -13.999  32.845  1.00  0.00    -0.004 C 
HETATM   11  C21 UNL     1       7.997 -13.773  31.409  1.00  0.00     0.019 C 
HETATM   12  C22 UNL     1       8.696 -13.829  33.781  1.00  0.00     0.040 C 
HETATM   13  C23 UNL     1       8.272 -12.434  34.085  1.00  0.00     0.132 C 
HETATM   14  C24 UNL     1       6.948 -12.772  33.504  1.00  0.00     0.083 C 
HETATM   15  C25 UNL     1       6.611 -11.750  32.400  1.00  0.00     0.049 C 
ENDROOT
BRANCH   1  16
HETATM   16  C12 UNL     1       8.127 -11.026  36.180  1.00  0.00     0.067 C 
BRANCH  16  17
HETATM   17  C11 UNL     1       9.042  -9.914  36.289  1.00  0.00     0.045 C 
BRANCH  17  18
HETATM   18  C10 UNL     1      10.036  -9.845  37.376  1.00  0.00     0.006 C 
BRANCH  18  19
HETATM   19  C9  UNL     1      11.437  -9.513  37.017  1.00  0.00     0.012 C 
BRANCH  19  20
HETATM   20  C8  UNL     1      11.822  -8.258  37.827  1.00  0.00     0.094 C 
BRANCH  20  21
HETATM   21  C7  UNL     1      11.509  -8.490  39.233  1.00  0.00    -0.105 C 
HETATM   22  C6  UNL     1      11.232  -8.664  40.409  1.00  0.00    -0.076 C 
BRANCH  22  23
HETATM   23  C5  UNL     1      10.906  -8.914  41.792  1.00  0.00     0.365 C 
BRANCH  23  24
HETATM   24  N1  UNL     1      10.889  -7.675  42.538  1.00  0.00     0.098 N 
BRANCH  24  25
HETATM   25  C2  UNL     1       9.900  -7.951  43.639  1.00  0.00     0.269 C 
HETATM   26  C1  UNL     1       8.518  -8.003  43.023  1.00  0.00     0.037 C 
ENDBRANCH  24  25
BRANCH  24  27
HETATM   27  C3  UNL     1      12.153  -7.560  43.276  1.00  0.00     0.269 C 
HETATM   28  C4  UNL     1      12.075  -6.742  44.513  1.00  0.00     0.037 C 
ENDBRANCH  24  27
ENDBRANCH  23  24
ENDBRANCH  22  23
ENDBRANCH  20  21
ENDBRANCH  19  20
ENDBRANCH  18  19
ENDBRANCH  17  18
ENDBRANCH  16  17
ENDBRANCH   1  16
BRANCH  14  29
HETATM   29  O2  UNL     1       5.861 -12.918  34.303  1.00  0.00    -0.387 OA
ATOM     30  H2  UNL     1       5.767 -12.342  35.052  1.00  0.00     0.210 HD
ENDBRANCH  14  29
TORSDOF 11
ENDMDL
MODEL 5
REMARK VINA RESULT: -8.994842482      5.935     13.922
REMARK  11 active torsions:
REMARK  status: ('A' for Active; 'I' for Inactive)
REMARK    1  A    between atoms: C2_2  and  N1_3 
REMARK    2  A    between atoms: N1_3  and  C3_4 
REMARK    3  A    between atoms: N1_3  and  C5_6 
REMARK    4  A    between atoms: C5_6  and  C6_7 
REMARK    5  A    between atoms: C7_8  and  C8_9 
REMARK    6  A    between atoms: C8_9  and  C9_10 
REMARK    7  A    between atoms: C9_10  and  C10_11 
REMARK    8  A    between atoms: C10_11  and  C11_12 
REMARK    9  A    between atoms: C11_12  and  C12_13 
REMARK   10  A    between atoms: C12_13  and  N2_14 
REMARK   11  A    between atoms: C24_27  and  O2_29 
ROOT
HETATM    1  N2  UNL     1       8.536 -11.549  34.922  1.00  0.00    -0.323 N 
HETATM    2  C13 UNL     1       8.051 -12.765  34.286  1.00  0.00     0.232 C 
HETATM    3  O1  UNL     1       8.641 -13.864  34.449  1.00  0.00    -0.272 OA
HETATM    4  C14 UNL     1       6.895 -12.354  33.556  1.00  0.00     0.113 C 
HETATM    5  C15 UNL     1       6.330 -13.108  32.468  1.00  0.00    -0.074 C 
HETATM    6  C16 UNL     1       6.764 -14.459  32.075  1.00  0.00     0.044 C 
HETATM    7  C17 UNL     1       5.334 -12.605  31.714  1.00  0.00    -0.023 C 
HETATM    8  C18 UNL     1       4.606 -11.330  31.737  1.00  0.00     0.028 C 
HETATM    9  C19 UNL     1       4.907 -10.482  32.951  1.00  0.00     0.016 C 
HETATM   10  C20 UNL     1       6.296  -9.992  33.051  1.00  0.00    -0.004 C 
HETATM   11  C21 UNL     1       6.561  -8.882  32.035  1.00  0.00     0.019 C 
HETATM   12  C22 UNL     1       7.371 -11.041  32.930  1.00  0.00     0.040 C 
HETATM   13  C23 UNL     1       8.104 -10.447  34.083  1.00  0.00     0.132 C 
HETATM   14  C24 UNL     1       6.857  -9.716  34.424  1.00  0.00     0.083 C 
HETATM   15  C25 UNL     1       7.172  -8.210  34.519  1.00  0.00     0.049 C 
ENDROOT
BRANCH   1  16
HETATM   16  C12 UNL     1       9.314 -11.375  36.101  1.00  0.00     0.067 C 
BRANCH  16  17
HETATM   17  C11 UNL     1       9.020 -10.449  37.169  1.00  0.00     0.045 C 
BRANCH  17  18
HETATM   18  C10 UNL     1      10.097  -9.751  37.896  1.00  0.00     0.006 C 
BRANCH  18  19
HETATM   19  C9  UNL     1      11.263  -9.269  37.114  1.00  0.00     0.012 C 
BRANCH  19  20
HETATM   20  C8  UNL     1      12.093  -8.372  38.056  1.00  0.00     0.094 C 
BRANCH  20  21
HETATM   21  C7  UNL     1      11.605  -8.541  39.420  1.00  0.00    -0.105 C 
HETATM   22  C6  UNL     1      11.212  -8.702  40.564  1.00  0.00    -0.076 C 
BRANCH  22  23
HETATM   23  C5  UNL     1      10.744  -8.849  41.921  1.00  0.00     0.365 C 
BRANCH  23  24
HETATM   24  N1  UNL     1      10.812  -7.583  42.618  1.00  0.00     0.098 N 
BRANCH  24  25
HETATM   25  C2  UNL     1       9.758  -7.719  43.683  1.00  0.00     0.269 C 
HETATM   26  C1  UNL     1       8.459  -8.104  43.007  1.00  0.00     0.037 C 
ENDBRANCH  24  25
BRANCH  24  27
HETATM   27  C3  UNL     1      12.050  -7.553  43.406  1.00  0.00     0.269 C 
HETATM   28  C4  UNL     1      12.079  -6.522  44.474  1.00  0.00     0.037 C 
ENDBRANCH  24  27
ENDBRANCH  23  24
ENDBRANCH  22  23
ENDBRANCH  20  21
ENDBRANCH  19  20
ENDBRANCH  18  19
ENDBRANCH  17  18
ENDBRANCH  16  17
ENDBRANCH   1  16
BRANCH  14  29
HETATM   29  O2  UNL     1       6.122 -10.073  35.508  1.00  0.00    -0.387 OA
ATOM     30  H2  UNL     1       5.287 -10.505  35.368  1.00  0.00     0.210 HD
ENDBRANCH  14  29
TORSDOF 11
ENDMDL
