MODEL 1
REMARK VINA RESULT: -5.920704946      0.000      0.000
REMARK  7 active torsions:
REMARK  status: ('A' for Active; 'I' for Inactive)
REMARK    1  A    between atoms: C2_2  and  C3_3 
REMARK    2  A    between atoms: C3_3  and  N1_4 
REMARK    3  A    between atoms: N1_4  and  C4_6 
REMARK    4  A    between atoms: C5_9  and  N3_10 
REMARK    5  A    between atoms: C7_16  and  C8_17 
REMARK    6  A    between atoms: C13_23  and  O1_24 
REMARK    7  A    between atoms: O1_24  and  C14_25 
ROOT
HETATM    1  C4  UNL     1      45.282   9.827  -1.512  1.00  0.00     0.133 A 
HETATM    2  N2  UNL     1      45.879   8.723  -1.931  1.00  0.00    -0.176 N 
ATOM      3  H2  UNL     1      45.292   7.944  -2.232  1.00  0.00     0.186 HD
HETATM    4  C5  UNL     1      47.227   8.566  -1.986  1.00  0.00     0.677 A 
HETATM    5  N4  UNL     1      47.998   9.604  -1.588  1.00  0.00    -0.201 N 
ATOM      6  H4  UNL     1      49.014   9.517  -1.619  1.00  0.00     0.183 HD
HETATM    7  C6  UNL     1      47.447  10.742  -1.155  1.00  0.00     0.122 A 
HETATM    8  C7  UNL     1      46.098  10.892  -1.102  1.00  0.00     0.038 A 
ENDROOT
BRANCH   8   9
HETATM    9  C8  UNL     1      45.484  12.148  -0.700  1.00  0.00     0.017 A 
HETATM   10  C9  UNL     1      45.302  13.047  -1.752  1.00  0.00     0.042 A 
HETATM   11  C10 UNL     1      44.775  14.303  -1.576  1.00  0.00     0.071 A 
HETATM   12 CL1  UNL     1      44.552  15.428  -2.902  1.00  0.00    -0.081 Cl
HETATM   13  C11 UNL     1      44.427  14.638  -0.289  1.00  0.00     0.126 A 
HETATM   14  C12 UNL     1      44.603  13.760   0.742  1.00  0.00     0.138 A 
HETATM   15  O3  UNL     1      43.886  15.892  -0.034  1.00  0.00    -0.344 OA
HETATM   16  C13 UNL     1      45.147  12.461   0.570  1.00  0.00     0.116 A 
HETATM   17  O2  UNL     1      44.212  14.214   2.000  1.00  0.00    -0.344 OA
HETATM   18  C17 UNL     1      44.256  15.603   2.300  1.00  0.00     0.202 C 
HETATM   19  C18 UNL     1      43.450  16.315   1.235  1.00  0.00     0.202 C 
BRANCH  16  20
HETATM   20  O1  UNL     1      45.259  11.691   1.691  1.00  0.00    -0.343 OA
BRANCH  20  21
HETATM   21  C14 UNL     1      46.225  11.565   2.657  1.00  0.00     0.121 C 
HETATM   22  C15 UNL     1      47.139  12.754   2.850  1.00  0.00     0.040 C 
HETATM   23  C16 UNL     1      47.189  10.398   2.339  1.00  0.00     0.040 C 
ENDBRANCH  20  21
ENDBRANCH  16  20
ENDBRANCH   8   9
BRANCH   1  24
HETATM   24  N1  UNL     1      44.008   9.996  -1.439  1.00  0.00    -0.355 N 
ATOM     25  H1  UNL     1      43.654  10.327  -0.542  1.00  0.00     0.166 HD
BRANCH  24  26
HETATM   26  C3  UNL     1      43.041   9.784  -2.441  1.00  0.00     0.062 C 
BRANCH  26  27
HETATM   27  C2  UNL     1      42.111   8.609  -2.202  1.00  0.00     0.040 C 
HETATM   28  C1  UNL     1      40.708   8.901  -2.649  1.00  0.00     0.010 C 
ENDBRANCH  26  27
ENDBRANCH  24  26
ENDBRANCH   1  24
BRANCH   4  29
HETATM   29  N3  UNL     1      47.762   7.471  -2.405  1.00  0.00    -0.234 N 
ATOM     30  H32 UNL     1      47.730   7.220  -3.393  1.00  0.00     0.174 HD
ATOM     31  H31 UNL     1      48.228   6.825  -1.768  1.00  0.00     0.174 HD
ENDBRANCH   4  29
TORSDOF 7
ENDMDL
MODEL 2
REMARK VINA RESULT: -5.879283939      1.584      3.108
REMARK  7 active torsions:
REMARK  status: ('A' for Active; 'I' for Inactive)
REMARK    1  A    between atoms: C2_2  and  C3_3 
REMARK    2  A    between atoms: C3_3  and  N1_4 
REMARK    3  A    between atoms: N1_4  and  C4_6 
REMARK    4  A    between atoms: C5_9  and  N3_10 
REMARK    5  A    between atoms: C7_16  and  C8_17 
REMARK    6  A    between atoms: C13_23  and  O1_24 
REMARK    7  A    between atoms: O1_24  and  C14_25 
ROOT
HETATM    1  C4  UNL     1      46.481  11.537  -2.163  1.00  0.00     0.133 A 
HETATM    2  N2  UNL     1      46.836  10.376  -2.689  1.00  0.00    -0.176 N 
ATOM      3  H2  UNL     1      47.737  10.320  -3.164  1.00  0.00     0.186 HD
HETATM    4  C5  UNL     1      46.071   9.255  -2.633  1.00  0.00     0.677 A 
HETATM    5  N4  UNL     1      44.879   9.338  -1.999  1.00  0.00    -0.201 N 
ATOM      6  H4  UNL     1      44.283   8.512  -1.938  1.00  0.00     0.183 HD
HETATM    7  C6  UNL     1      44.472  10.486  -1.450  1.00  0.00     0.122 A 
HETATM    8  C7  UNL     1      45.240  11.604  -1.511  1.00  0.00     0.038 A 
ENDROOT
BRANCH   8   9
HETATM    9  C8  UNL     1      44.843  12.841  -0.859  1.00  0.00     0.017 A 
HETATM   10  C9  UNL     1      44.318  13.795  -1.733  1.00  0.00     0.042 A 
HETATM   11  C10 UNL     1      43.921  15.044  -1.323  1.00  0.00     0.071 A 
HETATM   12 CL1  UNL     1      43.265  16.236  -2.428  1.00  0.00    -0.081 Cl
HETATM   13  C11 UNL     1      44.066  15.314   0.017  1.00  0.00     0.126 A 
HETATM   14  C12 UNL     1      44.578  14.384   0.875  1.00  0.00     0.138 A 
HETATM   15  O3  UNL     1      43.684  16.558   0.506  1.00  0.00    -0.344 OA
HETATM   16  C13 UNL     1      44.991  13.091   0.461  1.00  0.00     0.116 A 
HETATM   17  O2  UNL     1      44.675  14.776   2.209  1.00  0.00    -0.344 OA
HETATM   18  C17 UNL     1      44.860  16.147   2.536  1.00  0.00     0.202 C 
HETATM   19  C18 UNL     1      43.743  16.919   1.865  1.00  0.00     0.202 C 
BRANCH  16  20
HETATM   20  O1  UNL     1      45.479  12.264   1.431  1.00  0.00    -0.343 OA
BRANCH  20  21
HETATM   21  C14 UNL     1      46.741  12.002   1.902  1.00  0.00     0.121 C 
HETATM   22  C15 UNL     1      47.108  10.543   2.055  1.00  0.00     0.040 C 
HETATM   23  C16 UNL     1      46.946  12.593   3.316  1.00  0.00     0.040 C 
ENDBRANCH  20  21
ENDBRANCH  16  20
ENDBRANCH   8   9
BRANCH   1  24
HETATM   24  N1  UNL     1      47.180  12.616  -2.213  1.00  0.00    -0.355 N 
ATOM     25  H1  UNL     1      47.220  13.161  -1.352  1.00  0.00     0.166 HD
BRANCH  24  26
HETATM   26  C3  UNL     1      47.898  13.141  -3.306  1.00  0.00     0.062 C 
BRANCH  26  27
HETATM   27  C2  UNL     1      47.075  13.949  -4.292  1.00  0.00     0.040 C 
HETATM   28  C1  UNL     1      46.952  15.386  -3.877  1.00  0.00     0.010 C 
ENDBRANCH  26  27
ENDBRANCH  24  26
ENDBRANCH   1  24
BRANCH   4  29
HETATM   29  N3  UNL     1      46.462   8.145  -3.158  1.00  0.00    -0.234 N 
ATOM     30  H32 UNL     1      46.722   8.098  -4.143  1.00  0.00     0.174 HD
ATOM     31  H31 UNL     1      46.519   7.285  -2.612  1.00  0.00     0.174 HD
ENDBRANCH   4  29
TORSDOF 7
ENDMDL
MODEL 3
REMARK VINA RESULT: -5.830688026      2.128      3.449
REMARK  7 active torsions:
REMARK  status: ('A' for Active; 'I' for Inactive)
REMARK    1  A    between atoms: C2_2  and  C3_3 
REMARK    2  A    between atoms: C3_3  and  N1_4 
REMARK    3  A    between atoms: N1_4  and  C4_6 
REMARK    4  A    between atoms: C5_9  and  N3_10 
REMARK    5  A    between atoms: C7_16  and  C8_17 
REMARK    6  A    between atoms: C13_23  and  O1_24 
REMARK    7  A    between atoms: O1_24  and  C14_25 
ROOT
HETATM    1  C4  UNL     1      45.706  11.424  -1.995  1.00  0.00     0.133 A 
HETATM    2  N2  UNL     1      45.589  10.486  -2.920  1.00  0.00    -0.176 N 
ATOM      3  H2  UNL     1      46.105  10.604  -3.792  1.00  0.00     0.186 HD
HETATM    4  C5  UNL     1      44.822   9.374  -2.777  1.00  0.00     0.677 A 
HETATM    5  N4  UNL     1      44.143   9.224  -1.617  1.00  0.00    -0.201 N 
ATOM      6  H4  UNL     1      43.560   8.398  -1.479  1.00  0.00     0.183 HD
HETATM    7  C6  UNL     1      44.225  10.142  -0.649  1.00  0.00     0.122 A 
HETATM    8  C7  UNL     1      44.993  11.252  -0.799  1.00  0.00     0.038 A 
ENDROOT
BRANCH   8   9
HETATM    9  C8  UNL     1      45.148  12.224   0.271  1.00  0.00     0.017 A 
HETATM   10  C9  UNL     1      44.574  13.465  -0.008  1.00  0.00     0.042 A 
HETATM   11  C10 UNL     1      44.645  14.531   0.855  1.00  0.00     0.071 A 
HETATM   12 CL1  UNL     1      43.923  16.087   0.495  1.00  0.00    -0.081 Cl
HETATM   13  C11 UNL     1      45.321  14.311   2.031  1.00  0.00     0.126 A 
HETATM   14  C12 UNL     1      45.883  13.098   2.309  1.00  0.00     0.138 A 
HETATM   15  O3  UNL     1      45.432  15.344   2.956  1.00  0.00    -0.344 OA
HETATM   16  C13 UNL     1      45.815  11.992   1.423  1.00  0.00     0.116 A 
HETATM   17  O2  UNL     1      46.541  12.999   3.533  1.00  0.00    -0.344 OA
HETATM   18  C17 UNL     1      47.136  14.151   4.117  1.00  0.00     0.202 C 
HETATM   19  C18 UNL     1      46.058  15.210   4.209  1.00  0.00     0.202 C 
BRANCH  16  20
HETATM   20  O1  UNL     1      46.419  10.840   1.836  1.00  0.00    -0.343 OA
BRANCH  20  21
HETATM   21  C14 UNL     1      47.702  10.361   1.745  1.00  0.00     0.121 C 
HETATM   22  C15 UNL     1      48.261  10.205   0.348  1.00  0.00     0.040 C 
HETATM   23  C16 UNL     1      47.818   8.946   2.357  1.00  0.00     0.040 C 
ENDBRANCH  20  21
ENDBRANCH  16  20
ENDBRANCH   8   9
BRANCH   1  24
HETATM   24  N1  UNL     1      46.416  12.492  -2.111  1.00  0.00    -0.355 N 
ATOM     25  H1  UNL     1      46.936  12.773  -1.279  1.00  0.00     0.166 HD
BRANCH  24  26
HETATM   26  C3  UNL     1      46.565  13.322  -3.239  1.00  0.00     0.062 C 
BRANCH  26  27
HETATM   27  C2  UNL     1      45.332  14.119  -3.623  1.00  0.00     0.040 C 
HETATM   28  C1  UNL     1      45.343  15.495  -3.025  1.00  0.00     0.010 C 
ENDBRANCH  26  27
ENDBRANCH  24  26
ENDBRANCH   1  24
BRANCH   4  29
HETATM   29  N3  UNL     1      44.742   8.485  -3.707  1.00  0.00    -0.234 N 
ATOM     30  H32 UNL     1      43.838   8.214  -4.091  1.00  0.00     0.174 HD
ATOM     31  H31 UNL     1      45.573   8.027  -4.082  1.00  0.00     0.174 HD
ENDBRANCH   4  29
TORSDOF 7
ENDMDL
MODEL 4
REMARK VINA RESULT: -5.747198638      3.608      6.350
REMARK  7 active torsions:
REMARK  status: ('A' for Active; 'I' for Inactive)
REMARK    1  A    between atoms: C2_2  and  C3_3 
REMARK    2  A    between atoms: C3_3  and  N1_4 
REMARK    3  A    between atoms: N1_4  and  C4_6 
REMARK    4  A    between atoms: C5_9  and  N3_10 
REMARK    5  A    between atoms: C7_16  and  C8_17 
REMARK    6  A    between atoms: C13_23  and  O1_24 
REMARK    7  A    between atoms: O1_24  and  C14_25 
ROOT
HETATM    1  C4  UNL     1      46.224  13.235   2.302  1.00  0.00     0.133 A 
HETATM    2  N2  UNL     1      46.488  13.988   3.357  1.00  0.00    -0.176 N 
ATOM      3  H2  UNL     1      47.300  13.749   3.927  1.00  0.00     0.186 HD
HETATM    4  C5  UNL     1      45.743  15.062   3.725  1.00  0.00     0.677 A 
HETATM    5  N4  UNL     1      44.669  15.374   2.963  1.00  0.00    -0.201 N 
ATOM      6  H4  UNL     1      44.091  16.176   3.213  1.00  0.00     0.183 HD
HETATM    7  C6  UNL     1      44.357  14.646   1.887  1.00  0.00     0.122 A 
HETATM    8  C7  UNL     1      45.106  13.573   1.524  1.00  0.00     0.038 A 
ENDROOT
BRANCH   8   9
HETATM    9  C8  UNL     1      44.821  12.814   0.318  1.00  0.00     0.017 A 
HETATM   10  C9  UNL     1      44.676  11.443   0.536  1.00  0.00     0.042 A 
HETATM   11  C10 UNL     1      44.443  10.546  -0.478  1.00  0.00     0.071 A 
HETATM   12 CL1  UNL     1      44.265   8.826  -0.195  1.00  0.00    -0.081 Cl
HETATM   13  C11 UNL     1      44.356  11.075  -1.744  1.00  0.00     0.126 A 
HETATM   14  C12 UNL     1      44.496  12.416  -1.961  1.00  0.00     0.138 A 
HETATM   15  O3  UNL     1      44.120  10.229  -2.821  1.00  0.00    -0.344 OA
HETATM   16  C13 UNL     1      44.737  13.349  -0.920  1.00  0.00     0.116 A 
HETATM   17  O2  UNL     1      44.387  12.831  -3.287  1.00  0.00    -0.344 OA
HETATM   18  C17 UNL     1      44.753  11.949  -4.341  1.00  0.00     0.202 C 
HETATM   19  C18 UNL     1      43.964  10.672  -4.147  1.00  0.00     0.202 C 
BRANCH  16  20
HETATM   20  O1  UNL     1      44.850  14.659  -1.286  1.00  0.00    -0.343 OA
BRANCH  20  21
HETATM   21  C14 UNL     1      43.981  15.721  -1.277  1.00  0.00     0.121 C 
HETATM   22  C15 UNL     1      42.639  15.492  -1.936  1.00  0.00     0.040 C 
HETATM   23  C16 UNL     1      44.569  16.935  -2.033  1.00  0.00     0.040 C 
ENDBRANCH  20  21
ENDBRANCH  16  20
ENDBRANCH   8   9
BRANCH   1  24
HETATM   24  N1  UNL     1      46.907  12.206   1.939  1.00  0.00    -0.355 N 
ATOM     25  H1  UNL     1      47.362  12.273   1.028  1.00  0.00     0.166 HD
BRANCH  24  26
HETATM   26  C3  UNL     1      47.107  11.000   2.639  1.00  0.00     0.062 C 
BRANCH  26  27
HETATM   27  C2  UNL     1      47.684   9.863   1.816  1.00  0.00     0.040 C 
HETATM   28  C1  UNL     1      48.105  10.316   0.448  1.00  0.00     0.010 C 
ENDBRANCH  26  27
ENDBRANCH  24  26
ENDBRANCH   1  24
BRANCH   4  29
HETATM   29  N3  UNL     1      46.042  15.768   4.761  1.00  0.00    -0.234 N 
ATOM     30  H32 UNL     1      46.986  15.753   5.147  1.00  0.00     0.174 HD
ATOM     31  H31 UNL     1      45.350  16.356   5.226  1.00  0.00     0.174 HD
ENDBRANCH   4  29
TORSDOF 7
ENDMDL
MODEL 5
REMARK VINA RESULT: -5.735754724      2.245      3.349
REMARK  7 active torsions:
REMARK  status: ('A' for Active; 'I' for Inactive)
REMARK    1  A    between atoms: C2_2  and  C3_3 
REMARK    2  A    between atoms: C3_3  and  N1_4 
REMARK    3  A    between atoms: N1_4  and  C4_6 
REMARK    4  A    between atoms: C5_9  and  N3_10 
REMARK    5  A    between atoms: C7_16  and  C8_17 
REMARK    6  A    between atoms: C13_23  and  O1_24 
REMARK    7  A    between atoms: O1_24  and  C14_25 
ROOT
HETATM    1  C4  UNL     1      45.800   9.677   0.393  1.00  0.00     0.133 A 
HETATM    2  N2  UNL     1      46.514   8.610   0.709  1.00  0.00    -0.176 N 
ATOM      3  H2  UNL     1      46.077   7.693   0.609  1.00  0.00     0.186 HD
HETATM    4  C5  UNL     1      47.795   8.662   1.157  1.00  0.00     0.677 A 
HETATM    5  N4  UNL     1      48.368   9.881   1.284  1.00  0.00    -0.201 N 
ATOM      6  H4  UNL     1      49.329   9.952   1.616  1.00  0.00     0.183 HD
HETATM    7  C6  UNL     1      47.692  10.992   0.979  1.00  0.00     0.122 A 
HETATM    8  C7  UNL     1      46.411  10.933   0.532  1.00  0.00     0.038 A 
ENDROOT
BRANCH   8   9
HETATM    9  C8  UNL     1      45.686  12.128   0.130  1.00  0.00     0.017 A 
HETATM   10  C9  UNL     1      45.341  12.962   1.194  1.00  0.00     0.042 A 
HETATM   11  C10 UNL     1      44.621  14.120   1.032  1.00  0.00     0.071 A 
HETATM   12 CL1  UNL     1      44.191  15.162   2.375  1.00  0.00    -0.081 Cl
HETATM   13  C11 UNL     1      44.248  14.424  -0.256  1.00  0.00     0.126 A 
HETATM   14  C12 UNL     1      44.583  13.610  -1.300  1.00  0.00     0.138 A 
HETATM   15  O3  UNL     1      43.517  15.581  -0.498  1.00  0.00    -0.344 OA
HETATM   16  C13 UNL     1      45.328  12.413  -1.141  1.00  0.00     0.116 A 
HETATM   17  O2  UNL     1      44.149  14.025  -2.557  1.00  0.00    -0.344 OA
HETATM   18  C17 UNL     1      42.965  14.803  -2.680  1.00  0.00     0.202 C 
HETATM   19  C18 UNL     1      43.130  16.009  -1.782  1.00  0.00     0.202 C 
BRANCH  16  20
HETATM   20  O1  UNL     1      45.594  11.702  -2.276  1.00  0.00    -0.343 OA
BRANCH  20  21
HETATM   21  C14 UNL     1      46.720  11.533  -3.042  1.00  0.00     0.121 C 
HETATM   22  C15 UNL     1      47.427  10.203  -2.908  1.00  0.00     0.040 C 
HETATM   23  C16 UNL     1      47.805  12.574  -2.683  1.00  0.00     0.040 C 
ENDBRANCH  20  21
ENDBRANCH  16  20
ENDBRANCH   8   9
BRANCH   1  24
HETATM   24  N1  UNL     1      44.581   9.656  -0.022  1.00  0.00    -0.355 N 
ATOM     25  H1  UNL     1      44.021  10.479   0.200  1.00  0.00     0.166 HD
BRANCH  24  26
HETATM   26  C3  UNL     1      43.923   8.641  -0.743  1.00  0.00     0.062 C 
BRANCH  26  27
HETATM   27  C2  UNL     1      43.328   9.074  -2.071  1.00  0.00     0.040 C 
HETATM   28  C1  UNL     1      41.928   8.566  -2.252  1.00  0.00     0.010 C 
ENDBRANCH  26  27
ENDBRANCH  24  26
ENDBRANCH   1  24
BRANCH   4  29
HETATM   29  N3  UNL     1      48.451   7.591   1.449  1.00  0.00    -0.234 N 
ATOM     30  H32 UNL     1      49.139   7.209   0.801  1.00  0.00     0.174 HD
ATOM     31  H31 UNL     1      48.303   7.097   2.329  1.00  0.00     0.174 HD
ENDBRANCH   4  29
TORSDOF 7
ENDMDL
