MODEL 1
REMARK VINA RESULT: -6.873522126      0.000      0.000
REMARK  7 active torsions:
REMARK  status: ('A' for Active; 'I' for Inactive)
REMARK    1  A    between atoms: O1_2  and  C2_3 
REMARK    2  A    between atoms: C2_3  and  C3_4 
REMARK    3  A    between atoms: C3_4  and  N1_5 
REMARK    4  A    between atoms: N1_5  and  C4_7 
REMARK    5  A    between atoms: C4_7  and  N2_9 
REMARK    6  A    between atoms: N2_9  and  C5_11 
REMARK    7  A    between atoms: C9_15  and  N3_16 
ROOT
HETATM    1  C5  UNL     1      44.679  12.418  -0.227  1.00  0.00     0.036 A 
HETATM    2  C6  UNL     1      45.428  11.885   0.837  1.00  0.00     0.038 A 
HETATM    3  C7  UNL     1      45.811  12.694   1.883  1.00  0.00    -0.032 A 
HETATM    4  C8  UNL     1      46.602  12.092   2.989  1.00  0.00     0.050 C 
HETATM    5  C9  UNL     1      45.487  14.033   1.937  1.00  0.00     0.058 A 
HETATM    6  C16 UNL     1      44.759  14.534   0.894  1.00  0.00     0.063 A 
HETATM    7 CL1  UNL     1      44.296  16.208   0.872  1.00  0.00    -0.082 Cl
HETATM    8  C17 UNL     1      44.362  13.747  -0.170  1.00  0.00     0.055 A 
ENDROOT
BRANCH   1   9
HETATM    9  N2  UNL     1      44.366  11.531  -1.273  1.00  0.00    -0.333 N 
ATOM     10  H2  UNL     1      43.378  11.454  -1.514  1.00  0.00     0.168 HD
BRANCH   9  11
HETATM   11  C4  UNL     1      45.240  10.747  -2.017  1.00  0.00     0.172 C 
HETATM   12  S1  UNL     1      46.168  11.455  -3.211  1.00  0.00    -0.041 SA
BRANCH  11  13
HETATM   13  N1  UNL     1      45.377   9.359  -1.803  1.00  0.00    -0.365 N 
ATOM     14  H1  UNL     1      46.125   9.016  -1.201  1.00  0.00     0.161 HD
BRANCH  13  15
HETATM   15  C3  UNL     1      44.456   8.400  -2.433  1.00  0.00     0.148 C 
BRANCH  15  16
HETATM   16  C2  UNL     1      43.401   8.056  -1.419  1.00  0.00     0.186 C 
BRANCH  16  17
HETATM   17  O1  UNL     1      42.423   7.201  -1.840  1.00  0.00    -0.394 OA
HETATM   18  C1  UNL     1      42.542   6.893  -3.185  1.00  0.00     0.201 C 
ENDBRANCH  16  17
ENDBRANCH  15  16
ENDBRANCH  13  15
ENDBRANCH  11  13
ENDBRANCH   9  11
ENDBRANCH   1   9
BRANCH   5  19
HETATM   19  N3  UNL     1      45.900  14.840   3.047  1.00  0.00    -0.379 N 
HETATM   20  C10 UNL     1      44.881  15.209   4.005  1.00  0.00     0.123 C 
HETATM   21  C11 UNL     1      45.053  16.652   4.373  1.00  0.00     0.020 C 
HETATM   22  C12 UNL     1      46.180  16.721   5.396  1.00  0.00     0.002 C 
HETATM   23  C13 UNL     1      47.484  17.067   4.762  1.00  0.00     0.002 C 
HETATM   24  C14 UNL     1      47.620  16.610   3.325  1.00  0.00     0.020 C 
HETATM   25  C15 UNL     1      47.301  15.179   3.097  1.00  0.00     0.123 C 
ENDBRANCH   5  19
TORSDOF 7
ENDMDL
MODEL 2
REMARK VINA RESULT: -6.801317576      1.003      1.046
REMARK  7 active torsions:
REMARK  status: ('A' for Active; 'I' for Inactive)
REMARK    1  A    between atoms: O1_2  and  C2_3 
REMARK    2  A    between atoms: C2_3  and  C3_4 
REMARK    3  A    between atoms: C3_4  and  N1_5 
REMARK    4  A    between atoms: N1_5  and  C4_7 
REMARK    5  A    between atoms: C4_7  and  N2_9 
REMARK    6  A    between atoms: N2_9  and  C5_11 
REMARK    7  A    between atoms: C9_15  and  N3_16 
ROOT
HETATM    1  C5  UNL     1      44.682  12.380  -0.251  1.00  0.00     0.036 A 
HETATM    2  C6  UNL     1      45.447  11.853   0.805  1.00  0.00     0.038 A 
HETATM    3  C7  UNL     1      45.832  12.664   1.848  1.00  0.00    -0.032 A 
HETATM    4  C8  UNL     1      46.641  12.069   2.945  1.00  0.00     0.050 C 
HETATM    5  C9  UNL     1      45.494  14.000   1.908  1.00  0.00     0.058 A 
HETATM    6  C16 UNL     1      44.750  14.495   0.873  1.00  0.00     0.063 A 
HETATM    7 CL1  UNL     1      44.269  16.164   0.860  1.00  0.00    -0.082 Cl
HETATM    8  C17 UNL     1      44.351  13.706  -0.187  1.00  0.00     0.055 A 
ENDROOT
BRANCH   1   9
HETATM    9  N2  UNL     1      44.367  11.493  -1.295  1.00  0.00    -0.333 N 
ATOM     10  H2  UNL     1      43.825  11.882  -2.066  1.00  0.00     0.168 HD
BRANCH   9  11
HETATM   11  C4  UNL     1      44.705  10.148  -1.402  1.00  0.00     0.172 C 
HETATM   12  S1  UNL     1      46.041   9.704  -2.300  1.00  0.00    -0.041 SA
BRANCH  11  13
HETATM   13  N1  UNL     1      43.955   9.130  -0.777  1.00  0.00    -0.365 N 
ATOM     14  H1  UNL     1      43.810   9.162   0.232  1.00  0.00     0.161 HD
BRANCH  13  15
HETATM   15  C3  UNL     1      43.379   8.024  -1.558  1.00  0.00     0.148 C 
BRANCH  15  16
HETATM   16  C2  UNL     1      42.373   8.616  -2.504  1.00  0.00     0.186 C 
BRANCH  16  17
HETATM   17  O1  UNL     1      41.151   8.008  -2.534  1.00  0.00    -0.394 OA
HETATM   18  C1  UNL     1      40.147   8.871  -2.939  1.00  0.00     0.201 C 
ENDBRANCH  16  17
ENDBRANCH  15  16
ENDBRANCH  13  15
ENDBRANCH  11  13
ENDBRANCH   9  11
ENDBRANCH   1   9
BRANCH   5  19
HETATM   19  N3  UNL     1      45.911  14.809   3.016  1.00  0.00    -0.379 N 
HETATM   20  C10 UNL     1      44.895  15.172   3.980  1.00  0.00     0.123 C 
HETATM   21  C11 UNL     1      45.062  16.616   4.347  1.00  0.00     0.020 C 
HETATM   22  C12 UNL     1      46.195  16.692   5.363  1.00  0.00     0.002 C 
HETATM   23  C13 UNL     1      47.493  17.045   4.720  1.00  0.00     0.002 C 
HETATM   24  C14 UNL     1      47.622  16.589   3.282  1.00  0.00     0.020 C 
HETATM   25  C15 UNL     1      47.310  15.156   3.057  1.00  0.00     0.123 C 
ENDBRANCH   5  19
TORSDOF 7
ENDMDL
MODEL 3
REMARK VINA RESULT: -6.794887741      1.255      1.879
REMARK  7 active torsions:
REMARK  status: ('A' for Active; 'I' for Inactive)
REMARK    1  A    between atoms: O1_2  and  C2_3 
REMARK    2  A    between atoms: C2_3  and  C3_4 
REMARK    3  A    between atoms: C3_4  and  N1_5 
REMARK    4  A    between atoms: N1_5  and  C4_7 
REMARK    5  A    between atoms: C4_7  and  N2_9 
REMARK    6  A    between atoms: N2_9  and  C5_11 
REMARK    7  A    between atoms: C9_15  and  N3_16 
ROOT
HETATM    1  C5  UNL     1      44.648  12.525  -0.358  1.00  0.00     0.036 A 
HETATM    2  C6  UNL     1      44.316  13.888  -0.267  1.00  0.00     0.038 A 
HETATM    3  C7  UNL     1      44.707  14.620   0.831  1.00  0.00    -0.032 A 
HETATM    4  C8  UNL     1      44.336  16.060   0.890  1.00  0.00     0.050 C 
HETATM    5  C9  UNL     1      45.426  14.067   1.870  1.00  0.00     0.058 A 
HETATM    6  C16 UNL     1      45.740  12.740   1.764  1.00  0.00     0.063 A 
HETATM    7 CL1  UNL     1      46.647  11.952   3.017  1.00  0.00    -0.082 Cl
HETATM    8  C17 UNL     1      45.360  11.980   0.675  1.00  0.00     0.055 A 
ENDROOT
BRANCH   1   9
HETATM    9  N2  UNL     1      44.174  11.843  -1.493  1.00  0.00    -0.333 N 
ATOM     10  H2  UNL     1      43.167  11.881  -1.651  1.00  0.00     0.168 HD
BRANCH   9  11
HETATM   11  C4  UNL     1      44.912  11.124  -2.426  1.00  0.00     0.172 C 
HETATM   12  S1  UNL     1      46.255  11.824  -3.130  1.00  0.00    -0.041 SA
BRANCH  11  13
HETATM   13  N1  UNL     1      44.569   9.810  -2.808  1.00  0.00    -0.365 N 
ATOM     14  H1  UNL     1      45.288   9.194  -3.189  1.00  0.00     0.161 HD
BRANCH  13  15
HETATM   15  C3  UNL     1      43.191   9.314  -2.666  1.00  0.00     0.148 C 
BRANCH  15  16
HETATM   16  C2  UNL     1      43.207   8.236  -1.620  1.00  0.00     0.186 C 
BRANCH  16  17
HETATM   17  O1  UNL     1      42.462   7.125  -1.895  1.00  0.00    -0.394 OA
HETATM   18  C1  UNL     1      42.475   6.809  -3.243  1.00  0.00     0.201 C 
ENDBRANCH  16  17
ENDBRANCH  15  16
ENDBRANCH  13  15
ENDBRANCH  11  13
ENDBRANCH   9  11
ENDBRANCH   1   9
BRANCH   5  19
HETATM   19  N3  UNL     1      45.818  14.866   2.993  1.00  0.00    -0.379 N 
HETATM   20  C10 UNL     1      44.787  15.200   3.951  1.00  0.00     0.123 C 
HETATM   21  C11 UNL     1      44.930  16.641   4.341  1.00  0.00     0.020 C 
HETATM   22  C12 UNL     1      46.051  16.718   5.370  1.00  0.00     0.002 C 
HETATM   23  C13 UNL     1      47.350  17.098   4.747  1.00  0.00     0.002 C 
HETATM   24  C14 UNL     1      47.501  16.665   3.304  1.00  0.00     0.020 C 
HETATM   25  C15 UNL     1      47.212  15.231   3.054  1.00  0.00     0.123 C 
ENDBRANCH   5  19
TORSDOF 7
ENDMDL
MODEL 4
REMARK VINA RESULT: -6.610362153      1.604      2.101
REMARK  7 active torsions:
REMARK  status: ('A' for Active; 'I' for Inactive)
REMARK    1  A    between atoms: O1_2  and  C2_3 
REMARK    2  A    between atoms: C2_3  and  C3_4 
REMARK    3  A    between atoms: C3_4  and  N1_5 
REMARK    4  A    between atoms: N1_5  and  C4_7 
REMARK    5  A    between atoms: C4_7  and  N2_9 
REMARK    6  A    between atoms: N2_9  and  C5_11 
REMARK    7  A    between atoms: C9_15  and  N3_16 
ROOT
HETATM    1  C5  UNL     1      44.688  12.416  -0.203  1.00  0.00     0.036 A 
HETATM    2  C6  UNL     1      45.452  11.890   0.854  1.00  0.00     0.038 A 
HETATM    3  C7  UNL     1      45.841  12.703   1.894  1.00  0.00    -0.032 A 
HETATM    4  C8  UNL     1      46.648  12.108   2.993  1.00  0.00     0.050 C 
HETATM    5  C9  UNL     1      45.510  14.040   1.950  1.00  0.00     0.058 A 
HETATM    6  C16 UNL     1      44.767  14.535   0.914  1.00  0.00     0.063 A 
HETATM    7 CL1  UNL     1      44.294  16.206   0.895  1.00  0.00    -0.082 Cl
HETATM    8  C17 UNL     1      44.363  13.744  -0.144  1.00  0.00     0.055 A 
ENDROOT
BRANCH   1   9
HETATM    9  N2  UNL     1      44.368  11.527  -1.243  1.00  0.00    -0.333 N 
ATOM     10  H2  UNL     1      43.424  11.600  -1.622  1.00  0.00     0.168 HD
BRANCH   9  11
HETATM   11  C4  UNL     1      45.183  10.558  -1.819  1.00  0.00     0.172 C 
HETATM   12  S1  UNL     1      46.518  11.027  -2.706  1.00  0.00    -0.041 SA
BRANCH  11  13
HETATM   13  N1  UNL     1      44.926   9.178  -1.682  1.00  0.00    -0.365 N 
ATOM     14  H1  UNL     1      44.693   8.627  -2.508  1.00  0.00     0.161 HD
BRANCH  13  15
HETATM   15  C3  UNL     1      44.991   8.521  -0.367  1.00  0.00     0.148 C 
BRANCH  15  16
HETATM   16  C2  UNL     1      46.433   8.194  -0.097  1.00  0.00     0.186 C 
BRANCH  16  17
HETATM   17  O1  UNL     1      46.943   8.666   1.078  1.00  0.00    -0.394 OA
HETATM   18  C1  UNL     1      48.146   9.327   0.898  1.00  0.00     0.201 C 
ENDBRANCH  16  17
ENDBRANCH  15  16
ENDBRANCH  13  15
ENDBRANCH  11  13
ENDBRANCH   9  11
ENDBRANCH   1   9
BRANCH   5  19
HETATM   19  N3  UNL     1      45.931  14.851   3.054  1.00  0.00    -0.379 N 
HETATM   20  C10 UNL     1      44.923  15.204   4.030  1.00  0.00     0.123 C 
HETATM   21  C11 UNL     1      45.081  16.648   4.398  1.00  0.00     0.020 C 
HETATM   22  C12 UNL     1      46.225  16.732   5.401  1.00  0.00     0.002 C 
HETATM   23  C13 UNL     1      47.512  17.098   4.745  1.00  0.00     0.002 C 
HETATM   24  C14 UNL     1      47.629  16.645   3.305  1.00  0.00     0.020 C 
HETATM   25  C15 UNL     1      47.327  15.210   3.080  1.00  0.00     0.123 C 
ENDBRANCH   5  19
TORSDOF 7
ENDMDL
MODEL 5
REMARK VINA RESULT: -6.604510935      2.144      2.587
REMARK  7 active torsions:
REMARK  status: ('A' for Active; 'I' for Inactive)
REMARK    1  A    between atoms: O1_2  and  C2_3 
REMARK    2  A    between atoms: C2_3  and  C3_4 
REMARK    3  A    between atoms: C3_4  and  N1_5 
REMARK    4  A    between atoms: N1_5  and  C4_7 
REMARK    5  A    between atoms: C4_7  and  N2_9 
REMARK    6  A    between atoms: N2_9  and  C5_11 
REMARK    7  A    between atoms: C9_15  and  N3_16 
ROOT
HETATM    1  C5  UNL     1      44.735  12.142  -0.083  1.00  0.00     0.036 A 
HETATM    2  C6  UNL     1      45.504  11.679   0.999  1.00  0.00     0.038 A 
HETATM    3  C7  UNL     1      45.871  12.544   2.004  1.00  0.00    -0.032 A 
HETATM    4  C8  UNL     1      46.686  12.016   3.131  1.00  0.00     0.050 C 
HETATM    5  C9  UNL     1      45.511  13.876   2.000  1.00  0.00     0.058 A 
HETATM    6  C16 UNL     1      44.763  14.309   0.940  1.00  0.00     0.063 A 
HETATM    7 CL1  UNL     1      44.254  15.966   0.846  1.00  0.00    -0.082 Cl
HETATM    8  C17 UNL     1      44.381  13.464  -0.083  1.00  0.00     0.055 A 
ENDROOT
BRANCH   1   9
HETATM    9  N2  UNL     1      44.439  11.201  -1.085  1.00  0.00    -0.333 N 
ATOM     10  H2  UNL     1      43.748  11.487  -1.779  1.00  0.00     0.168 HD
BRANCH   9  11
HETATM   11  C4  UNL     1      44.975   9.928  -1.244  1.00  0.00     0.172 C 
HETATM   12  S1  UNL     1      44.080   8.595  -0.783  1.00  0.00    -0.041 SA
BRANCH  11  13
HETATM   13  N1  UNL     1      46.259   9.712  -1.786  1.00  0.00    -0.365 N 
ATOM     14  H1  UNL     1      46.516  10.164  -2.664  1.00  0.00     0.161 HD
BRANCH  13  15
HETATM   15  C3  UNL     1      47.234   8.846  -1.104  1.00  0.00     0.148 C 
BRANCH  15  16
HETATM   16  C2  UNL     1      48.189   9.740  -0.363  1.00  0.00     0.186 C 
BRANCH  16  17
HETATM   17  O1  UNL     1      48.347   9.473   0.967  1.00  0.00    -0.394 OA
HETATM   18  C1  UNL     1      47.419   8.557   1.430  1.00  0.00     0.201 C 
ENDBRANCH  16  17
ENDBRANCH  15  16
ENDBRANCH  13  15
ENDBRANCH  11  13
ENDBRANCH   9  11
ENDBRANCH   1   9
BRANCH   5  19
HETATM   19  N3  UNL     1      45.909  14.743   3.069  1.00  0.00    -0.379 N 
HETATM   20  C10 UNL     1      44.891  15.109   4.030  1.00  0.00     0.123 C 
HETATM   21  C11 UNL     1      45.010  16.571   4.337  1.00  0.00     0.020 C 
HETATM   22  C12 UNL     1      46.150  16.728   5.336  1.00  0.00     0.002 C 
HETATM   23  C13 UNL     1      47.428  17.100   4.664  1.00  0.00     0.002 C 
HETATM   24  C14 UNL     1      47.558  16.591   3.245  1.00  0.00     0.020 C 
HETATM   25  C15 UNL     1      47.295  15.140   3.080  1.00  0.00     0.123 C 
ENDBRANCH   5  19
TORSDOF 7
ENDMDL
