MODEL 1
REMARK VINA RESULT: -6.643971530      0.000      0.000
REMARK  6 active torsions:
REMARK  status: ('A' for Active; 'I' for Inactive)
REMARK    1  A    between atoms: O1_1  and  N1_3 
REMARK    2  A    between atoms: C2_5  and  O2_6 
REMARK    3  A    between atoms: O2_6  and  C3_7 
REMARK    4  A    between atoms: C4_8  and  O3_9 
REMARK    5  A    between atoms: C5_11  and  O4_12 
REMARK    6  A    between atoms: N2_16  and  O5_17 
ROOT
HETATM    1  C3  UNL     1      -4.849   1.871  14.216  1.00  0.00     0.278 C 
HETATM    2  C4  UNL     1      -5.253   0.855  15.255  1.00  0.00     0.197 C 
HETATM    3  C5  UNL     1      -6.633   1.167  15.742  1.00  0.00     0.152 C 
HETATM    4  C6  UNL     1      -6.551   2.544  16.415  1.00  0.00     0.056 C 
HETATM    5  C7  UNL     1      -6.219   3.520  15.318  1.00  0.00     0.155 C 
HETATM    6  N2  UNL     1      -5.013   3.221  14.622  1.00  0.00    -0.264 N 
ENDROOT
BRANCH   1   7
HETATM    7  O2  UNL     1      -5.507   1.543  13.035  1.00  0.00    -0.328 OA
BRANCH   7   8
HETATM    8  C2  UNL     1      -4.665   1.367  11.970  1.00  0.00     0.316 A 
HETATM    9  C1  UNL     1      -4.868   0.066  11.195  1.00  0.00     0.247 A 
HETATM   10  N1  UNL     1      -3.491  -0.253  11.485  1.00  0.00    -0.158 N 
HETATM   11  O6  UNL     1      -3.370   0.875  12.260  1.00  0.00    -0.223 OA
BRANCH  10  12
HETATM   12  O1  UNL     1      -2.766  -1.202  11.131  1.00  0.00    -0.267 OA
ATOM     13  H1  UNL     1      -1.907  -1.486  11.422  1.00  0.00     0.247 HD
ENDBRANCH  10  12
ENDBRANCH   7   8
ENDBRANCH   1   7
BRANCH   2  14
HETATM   14  O3  UNL     1      -5.262  -0.392  14.627  1.00  0.00    -0.389 OA
ATOM     15  H3  UNL     1      -4.416  -0.793  14.791  1.00  0.00     0.210 HD
ENDBRANCH   2  14
BRANCH   6  16
HETATM   16  O5  UNL     1      -3.938   3.789  15.165  1.00  0.00    -0.290 OA
ATOM     17  H5  UNL     1      -3.929   4.738  15.152  1.00  0.00     0.244 HD
ENDBRANCH   6  16
BRANCH   3  18
HETATM   18  O4  UNL     1      -7.141   0.211  16.592  1.00  0.00    -0.393 OA
ATOM     19  H4  UNL     1      -7.991  -0.118  16.323  1.00  0.00     0.210 HD
ENDBRANCH   3  18
TORSDOF 6
ENDMDL
MODEL 2
REMARK VINA RESULT: -6.430561608      1.844      4.828
REMARK  6 active torsions:
REMARK  status: ('A' for Active; 'I' for Inactive)
REMARK    1  A    between atoms: O1_1  and  N1_3 
REMARK    2  A    between atoms: C2_5  and  O2_6 
REMARK    3  A    between atoms: O2_6  and  C3_7 
REMARK    4  A    between atoms: C4_8  and  O3_9 
REMARK    5  A    between atoms: C5_11  and  O4_12 
REMARK    6  A    between atoms: N2_16  and  O5_17 
ROOT
HETATM    1  C3  UNL     1      -4.871   1.131  12.571  1.00  0.00     0.278 C 
HETATM    2  C4  UNL     1      -4.712  -0.305  12.137  1.00  0.00     0.197 C 
HETATM    3  C5  UNL     1      -3.302  -0.536  11.696  1.00  0.00     0.152 C 
HETATM    4  C6  UNL     1      -3.080   0.368  10.475  1.00  0.00     0.056 C 
HETATM    5  C7  UNL     1      -3.176   1.780  10.985  1.00  0.00     0.155 C 
HETATM    6  N2  UNL     1      -4.412   2.083  11.623  1.00  0.00    -0.264 N 
ENDROOT
BRANCH   1   7
HETATM    7  O2  UNL     1      -4.292   1.252  13.831  1.00  0.00    -0.328 OA
BRANCH   7   8
HETATM    8  C2  UNL     1      -5.178   1.626  14.806  1.00  0.00     0.316 A 
HETATM    9  C1  UNL     1      -4.724   1.337  16.235  1.00  0.00     0.247 A 
HETATM   10  N1  UNL     1      -5.916   0.538  16.390  1.00  0.00    -0.158 N 
HETATM   11  O6  UNL     1      -6.244   0.734  15.070  1.00  0.00    -0.223 OA
BRANCH  10  12
HETATM   12  O1  UNL     1      -6.392  -0.062  17.373  1.00  0.00    -0.267 OA
ATOM     13  H1  UNL     1      -7.133  -0.652  17.457  1.00  0.00     0.247 HD
ENDBRANCH  10  12
ENDBRANCH   7   8
ENDBRANCH   1   7
BRANCH   2  14
HETATM   14  O3  UNL     1      -4.977  -1.101  13.253  1.00  0.00    -0.389 OA
ATOM     15  H3  UNL     1      -4.503  -0.723  13.985  1.00  0.00     0.210 HD
ENDBRANCH   2  14
BRANCH   6  16
HETATM   16  O5  UNL     1      -5.338   2.546  10.785  1.00  0.00    -0.290 OA
ATOM     17  H5  UNL     1      -5.456   3.488  10.788  1.00  0.00     0.244 HD
ENDBRANCH   6  16
BRANCH   3  18
HETATM   18  O4  UNL     1      -3.028  -1.855  11.413  1.00  0.00    -0.393 OA
ATOM     19  H4  UNL     1      -3.688  -2.455  11.741  1.00  0.00     0.210 HD
ENDBRANCH   3  18
TORSDOF 6
ENDMDL
MODEL 3
REMARK VINA RESULT: -6.378169048      1.903      2.215
REMARK  6 active torsions:
REMARK  status: ('A' for Active; 'I' for Inactive)
REMARK    1  A    between atoms: O1_1  and  N1_3 
REMARK    2  A    between atoms: C2_5  and  O2_6 
REMARK    3  A    between atoms: O2_6  and  C3_7 
REMARK    4  A    between atoms: C4_8  and  O3_9 
REMARK    5  A    between atoms: C5_11  and  O4_12 
REMARK    6  A    between atoms: N2_16  and  O5_17 
ROOT
HETATM    1  C3  UNL     1      -5.074   1.983  14.915  1.00  0.00     0.278 C 
HETATM    2  C4  UNL     1      -4.653   1.534  16.293  1.00  0.00     0.197 C 
HETATM    3  C5  UNL     1      -5.847   1.014  17.030  1.00  0.00     0.152 C 
HETATM    4  C6  UNL     1      -6.811   2.199  17.178  1.00  0.00     0.056 C 
HETATM    5  C7  UNL     1      -7.250   2.550  15.783  1.00  0.00     0.155 C 
HETATM    6  N2  UNL     1      -6.179   2.873  14.901  1.00  0.00    -0.264 N 
ENDROOT
BRANCH   1   7
HETATM    7  O2  UNL     1      -5.249   0.839  14.141  1.00  0.00    -0.328 OA
BRANCH   7   8
HETATM    8  C2  UNL     1      -4.702   0.938  12.889  1.00  0.00     0.316 A 
HETATM    9  C1  UNL     1      -4.209   2.333  12.509  1.00  0.00     0.247 A 
HETATM   10  N1  UNL     1      -5.113   2.281  11.385  1.00  0.00    -0.158 N 
HETATM   11  O6  UNL     1      -5.608   1.072  11.810  1.00  0.00    -0.223 OA
BRANCH  10  12
HETATM   12  O1  UNL     1      -5.308   3.069  10.439  1.00  0.00    -0.267 OA
ATOM     13  H1  UNL     1      -4.741   3.368   9.737  1.00  0.00     0.247 HD
ENDBRANCH  10  12
ENDBRANCH   7   8
ENDBRANCH   1   7
BRANCH   2  14
HETATM   14  O3  UNL     1      -3.734   0.496  16.123  1.00  0.00    -0.389 OA
ATOM     15  H3  UNL     1      -3.847  -0.099  16.855  1.00  0.00     0.210 HD
ENDBRANCH   2  14
BRANCH   6  16
HETATM   16  O5  UNL     1      -5.868   4.168  14.903  1.00  0.00    -0.290 OA
ATOM     17  H5  UNL     1      -5.235   4.436  14.248  1.00  0.00     0.244 HD
ENDBRANCH   6  16
BRANCH   3  18
HETATM   18  O4  UNL     1      -5.534   0.453  18.248  1.00  0.00    -0.393 OA
ATOM     19  H4  UNL     1      -5.878   0.942  18.986  1.00  0.00     0.210 HD
ENDBRANCH   3  18
TORSDOF 6
ENDMDL
MODEL 4
REMARK VINA RESULT: -6.371257217      1.414      1.443
REMARK  6 active torsions:
REMARK  status: ('A' for Active; 'I' for Inactive)
REMARK    1  A    between atoms: O1_1  and  N1_3 
REMARK    2  A    between atoms: C2_5  and  O2_6 
REMARK    3  A    between atoms: O2_6  and  C3_7 
REMARK    4  A    between atoms: C4_8  and  O3_9 
REMARK    5  A    between atoms: C5_11  and  O4_12 
REMARK    6  A    between atoms: N2_16  and  O5_17 
ROOT
HETATM    1  C3  UNL     1      -4.988   2.042  15.018  1.00  0.00     0.278 C 
HETATM    2  C4  UNL     1      -4.616   1.533  16.388  1.00  0.00     0.197 C 
HETATM    3  C5  UNL     1      -5.841   1.015  17.073  1.00  0.00     0.152 C 
HETATM    4  C6  UNL     1      -6.782   2.216  17.239  1.00  0.00     0.056 C 
HETATM    5  C7  UNL     1      -7.174   2.628  15.847  1.00  0.00     0.155 C 
HETATM    6  N2  UNL     1      -6.072   2.958  15.007  1.00  0.00    -0.264 N 
ENDROOT
BRANCH   1   7
HETATM    7  O2  UNL     1      -5.167   0.932  14.196  1.00  0.00    -0.328 OA
BRANCH   7   8
HETATM    8  C2  UNL     1      -4.842   1.163  12.886  1.00  0.00     0.316 A 
HETATM    9  C1  UNL     1      -4.474  -0.084  12.085  1.00  0.00     0.247 A 
HETATM   10  N1  UNL     1      -3.198   0.536  11.818  1.00  0.00    -0.158 N 
HETATM   11  O6  UNL     1      -3.520   1.597  12.629  1.00  0.00    -0.223 OA
BRANCH  10  12
HETATM   12  O1  UNL     1      -2.233   0.181  11.113  1.00  0.00    -0.267 OA
ATOM     13  H1  UNL     1      -1.794  -0.656  11.016  1.00  0.00     0.247 HD
ENDBRANCH  10  12
ENDBRANCH   7   8
ENDBRANCH   1   7
BRANCH   2  14
HETATM   14  O3  UNL     1      -3.716   0.481  16.205  1.00  0.00    -0.389 OA
ATOM     15  H3  UNL     1      -4.171  -0.193  15.712  1.00  0.00     0.210 HD
ENDBRANCH   2  14
BRANCH   6  16
HETATM   16  O5  UNL     1      -5.732   4.244  15.066  1.00  0.00    -0.290 OA
ATOM     17  H5  UNL     1      -5.793   4.643  15.925  1.00  0.00     0.244 HD
ENDBRANCH   6  16
BRANCH   3  18
HETATM   18  O4  UNL     1      -5.575   0.403  18.277  1.00  0.00    -0.393 OA
ATOM     19  H4  UNL     1      -6.207  -0.269  18.505  1.00  0.00     0.210 HD
ENDBRANCH   3  18
TORSDOF 6
ENDMDL
MODEL 5
REMARK VINA RESULT: -6.354107404      1.549      1.883
REMARK  6 active torsions:
REMARK  status: ('A' for Active; 'I' for Inactive)
REMARK    1  A    between atoms: O1_1  and  N1_3 
REMARK    2  A    between atoms: C2_5  and  O2_6 
REMARK    3  A    between atoms: O2_6  and  C3_7 
REMARK    4  A    between atoms: C4_8  and  O3_9 
REMARK    5  A    between atoms: C5_11  and  O4_12 
REMARK    6  A    between atoms: N2_16  and  O5_17 
ROOT
HETATM    1  C3  UNL     1      -4.931   1.854  14.358  1.00  0.00     0.278 C 
HETATM    2  C4  UNL     1      -5.298   0.831  15.403  1.00  0.00     0.197 C 
HETATM    3  C5  UNL     1      -6.671   1.122  15.921  1.00  0.00     0.152 C 
HETATM    4  C6  UNL     1      -6.594   2.499  16.594  1.00  0.00     0.056 C 
HETATM    5  C7  UNL     1      -6.300   3.481  15.492  1.00  0.00     0.155 C 
HETATM    6  N2  UNL     1      -5.106   3.201  14.769  1.00  0.00    -0.264 N 
ENDROOT
BRANCH   1   7
HETATM    7  O2  UNL     1      -5.610   1.518  13.190  1.00  0.00    -0.328 OA
BRANCH   7   8
HETATM    8  C2  UNL     1      -4.797   1.422  12.093  1.00  0.00     0.316 A 
HETATM    9  C1  UNL     1      -3.863   2.611  11.877  1.00  0.00     0.247 A 
HETATM   10  N1  UNL     1      -4.476   2.781  10.581  1.00  0.00    -0.158 N 
HETATM   11  O6  UNL     1      -5.370   1.772  10.847  1.00  0.00    -0.223 OA
BRANCH  10  12
HETATM   12  O1  UNL     1      -4.230   3.563   9.642  1.00  0.00    -0.267 OA
ATOM     13  H1  UNL     1      -3.803   4.411   9.620  1.00  0.00     0.247 HD
ENDBRANCH  10  12
ENDBRANCH   7   8
ENDBRANCH   1   7
BRANCH   2  14
HETATM   14  O3  UNL     1      -5.303  -0.416  14.774  1.00  0.00    -0.389 OA
ATOM     15  H3  UNL     1      -5.825  -0.999  15.313  1.00  0.00     0.210 HD
ENDBRANCH   2  14
BRANCH   6  16
HETATM   16  O5  UNL     1      -4.027   3.783  15.290  1.00  0.00    -0.290 OA
ATOM     17  H5  UNL     1      -3.406   3.196  15.702  1.00  0.00     0.244 HD
ENDBRANCH   6  16
BRANCH   3  18
HETATM   18  O4  UNL     1      -7.146   0.158  16.780  1.00  0.00    -0.393 OA
ATOM     19  H4  UNL     1      -8.094   0.086  16.778  1.00  0.00     0.210 HD
ENDBRANCH   3  18
TORSDOF 6
ENDMDL
