MODEL 1
REMARK VINA RESULT: -7.706455682      0.000      0.000
REMARK  8 active torsions:
REMARK  status: ('A' for Active; 'I' for Inactive)
REMARK    1  A    between atoms: C2_2  and  C3_3 
REMARK    2  A    between atoms: C3_3  and  C4_4 
REMARK    3  A    between atoms: C4_4  and  C5_5 
REMARK    4  A    between atoms: C4_4  and  C10_14 
REMARK    5  A    between atoms: N2_10  and  C8_11 
REMARK    6  A    between atoms: C8_11  and  C9_12 
REMARK    7  A    between atoms: C10_14  and  C11_15 
REMARK    8  A    between atoms: C11_15  and  N3_16 
ROOT
HETATM    1  C4  UNL     1      28.541  20.709  13.511  1.00  0.00     0.033 C 
ENDROOT
BRANCH   1   2
HETATM    2  C3  UNL     1      27.452  20.044  14.282  1.00  0.00     0.036 C 
BRANCH   2   3
HETATM    3  C2  UNL     1      26.141  20.580  13.892  1.00  0.00    -0.036 C 
HETATM    4  C1  UNL     1      25.430  20.066  12.904  1.00  0.00     0.007 C 
ENDBRANCH   2   3
ENDBRANCH   1   2
BRANCH   1   5
HETATM    5  C5  UNL     1      29.561  21.338  14.394  1.00  0.00     0.121 C 
HETATM    6  N1  UNL     1      29.476  22.583  14.749  1.00  0.00    -0.178 N 
HETATM    7  O1  UNL     1      28.452  23.423  14.351  1.00  0.00    -0.257 OA
HETATM    8  N2  UNL     1      30.351  23.294  15.557  1.00  0.00    -0.294 N 
HETATM    9  C6  UNL     1      28.814  24.750  14.597  1.00  0.00     0.225 C 
HETATM   10  C7  UNL     1      29.948  24.685  15.566  1.00  0.00     0.174 C 
BRANCH   8  11
HETATM   11  C8  UNL     1      31.473  22.683  16.252  1.00  0.00     0.214 C 
BRANCH  11  12
HETATM   12  C9  UNL     1      32.774  23.141  15.716  1.00  0.00     0.252 C 
HETATM   13  O2  UNL     1      32.916  23.456  14.559  1.00  0.00    -0.305 OA
ENDBRANCH  11  12
ENDBRANCH   8  11
ENDBRANCH   1   5
BRANCH   1  14
HETATM   14  C10 UNL     1      29.183  19.794  12.492  1.00  0.00     0.030 C 
BRANCH  14  15
HETATM   15  C11 UNL     1      28.892  20.253  11.079  1.00  0.00     0.126 C 
BRANCH  15  16
HETATM   16  N3  UNL     1      30.056  20.861  10.478  1.00  0.00    -0.352 N 
HETATM   17  C12 UNL     1      31.077  20.170   9.700  1.00  0.00     0.126 C 
HETATM   18  C13 UNL     1      31.567  21.248   8.758  1.00  0.00     0.029 C 
HETATM   19  C14 UNL     1      31.430  22.544   9.537  1.00  0.00     0.104 C 
HETATM   20  C15 UNL     1      30.393  22.241  10.549  1.00  0.00     0.219 C 
HETATM   21  O3  UNL     1      29.900  23.088  11.338  1.00  0.00    -0.273 OA
ENDBRANCH  15  16
ENDBRANCH  14  15
ENDBRANCH   1  14
TORSDOF 8
ENDMDL
MODEL 2
REMARK VINA RESULT: -7.694668291      2.010      2.821
REMARK  8 active torsions:
REMARK  status: ('A' for Active; 'I' for Inactive)
REMARK    1  A    between atoms: C2_2  and  C3_3 
REMARK    2  A    between atoms: C3_3  and  C4_4 
REMARK    3  A    between atoms: C4_4  and  C5_5 
REMARK    4  A    between atoms: C4_4  and  C10_14 
REMARK    5  A    between atoms: N2_10  and  C8_11 
REMARK    6  A    between atoms: C8_11  and  C9_12 
REMARK    7  A    between atoms: C10_14  and  C11_15 
REMARK    8  A    between atoms: C11_15  and  N3_16 
ROOT
HETATM    1  C4  UNL     1      29.655  22.228  11.150  1.00  0.00     0.033 C 
ENDROOT
BRANCH   1   2
HETATM    2  C3  UNL     1      29.057  20.915  10.775  1.00  0.00     0.036 C 
BRANCH   2   3
HETATM    3  C2  UNL     1      28.068  20.494  11.777  1.00  0.00    -0.036 C 
HETATM    4  C1  UNL     1      26.981  19.814  11.459  1.00  0.00     0.007 C 
ENDBRANCH   2   3
ENDBRANCH   1   2
BRANCH   1   5
HETATM    5  C5  UNL     1      30.175  22.239  12.545  1.00  0.00     0.121 C 
HETATM    6  N1  UNL     1      29.748  23.096  13.420  1.00  0.00    -0.178 N 
HETATM    7  O1  UNL     1      28.792  24.057  13.146  1.00  0.00    -0.257 OA
HETATM    8  N2  UNL     1      30.144  23.223  14.743  1.00  0.00    -0.294 N 
HETATM    9  C6  UNL     1      28.799  25.025  14.154  1.00  0.00     0.225 C 
HETATM   10  C7  UNL     1      29.519  24.402  15.305  1.00  0.00     0.174 C 
BRANCH   8  11
HETATM   11  C8  UNL     1      31.046  22.290  15.400  1.00  0.00     0.214 C 
BRANCH  11  12
HETATM   12  C9  UNL     1      32.406  22.852  15.563  1.00  0.00     0.252 C 
HETATM   13  O2  UNL     1      32.959  23.459  14.676  1.00  0.00    -0.305 OA
ENDBRANCH  11  12
ENDBRANCH   8  11
ENDBRANCH   1   5
BRANCH   1  14
HETATM   14  C10 UNL     1      30.706  22.697  10.168  1.00  0.00     0.030 C 
BRANCH  14  15
HETATM   15  C11 UNL     1      30.860  21.723   9.019  1.00  0.00     0.126 C 
BRANCH  15  16
HETATM   16  N3  UNL     1      32.252  21.493   8.713  1.00  0.00    -0.352 N 
HETATM   17  C12 UNL     1      33.376  22.289   9.191  1.00  0.00     0.126 C 
HETATM   18  C13 UNL     1      34.506  21.284   9.231  1.00  0.00     0.029 C 
HETATM   19  C14 UNL     1      34.213  20.317   8.097  1.00  0.00     0.104 C 
HETATM   20  C15 UNL     1      32.752  20.446   7.891  1.00  0.00     0.219 C 
HETATM   21  O3  UNL     1      32.079  19.729   7.106  1.00  0.00    -0.273 OA
ENDBRANCH  15  16
ENDBRANCH  14  15
ENDBRANCH   1  14
TORSDOF 8
ENDMDL
MODEL 3
REMARK VINA RESULT: -7.653603604      2.398      5.140
REMARK  8 active torsions:
REMARK  status: ('A' for Active; 'I' for Inactive)
REMARK    1  A    between atoms: C2_2  and  C3_3 
REMARK    2  A    between atoms: C3_3  and  C4_4 
REMARK    3  A    between atoms: C4_4  and  C5_5 
REMARK    4  A    between atoms: C4_4  and  C10_14 
REMARK    5  A    between atoms: N2_10  and  C8_11 
REMARK    6  A    between atoms: C8_11  and  C9_12 
REMARK    7  A    between atoms: C10_14  and  C11_15 
REMARK    8  A    between atoms: C11_15  and  N3_16 
ROOT
HETATM    1  C4  UNL     1      29.119  20.819  11.352  1.00  0.00     0.033 C 
ENDROOT
BRANCH   1   2
HETATM    2  C3  UNL     1      29.505  21.279   9.988  1.00  0.00     0.036 C 
BRANCH   2   3
HETATM    3  C2  UNL     1      30.504  22.354  10.070  1.00  0.00    -0.036 C 
HETATM    4  C1  UNL     1      31.597  22.365   9.328  1.00  0.00     0.007 C 
ENDBRANCH   2   3
ENDBRANCH   1   2
BRANCH   1   5
HETATM    5  C5  UNL     1      29.451  21.817  12.405  1.00  0.00     0.121 C 
HETATM    6  N1  UNL     1      29.688  21.458  13.629  1.00  0.00    -0.178 N 
HETATM    7  O1  UNL     1      29.654  20.145  14.061  1.00  0.00    -0.257 OA
HETATM    8  N2  UNL     1      30.002  22.275  14.704  1.00  0.00    -0.294 N 
HETATM    9  C6  UNL     1      29.603  20.112  15.457  1.00  0.00     0.225 C 
HETATM   10  C7  UNL     1      30.037  21.469  15.907  1.00  0.00     0.174 C 
BRANCH   8  11
HETATM   11  C8  UNL     1      30.245  23.704  14.579  1.00  0.00     0.214 C 
BRANCH  11  12
HETATM   12  C9  UNL     1      29.011  24.496  14.781  1.00  0.00     0.252 C 
HETATM   13  O2  UNL     1      28.619  25.295  13.963  1.00  0.00    -0.305 OA
ENDBRANCH  11  12
ENDBRANCH   8  11
ENDBRANCH   1   5
BRANCH   1  14
HETATM   14  C10 UNL     1      27.671  20.389  11.439  1.00  0.00     0.030 C 
BRANCH  14  15
HETATM   15  C11 UNL     1      27.551  18.951  11.898  1.00  0.00     0.126 C 
BRANCH  15  16
HETATM   16  N3  UNL     1      26.790  18.856  13.122  1.00  0.00    -0.352 N 
HETATM   17  C12 UNL     1      25.826  19.836  13.608  1.00  0.00     0.126 C 
HETATM   18  C13 UNL     1      24.860  18.987  14.406  1.00  0.00     0.029 C 
HETATM   19  C14 UNL     1      25.703  17.859  14.973  1.00  0.00     0.104 C 
HETATM   20  C15 UNL     1      26.860  17.783  14.052  1.00  0.00     0.219 C 
HETATM   21  O3  UNL     1      27.753  16.899  14.104  1.00  0.00    -0.273 OA
ENDBRANCH  15  16
ENDBRANCH  14  15
ENDBRANCH   1  14
TORSDOF 8
ENDMDL
MODEL 4
REMARK VINA RESULT: -7.588540378      1.106      1.395
REMARK  8 active torsions:
REMARK  status: ('A' for Active; 'I' for Inactive)
REMARK    1  A    between atoms: C2_2  and  C3_3 
REMARK    2  A    between atoms: C3_3  and  C4_4 
REMARK    3  A    between atoms: C4_4  and  C5_5 
REMARK    4  A    between atoms: C4_4  and  C10_14 
REMARK    5  A    between atoms: N2_10  and  C8_11 
REMARK    6  A    between atoms: C8_11  and  C9_12 
REMARK    7  A    between atoms: C10_14  and  C11_15 
REMARK    8  A    between atoms: C11_15  and  N3_16 
ROOT
HETATM    1  C4  UNL     1      28.655  21.398  12.456  1.00  0.00     0.033 C 
ENDROOT
BRANCH   1   2
HETATM    2  C3  UNL     1      27.731  20.286  12.817  1.00  0.00     0.036 C 
BRANCH   2   3
HETATM    3  C2  UNL     1      26.642  20.777  13.673  1.00  0.00    -0.036 C 
HETATM    4  C1  UNL     1      25.432  20.249  13.655  1.00  0.00     0.007 C 
ENDBRANCH   2   3
ENDBRANCH   1   2
BRANCH   1   5
HETATM    5  C5  UNL     1      29.593  21.740  13.560  1.00  0.00     0.121 C 
HETATM    6  N1  UNL     1      29.480  22.848  14.227  1.00  0.00    -0.178 N 
HETATM    7  O1  UNL     1      28.499  23.792  13.981  1.00  0.00    -0.257 OA
HETATM    8  N2  UNL     1      30.279  23.293  15.269  1.00  0.00    -0.294 N 
HETATM    9  C6  UNL     1      28.842  24.995  14.604  1.00  0.00     0.225 C 
HETATM   10  C7  UNL     1      29.882  24.642  15.615  1.00  0.00     0.174 C 
BRANCH   8  11
HETATM   11  C8  UNL     1      31.331  22.488  15.871  1.00  0.00     0.214 C 
BRANCH  11  12
HETATM   12  C9  UNL     1      32.676  23.050  15.614  1.00  0.00     0.252 C 
HETATM   13  O2  UNL     1      32.981  23.520  14.543  1.00  0.00    -0.305 OA
ENDBRANCH  11  12
ENDBRANCH   8  11
ENDBRANCH   1   5
BRANCH   1  14
HETATM   14  C10 UNL     1      29.397  21.150  11.161  1.00  0.00     0.030 C 
BRANCH  14  15
HETATM   15  C11 UNL     1      29.915  22.442  10.567  1.00  0.00     0.126 C 
BRANCH  15  16
HETATM   16  N3  UNL     1      31.041  22.201   9.695  1.00  0.00    -0.352 N 
HETATM   17  C12 UNL     1      31.085  21.237   8.602  1.00  0.00     0.126 C 
HETATM   18  C13 UNL     1      32.065  21.869   7.638  1.00  0.00     0.029 C 
HETATM   19  C14 UNL     1      33.049  22.623   8.515  1.00  0.00     0.104 C 
HETATM   20  C15 UNL     1      32.293  22.871   9.764  1.00  0.00     0.219 C 
HETATM   21  O3  UNL     1      32.713  23.569  10.722  1.00  0.00    -0.273 OA
ENDBRANCH  15  16
ENDBRANCH  14  15
ENDBRANCH   1  14
TORSDOF 8
ENDMDL
MODEL 5
REMARK VINA RESULT: -7.563460021      2.542      6.003
REMARK  8 active torsions:
REMARK  status: ('A' for Active; 'I' for Inactive)
REMARK    1  A    between atoms: C2_2  and  C3_3 
REMARK    2  A    between atoms: C3_3  and  C4_4 
REMARK    3  A    between atoms: C4_4  and  C5_5 
REMARK    4  A    between atoms: C4_4  and  C10_14 
REMARK    5  A    between atoms: N2_10  and  C8_11 
REMARK    6  A    between atoms: C8_11  and  C9_12 
REMARK    7  A    between atoms: C10_14  and  C11_15 
REMARK    8  A    between atoms: C11_15  and  N3_16 
ROOT
HETATM    1  C4  UNL     1      29.879  21.628  10.289  1.00  0.00     0.033 C 
ENDROOT
BRANCH   1   2
HETATM    2  C3  UNL     1      30.600  21.719   8.988  1.00  0.00     0.036 C 
BRANCH   2   3
HETATM    3  C2  UNL     1      31.568  20.621   8.857  1.00  0.00    -0.036 C 
HETATM    4  C1  UNL     1      32.873  20.824   8.847  1.00  0.00     0.007 C 
ENDBRANCH   2   3
ENDBRANCH   1   2
BRANCH   1   5
HETATM    5  C5  UNL     1      29.847  20.240  10.827  1.00  0.00     0.121 C 
HETATM    6  N1  UNL     1      28.783  19.756  11.390  1.00  0.00    -0.178 N 
HETATM    7  O1  UNL     1      27.606  20.467  11.540  1.00  0.00    -0.257 OA
HETATM    8  N2  UNL     1      28.615  18.492  11.934  1.00  0.00    -0.294 N 
HETATM    9  C6  UNL     1      26.785  19.823  12.470  1.00  0.00     0.225 C 
HETATM   10  C7  UNL     1      27.323  18.434  12.585  1.00  0.00     0.174 C 
BRANCH   8  11
HETATM   11  C8  UNL     1      29.614  17.439  11.835  1.00  0.00     0.214 C 
BRANCH  11  12
HETATM   12  C9  UNL     1      29.004  16.090  11.862  1.00  0.00     0.252 C 
HETATM   13  O2  UNL     1      29.287  15.276  12.709  1.00  0.00    -0.305 OA
ENDBRANCH  11  12
ENDBRANCH   8  11
ENDBRANCH   1   5
BRANCH   1  14
HETATM   14  C10 UNL     1      30.401  22.605  11.320  1.00  0.00     0.030 C 
BRANCH  14  15
HETATM   15  C11 UNL     1      29.271  23.213  12.124  1.00  0.00     0.126 C 
BRANCH  15  16
HETATM   16  N3  UNL     1      29.564  23.187  13.537  1.00  0.00    -0.352 N 
HETATM   17  C12 UNL     1      30.114  22.056  14.277  1.00  0.00     0.126 C 
HETATM   18  C13 UNL     1      30.874  22.728  15.399  1.00  0.00     0.029 C 
HETATM   19  C14 UNL     1      30.097  23.997  15.697  1.00  0.00     0.104 C 
HETATM   20  C15 UNL     1      29.363  24.267  14.439  1.00  0.00     0.219 C 
HETATM   21  O3  UNL     1      28.676  25.299  14.225  1.00  0.00    -0.273 OA
ENDBRANCH  15  16
ENDBRANCH  14  15
ENDBRANCH   1  14
TORSDOF 8
ENDMDL
