MODEL 1
REMARK VINA RESULT: -4.305845572      0.000      0.000
REMARK  2 active torsions:
REMARK  status: ('A' for Active; 'I' for Inactive)
REMARK    1  A    between atoms: S1_2  and  S2_3 
REMARK    2  A    between atoms: S2_3  and  C2_4 
ROOT
HETATM    1  C2  UNL     1      52.086  21.918  28.382  1.00  0.00     0.085 C 
HETATM    2  C3  UNL     1      50.845  22.548  28.989  1.00  0.00     0.045 C 
HETATM    3  C4  UNL     1      51.256  22.863  30.391  1.00  0.00     0.233 C 
HETATM    4  N1  UNL     1      52.369  22.031  30.742  1.00  0.00    -0.074 N 
ATOM      5  H11 UNL     1      52.148  21.379  31.494  1.00  0.00     0.277 HD
ATOM      6  H12 UNL     1      53.108  22.548  31.217  1.00  0.00     0.277 HD
HETATM    7  C5  UNL     1      52.836  21.366  29.558  1.00  0.00     0.248 C 
ENDROOT
BRANCH   1   8
HETATM    8  S2  UNL     1      52.994  23.229  27.526  1.00  0.00    -0.091 SA
BRANCH   8   9
HETATM    9  S1  UNL     1      55.075  22.755  27.659  1.00  0.00    -0.102 SA
HETATM   10  C1  UNL     1      55.667  22.651  25.937  1.00  0.00     0.102 C 
ENDBRANCH   8   9
ENDBRANCH   1   8
TORSDOF 2
ENDMDL
MODEL 2
REMARK VINA RESULT: -4.279129088      3.170      4.827
REMARK  2 active torsions:
REMARK  status: ('A' for Active; 'I' for Inactive)
REMARK    1  A    between atoms: S1_2  and  S2_3 
REMARK    2  A    between atoms: S2_3  and  C2_4 
ROOT
HETATM    1  C2  UNL     1      51.502  22.958  29.963  1.00  0.00     0.085 C 
HETATM    2  C3  UNL     1      51.727  23.104  28.468  1.00  0.00     0.045 C 
HETATM    3  C4  UNL     1      51.862  21.695  27.989  1.00  0.00     0.233 C 
HETATM    4  N1  UNL     1      52.239  20.867  29.098  1.00  0.00    -0.074 N 
ATOM      5  H11 UNL     1      53.165  20.458  28.983  1.00  0.00     0.277 HD
ATOM      6  H12 UNL     1      51.705  19.999  29.135  1.00  0.00     0.277 HD
HETATM    7  C5  UNL     1      52.124  21.637  30.305  1.00  0.00     0.248 C 
ENDROOT
BRANCH   1   8
HETATM    8  S2  UNL     1      49.714  22.984  30.245  1.00  0.00    -0.091 SA
BRANCH   8   9
HETATM    9  S1  UNL     1      49.400  23.504  32.295  1.00  0.00    -0.102 SA
HETATM   10  C1  UNL     1      49.093  21.928  33.161  1.00  0.00     0.102 C 
ENDBRANCH   8   9
ENDBRANCH   1   8
TORSDOF 2
ENDMDL
MODEL 3
REMARK VINA RESULT: -4.102513411      2.887      3.845
REMARK  2 active torsions:
REMARK  status: ('A' for Active; 'I' for Inactive)
REMARK    1  A    between atoms: S1_2  and  S2_3 
REMARK    2  A    between atoms: S2_3  and  C2_4 
ROOT
HETATM    1  C2  UNL     1      50.579  23.220  31.460  1.00  0.00     0.085 C 
HETATM    2  C3  UNL     1      50.716  21.828  32.051  1.00  0.00     0.045 C 
HETATM    3  C4  UNL     1      49.404  21.599  32.730  1.00  0.00     0.233 C 
HETATM    4  N1  UNL     1      48.799  22.870  32.999  1.00  0.00    -0.074 N 
ATOM      5  H11 UNL     1      48.705  23.055  33.998  1.00  0.00     0.277 HD
ATOM      6  H12 UNL     1      47.808  22.889  32.759  1.00  0.00     0.277 HD
HETATM    7  C5  UNL     1      49.549  23.889  32.320  1.00  0.00     0.248 C 
ENDROOT
BRANCH   1   8
HETATM    8  S2  UNL     1      50.040  23.028  29.743  1.00  0.00    -0.091 SA
BRANCH   8   9
HETATM    9  S1  UNL     1      51.613  22.035  28.689  1.00  0.00    -0.102 SA
HETATM   10  C1  UNL     1      52.566  23.357  27.868  1.00  0.00     0.102 C 
ENDBRANCH   8   9
ENDBRANCH   1   8
TORSDOF 2
ENDMDL
MODEL 4
REMARK VINA RESULT: -4.045817700      3.134      4.879
REMARK  2 active torsions:
REMARK  status: ('A' for Active; 'I' for Inactive)
REMARK    1  A    between atoms: S1_2  and  S2_3 
REMARK    2  A    between atoms: S2_3  and  C2_4 
ROOT
HETATM    1  C2  UNL     1      51.014  21.986  29.717  1.00  0.00     0.085 C 
HETATM    2  C3  UNL     1      52.235  21.504  28.954  1.00  0.00     0.045 C 
HETATM    3  C4  UNL     1      52.769  22.746  28.316  1.00  0.00     0.233 C 
HETATM    4  N1  UNL     1      51.712  23.710  28.233  1.00  0.00    -0.074 N 
ATOM      5  H11 UNL     1      51.461  23.934  27.270  1.00  0.00     0.277 HD
ATOM      6  H12 UNL     1      52.011  24.642  28.520  1.00  0.00     0.277 HD
HETATM    7  C5  UNL     1      50.593  23.231  28.996  1.00  0.00     0.248 C 
ENDROOT
BRANCH   1   8
HETATM    8  S2  UNL     1      51.533  22.305  31.422  1.00  0.00    -0.091 SA
BRANCH   8   9
HETATM    9  S1  UNL     1      49.772  22.300  32.635  1.00  0.00    -0.102 SA
HETATM   10  C1  UNL     1      49.070  23.977  32.490  1.00  0.00     0.102 C 
ENDBRANCH   8   9
ENDBRANCH   1   8
TORSDOF 2
ENDMDL
MODEL 5
REMARK VINA RESULT: -4.028777637      3.149      4.989
REMARK  2 active torsions:
REMARK  status: ('A' for Active; 'I' for Inactive)
REMARK    1  A    between atoms: S1_2  and  S2_3 
REMARK    2  A    between atoms: S2_3  and  C2_4 
ROOT
HETATM    1  C2  UNL     1      51.150  22.056  29.794  1.00  0.00     0.085 C 
HETATM    2  C3  UNL     1      52.317  21.182  29.368  1.00  0.00     0.045 C 
HETATM    3  C4  UNL     1      53.251  22.138  28.699  1.00  0.00     0.233 C 
HETATM    4  N1  UNL     1      52.507  23.288  28.276  1.00  0.00    -0.074 N 
ATOM      5  H11 UNL     1      52.487  23.390  27.262  1.00  0.00     0.277 HD
ATOM      6  H12 UNL     1      52.983  24.163  28.497  1.00  0.00     0.277 HD
HETATM    7  C5  UNL     1      51.191  23.218  28.847  1.00  0.00     0.248 C 
ENDROOT
BRANCH   1   8
HETATM    8  S2  UNL     1      51.439  22.544  31.513  1.00  0.00    -0.091 SA
BRANCH   8   9
HETATM    9  S1  UNL     1      49.563  23.177  32.320  1.00  0.00    -0.102 SA
HETATM   10  C1  UNL     1      48.875  21.716  33.170  1.00  0.00     0.102 C 
ENDBRANCH   8   9
ENDBRANCH   1   8
TORSDOF 2
ENDMDL
