MODEL 1
REMARK VINA RESULT: -5.795455645      0.000      0.000
REMARK  2 active torsions:
REMARK  status: ('A' for Active; 'I' for Inactive)
REMARK    1  A    between atoms: C2_2  and  C3_3 
REMARK    2  A    between atoms: C5_5  and  C6_6 
REMARK       I    between atoms: N1_7  and  C7_9 
ROOT
HETATM    1  C6  UNL     1      53.031  23.754  27.600  1.00  0.00     0.070 C 
HETATM    2  N1  UNL     1      54.015  24.035  26.818  1.00  0.00    -0.325 N 
ATOM      3  H1  UNL     1      54.083  24.978  26.436  1.00  0.00     0.169 HD
HETATM    4  C7  UNL     1      54.999  23.090  26.469  1.00  0.00     0.332 C 
HETATM    5  N2  UNL     1      56.089  22.811  27.344  1.00  0.00    -0.040 NA
HETATM    6  O1  UNL     1      54.908  22.494  25.377  1.00  0.00    -0.251 OA
ENDROOT
BRANCH   1   7
HETATM    7  C5  UNL     1      52.851  22.427  28.196  1.00  0.00     0.032 A 
HETATM    8  C3  UNL     1      51.904  22.146  29.270  1.00  0.00     0.017 A 
HETATM    9  C4  UNL     1      51.543  21.667  27.875  1.00  0.00     0.019 A 
BRANCH   8  10
HETATM   10  C2  UNL     1      50.962  23.180  29.789  1.00  0.00    -0.032 C 
HETATM   11  C1  UNL     1      49.755  23.220  29.258  1.00  0.00     0.007 C 
ENDBRANCH   8  10
ENDBRANCH   1   7
TORSDOF 2
ENDMDL
MODEL 2
REMARK VINA RESULT: -5.744365057      1.395      1.673
REMARK  2 active torsions:
REMARK  status: ('A' for Active; 'I' for Inactive)
REMARK    1  A    between atoms: C2_2  and  C3_3 
REMARK    2  A    between atoms: C5_5  and  C6_6 
REMARK       I    between atoms: N1_7  and  C7_9 
ROOT
HETATM    1  C6  UNL     1      53.474  22.117  28.451  1.00  0.00     0.070 C 
HETATM    2  N1  UNL     1      54.660  22.382  28.025  1.00  0.00    -0.325 N 
ATOM      3  H1  UNL     1      55.459  22.086  28.586  1.00  0.00     0.169 HD
HETATM    4  C7  UNL     1      54.897  23.065  26.816  1.00  0.00     0.332 C 
HETATM    5  N2  UNL     1      54.863  22.378  25.568  1.00  0.00    -0.040 NA
HETATM    6  O1  UNL     1      55.139  24.288  26.848  1.00  0.00    -0.251 OA
ENDROOT
BRANCH   1   7
HETATM    7  C5  UNL     1      52.267  22.502  27.714  1.00  0.00     0.032 A 
HETATM    8  C3  UNL     1      50.999  22.829  28.357  1.00  0.00     0.017 A 
HETATM    9  C4  UNL     1      51.816  23.980  27.796  1.00  0.00     0.019 A 
BRANCH   8  10
HETATM   10  C2  UNL     1      50.853  22.891  29.840  1.00  0.00    -0.032 C 
HETATM   11  C1  UNL     1      49.692  23.299  30.318  1.00  0.00     0.007 C 
ENDBRANCH   8  10
ENDBRANCH   1   7
TORSDOF 2
ENDMDL
MODEL 3
REMARK VINA RESULT: -5.711396648      1.147      1.187
REMARK  2 active torsions:
REMARK  status: ('A' for Active; 'I' for Inactive)
REMARK    1  A    between atoms: C2_2  and  C3_3 
REMARK    2  A    between atoms: C5_5  and  C6_6 
REMARK       I    between atoms: N1_7  and  C7_9 
ROOT
HETATM    1  C6  UNL     1      52.611  22.633  26.894  1.00  0.00     0.070 C 
HETATM    2  N1  UNL     1      53.590  22.850  26.086  1.00  0.00    -0.325 N 
ATOM      3  H1  UNL     1      53.410  22.837  25.083  1.00  0.00     0.169 HD
HETATM    4  C7  UNL     1      54.901  23.105  26.535  1.00  0.00     0.332 C 
HETATM    5  N2  UNL     1      55.287  24.406  26.969  1.00  0.00    -0.040 NA
HETATM    6  O1  UNL     1      55.729  22.172  26.549  1.00  0.00    -0.251 OA
ENDROOT
BRANCH   1   7
HETATM    7  C5  UNL     1      52.775  22.633  28.350  1.00  0.00     0.032 A 
HETATM    8  C3  UNL     1      51.681  22.868  29.287  1.00  0.00     0.017 A 
HETATM    9  C4  UNL     1      52.183  21.442  29.140  1.00  0.00     0.019 A 
BRANCH   8  10
HETATM   10  C2  UNL     1      50.270  23.035  28.833  1.00  0.00    -0.032 C 
HETATM   11  C1  UNL     1      49.416  23.561  29.691  1.00  0.00     0.007 C 
ENDBRANCH   8  10
ENDBRANCH   1   7
TORSDOF 2
ENDMDL
MODEL 4
REMARK VINA RESULT: -5.700927348      4.114      5.252
REMARK  2 active torsions:
REMARK  status: ('A' for Active; 'I' for Inactive)
REMARK    1  A    between atoms: C2_2  and  C3_3 
REMARK    2  A    between atoms: C5_5  and  C6_6 
REMARK       I    between atoms: N1_7  and  C7_9 
ROOT
HETATM    1  C6  UNL     1      51.962  22.495  30.484  1.00  0.00     0.070 C 
HETATM    2  N1  UNL     1      51.576  22.544  31.711  1.00  0.00    -0.325 N 
ATOM      3  H1  UNL     1      52.265  22.392  32.448  1.00  0.00     0.169 HD
HETATM    4  C7  UNL     1      50.240  22.800  32.076  1.00  0.00     0.332 C 
HETATM    5  N2  UNL     1      49.733  24.131  32.116  1.00  0.00    -0.040 NA
HETATM    6  O1  UNL     1      49.498  21.841  32.368  1.00  0.00    -0.251 OA
ENDROOT
BRANCH   1   7
HETATM    7  C5  UNL     1      51.044  22.701  29.360  1.00  0.00     0.032 A 
HETATM    8  C3  UNL     1      51.428  23.353  28.112  1.00  0.00     0.017 A 
HETATM    9  C4  UNL     1      51.258  21.844  28.091  1.00  0.00     0.019 A 
BRANCH   8  10
HETATM   10  C2  UNL     1      52.831  23.781  27.839  1.00  0.00    -0.032 C 
HETATM   11  C1  UNL     1      53.508  23.098  26.936  1.00  0.00     0.007 C 
ENDBRANCH   8  10
ENDBRANCH   1   7
TORSDOF 2
ENDMDL
MODEL 5
REMARK VINA RESULT: -5.654913740      1.312      1.885
REMARK  2 active torsions:
REMARK  status: ('A' for Active; 'I' for Inactive)
REMARK    1  A    between atoms: C2_2  and  C3_3 
REMARK    2  A    between atoms: C5_5  and  C6_6 
REMARK       I    between atoms: N1_7  and  C7_9 
ROOT
HETATM    1  C6  UNL     1      54.488  22.599  27.874  1.00  0.00     0.070 C 
HETATM    2  N1  UNL     1      55.660  22.559  27.342  1.00  0.00    -0.325 N 
ATOM      3  H1  UNL     1      56.466  22.391  27.944  1.00  0.00     0.169 HD
HETATM    4  C7  UNL     1      55.872  22.738  25.961  1.00  0.00     0.332 C 
HETATM    5  N2  UNL     1      55.683  21.664  25.044  1.00  0.00    -0.040 NA
HETATM    6  O1  UNL     1      56.231  23.858  25.543  1.00  0.00    -0.251 OA
ENDROOT
BRANCH   1   7
HETATM    7  C5  UNL     1      53.273  22.834  27.089  1.00  0.00     0.032 A 
HETATM    8  C3  UNL     1      51.929  22.537  27.573  1.00  0.00     0.017 A 
HETATM    9  C4  UNL     1      52.350  23.996  27.525  1.00  0.00     0.019 A 
BRANCH   8  10
HETATM   10  C2  UNL     1      51.673  22.053  28.960  1.00  0.00    -0.032 C 
HETATM   11  C1  UNL     1      51.037  22.869  29.779  1.00  0.00     0.007 C 
ENDBRANCH   8  10
ENDBRANCH   1   7
TORSDOF 2
ENDMDL
