MODEL 1
REMARK VINA RESULT: -7.799795297      0.000      0.000
REMARK  4 active torsions:
REMARK  status: ('A' for Active; 'I' for Inactive)
REMARK    1  A    between atoms: N1_2  and  C2_4 
REMARK    2  A    between atoms: C3_7  and  N3_8 
REMARK    3  A    between atoms: C6_11  and  N4_12 
REMARK    4  A    between atoms: C10_22  and  C11_23 
REMARK       I    between atoms: C11_23  and  N7_25 
REMARK       I    between atoms: N7_25  and  C12_27 
REMARK       I    between atoms: C12_27  and  N8_28 
REMARK       I    between atoms: C12_27  and  N9_32 
ROOT
HETATM    1  C2  UNL     1      -2.969   0.213  11.229  1.00  0.00     0.147 A 
HETATM    2  N2  UNL     1      -3.717   0.447  12.315  1.00  0.00    -0.174 N 
ATOM      3  H2  UNL     1      -4.343  -0.282  12.657  1.00  0.00     0.186 HD
HETATM    4  C3  UNL     1      -3.660   1.638  12.974  1.00  0.00     0.683 A 
HETATM    5  N5  UNL     1      -2.838   2.622  12.543  1.00  0.00    -0.174 N 
ATOM      6  H5  UNL     1      -2.801   3.511  13.043  1.00  0.00     0.186 HD
HETATM    7  C9  UNL     1      -2.079   2.432  11.469  1.00  0.00     0.153 A 
HETATM    8  N6  UNL     1      -1.186   3.230  10.833  1.00  0.00    -0.322 N 
ATOM      9  H6  UNL     1      -0.936   4.182  11.103  1.00  0.00     0.169 HD
HETATM   10  C10 UNL     1      -0.686   2.552   9.787  1.00  0.00     0.177 A 
HETATM   11  N10 UNL     1      -1.266   1.340   9.775  1.00  0.00    -0.332 N 
ATOM     12  H10 UNL     1      -1.076   0.610   9.089  1.00  0.00     0.168 HD
HETATM   13  C13 UNL     1      -2.123   1.231  10.788  1.00  0.00     0.123 A 
ENDROOT
BRANCH  10  14
HETATM   14  C11 UNL     1       0.302   3.068   8.854  1.00  0.00     0.288 C 
HETATM   15  O1  UNL     1       1.508   3.125   9.200  1.00  0.00    -0.264 OA
HETATM   16  N7  UNL     1      -0.062   3.514   7.557  1.00  0.00    -0.305 N 
HETATM   17  C12 UNL     1       0.927   4.026   6.635  1.00  0.00     0.483 C 
ATOM     18  H7  UNL     1      -1.040   3.472   7.269  1.00  0.00     0.166 HD
HETATM   19  N8  UNL     1       0.579   5.429   6.397  1.00  0.00    -0.033 N 
HETATM   20  N9  UNL     1       0.973   3.308   5.390  1.00  0.00    -0.033 N 
ATOM     21  H83 UNL     1      -0.380   5.560   6.076  1.00  0.00     0.278 HD
ATOM     22  H82 UNL     1       0.501   5.978   7.253  1.00  0.00     0.278 HD
ATOM     23  H81 UNL     1       1.278   5.790   5.747  1.00  0.00     0.278 HD
ATOM     24  H93 UNL     1       1.111   2.311   5.552  1.00  0.00     0.278 HD
ATOM     25  H92 UNL     1       0.051   3.281   4.953  1.00  0.00     0.278 HD
ATOM     26  H91 UNL     1       1.671   3.669   4.740  1.00  0.00     0.278 HD
ENDBRANCH  10  14
BRANCH   1  27
HETATM   27  N1  UNL     1      -3.008  -0.901  10.589  1.00  0.00    -0.378 N 
HETATM   28  C1  UNL     1      -3.076  -2.177  11.273  1.00  0.00     0.147 C 
ATOM     29  H1  UNL     1      -2.991  -0.886   9.569  1.00  0.00     0.160 HD
ENDBRANCH   1  27
BRANCH   4  30
HETATM   30  N3  UNL     1      -4.450   1.883  14.119  1.00  0.00    -0.215 N 
HETATM   31  C4  UNL     1      -5.451   2.915  14.253  1.00  0.00     0.143 C 
HETATM   32  C5  UNL     1      -6.037   2.748  15.640  1.00  0.00     0.055 C 
HETATM   33  C6  UNL     1      -5.774   1.306  15.933  1.00  0.00     0.205 C 
HETATM   34  C8  UNL     1      -4.369   1.116  15.350  1.00  0.00     0.174 C 
BRANCH  33  35
HETATM   35  N4  UNL     1      -5.695   1.013  17.343  1.00  0.00    -0.073 N 
HETATM   36  C7  UNL     1      -6.417   1.974  18.138  1.00  0.00     0.267 C 
ATOM     37  H42 UNL     1      -6.006   0.061  17.540  1.00  0.00     0.277 HD
ATOM     38  H41 UNL     1      -4.726   0.932  17.650  1.00  0.00     0.277 HD
ENDBRANCH  33  35
ENDBRANCH   4  30
TORSDOF 4
ENDMDL
MODEL 2
REMARK VINA RESULT: -7.796499304      1.180      1.335
REMARK  4 active torsions:
REMARK  status: ('A' for Active; 'I' for Inactive)
REMARK    1  A    between atoms: N1_2  and  C2_4 
REMARK    2  A    between atoms: C3_7  and  N3_8 
REMARK    3  A    between atoms: C6_11  and  N4_12 
REMARK    4  A    between atoms: C10_22  and  C11_23 
REMARK       I    between atoms: C11_23  and  N7_25 
REMARK       I    between atoms: N7_25  and  C12_27 
REMARK       I    between atoms: C12_27  and  N8_28 
REMARK       I    between atoms: C12_27  and  N9_32 
ROOT
HETATM    1  C2  UNL     1      -3.359   0.124  11.446  1.00  0.00     0.147 A 
HETATM    2  N2  UNL     1      -4.067   0.359  12.558  1.00  0.00    -0.174 N 
ATOM      3  H2  UNL     1      -4.683  -0.368  12.921  1.00  0.00     0.186 HD
HETATM    4  C3  UNL     1      -3.983   1.549  13.215  1.00  0.00     0.683 A 
HETATM    5  N5  UNL     1      -3.175   2.532  12.756  1.00  0.00    -0.174 N 
ATOM      6  H5  UNL     1      -3.118   3.420  13.255  1.00  0.00     0.186 HD
HETATM    7  C9  UNL     1      -2.455   2.341  11.656  1.00  0.00     0.153 A 
HETATM    8  N6  UNL     1      -1.582   3.136  10.989  1.00  0.00    -0.322 N 
ATOM      9  H6  UNL     1      -1.321   4.087  11.251  1.00  0.00     0.169 HD
HETATM   10  C10 UNL     1      -1.122   2.458   9.926  1.00  0.00     0.177 A 
HETATM   11  N10 UNL     1      -1.705   1.248   9.933  1.00  0.00    -0.332 N 
ATOM     12  H10 UNL     1      -1.542   0.518   9.240  1.00  0.00     0.168 HD
HETATM   13  C13 UNL     1      -2.527   1.140  10.976  1.00  0.00     0.123 A 
ENDROOT
BRANCH  10  14
HETATM   14  C11 UNL     1      -0.166   2.972   8.959  1.00  0.00     0.288 C 
HETATM   15  O1  UNL     1      -0.092   2.443   7.823  1.00  0.00    -0.264 OA
HETATM   16  N7  UNL     1       0.690   4.061   9.266  1.00  0.00    -0.305 N 
HETATM   17  C12 UNL     1       1.638   4.566   8.298  1.00  0.00     0.483 C 
ATOM     18  H7  UNL     1       0.636   4.495  10.188  1.00  0.00     0.166 HD
HETATM   19  N8  UNL     1       2.968   4.333   8.866  1.00  0.00    -0.033 N 
HETATM   20  N9  UNL     1       1.462   5.963   8.003  1.00  0.00    -0.033 N 
ATOM     21  H83 UNL     1       3.088   4.733   9.797  1.00  0.00     0.278 HD
ATOM     22  H82 UNL     1       3.134   3.361   9.124  1.00  0.00     0.278 HD
ATOM     23  H81 UNL     1       3.637   4.689   8.182  1.00  0.00     0.278 HD
ATOM     24  H93 UNL     1       0.506   6.152   7.705  1.00  0.00     0.278 HD
ATOM     25  H92 UNL     1       1.487   6.519   8.857  1.00  0.00     0.278 HD
ATOM     26  H91 UNL     1       2.131   6.319   7.320  1.00  0.00     0.278 HD
ENDBRANCH  10  14
BRANCH   1  27
HETATM   27  N1  UNL     1      -3.424  -0.989  10.807  1.00  0.00    -0.378 N 
HETATM   28  C1  UNL     1      -2.840  -2.209  11.329  1.00  0.00     0.147 C 
ATOM     29  H1  UNL     1      -3.901  -1.015   9.906  1.00  0.00     0.160 HD
ENDBRANCH   1  27
BRANCH   4  30
HETATM   30  N3  UNL     1      -4.732   1.796  14.387  1.00  0.00    -0.215 N 
HETATM   31  C4  UNL     1      -5.658   2.886  14.589  1.00  0.00     0.143 C 
HETATM   32  C5  UNL     1      -6.226   2.696  15.981  1.00  0.00     0.055 C 
HETATM   33  C6  UNL     1      -6.055   1.229  16.205  1.00  0.00     0.205 C 
HETATM   34  C8  UNL     1      -4.678   0.972  15.583  1.00  0.00     0.174 C 
BRANCH  33  35
HETATM   35  N4  UNL     1      -5.968   0.869  17.600  1.00  0.00    -0.073 N 
HETATM   36  C7  UNL     1      -6.303   1.970  18.466  1.00  0.00     0.267 C 
ATOM     37  H42 UNL     1      -6.538   0.049  17.806  1.00  0.00     0.277 HD
ATOM     38  H41 UNL     1      -5.050   0.487  17.826  1.00  0.00     0.277 HD
ENDBRANCH  33  35
ENDBRANCH   4  30
TORSDOF 4
ENDMDL
MODEL 3
REMARK VINA RESULT: -7.482039034      1.053      1.066
REMARK  4 active torsions:
REMARK  status: ('A' for Active; 'I' for Inactive)
REMARK    1  A    between atoms: N1_2  and  C2_4 
REMARK    2  A    between atoms: C3_7  and  N3_8 
REMARK    3  A    between atoms: C6_11  and  N4_12 
REMARK    4  A    between atoms: C10_22  and  C11_23 
REMARK       I    between atoms: C11_23  and  N7_25 
REMARK       I    between atoms: N7_25  and  C12_27 
REMARK       I    between atoms: C12_27  and  N8_28 
REMARK       I    between atoms: C12_27  and  N9_32 
ROOT
HETATM    1  C2  UNL     1      -2.418   0.773  11.226  1.00  0.00     0.147 A 
HETATM    2  N2  UNL     1      -3.232   1.042  12.255  1.00  0.00    -0.174 N 
ATOM      3  H2  UNL     1      -3.675   0.271  12.756  1.00  0.00     0.186 HD
HETATM    4  C3  UNL     1      -3.480   2.322  12.648  1.00  0.00     0.683 A 
HETATM    5  N5  UNL     1      -2.906   3.363  12.001  1.00  0.00    -0.174 N 
ATOM      6  H5  UNL     1      -3.097   4.318  12.303  1.00  0.00     0.186 HD
HETATM    7  C9  UNL     1      -2.092   3.140  10.975  1.00  0.00     0.153 A 
HETATM    8  N6  UNL     1      -1.397   3.977  10.165  1.00  0.00    -0.322 N 
ATOM      9  H6  UNL     1      -1.391   4.996  10.224  1.00  0.00     0.169 HD
HETATM   10  C10 UNL     1      -0.720   3.236   9.275  1.00  0.00     0.177 A 
HETATM   11  N10 UNL     1      -0.992   1.946   9.530  1.00  0.00    -0.332 N 
ATOM     12  H10 UNL     1      -0.613   1.155   9.009  1.00  0.00     0.168 HD
HETATM   13  C13 UNL     1      -1.828   1.848  10.562  1.00  0.00     0.123 A 
ENDROOT
BRANCH  10  14
HETATM   14  C11 UNL     1       0.143   3.767   8.232  1.00  0.00     0.288 C 
HETATM   15  O1  UNL     1       0.789   4.823   8.443  1.00  0.00    -0.264 OA
HETATM   16  N7  UNL     1       0.274   3.122   6.975  1.00  0.00    -0.305 N 
HETATM   17  C12 UNL     1       1.135   3.658   5.944  1.00  0.00     0.483 C 
ATOM     18  H7  UNL     1      -0.248   2.265   6.796  1.00  0.00     0.166 HD
HETATM   19  N8  UNL     1       0.260   4.017   4.825  1.00  0.00    -0.033 N 
HETATM   20  N9  UNL     1       2.145   2.732   5.506  1.00  0.00    -0.033 N 
ATOM     21  H83 UNL     1      -0.326   3.246   4.504  1.00  0.00     0.278 HD
ATOM     22  H82 UNL     1      -0.496   4.648   5.089  1.00  0.00     0.278 HD
ATOM     23  H81 UNL     1       0.867   4.395   4.097  1.00  0.00     0.278 HD
ATOM     24  H93 UNL     1       2.694   2.396   6.297  1.00  0.00     0.278 HD
ATOM     25  H92 UNL     1       1.725   1.853   5.206  1.00  0.00     0.278 HD
ATOM     26  H91 UNL     1       2.752   3.111   4.779  1.00  0.00     0.278 HD
ENDBRANCH  10  14
BRANCH   1  27
HETATM   27  N1  UNL     1      -2.171  -0.427  10.835  1.00  0.00    -0.378 N 
HETATM   28  C1  UNL     1      -3.103  -1.515  11.058  1.00  0.00     0.147 C 
ATOM     29  H1  UNL     1      -1.292  -0.619  10.354  1.00  0.00     0.160 HD
ENDBRANCH   1  27
BRANCH   4  30
HETATM   30  N3  UNL     1      -4.340   2.604  13.732  1.00  0.00    -0.215 N 
HETATM   31  C4  UNL     1      -5.433   3.549  13.725  1.00  0.00     0.143 C 
HETATM   32  C5  UNL     1      -6.064   3.464  15.101  1.00  0.00     0.055 C 
HETATM   33  C6  UNL     1      -5.688   2.088  15.547  1.00  0.00     0.205 C 
HETATM   34  C8  UNL     1      -4.247   1.972  15.037  1.00  0.00     0.174 C 
BRANCH  33  35
HETATM   35  N4  UNL     1      -5.647   1.942  16.982  1.00  0.00    -0.073 N 
HETATM   36  C7  UNL     1      -6.103   0.642  17.407  1.00  0.00     0.267 C 
ATOM     37  H42 UNL     1      -4.717   2.145  17.347  1.00  0.00     0.277 HD
ATOM     38  H41 UNL     1      -6.169   2.686  17.444  1.00  0.00     0.277 HD
ENDBRANCH  33  35
ENDBRANCH   4  30
TORSDOF 4
ENDMDL
MODEL 4
REMARK VINA RESULT: -7.276089141      2.881      8.890
REMARK  4 active torsions:
REMARK  status: ('A' for Active; 'I' for Inactive)
REMARK    1  A    between atoms: N1_2  and  C2_4 
REMARK    2  A    between atoms: C3_7  and  N3_8 
REMARK    3  A    between atoms: C6_11  and  N4_12 
REMARK    4  A    between atoms: C10_22  and  C11_23 
REMARK       I    between atoms: C11_23  and  N7_25 
REMARK       I    between atoms: N7_25  and  C12_27 
REMARK       I    between atoms: C12_27  and  N8_28 
REMARK       I    between atoms: C12_27  and  N9_32 
ROOT
HETATM    1  C2  UNL     1      -2.125   5.178  13.011  1.00  0.00     0.147 A 
HETATM    2  N2  UNL     1      -1.778   5.178  11.717  1.00  0.00    -0.174 N 
ATOM      3  H2  UNL     1      -1.322   6.000  11.322  1.00  0.00     0.186 HD
HETATM    4  C3  UNL     1      -2.022   4.103  10.917  1.00  0.00     0.683 A 
HETATM    5  N5  UNL     1      -2.626   2.999  11.415  1.00  0.00    -0.174 N 
ATOM      6  H5  UNL     1      -2.804   2.198  10.808  1.00  0.00     0.186 HD
HETATM    7  C9  UNL     1      -2.987   2.958  12.693  1.00  0.00     0.153 A 
HETATM    8  N6  UNL     1      -3.594   2.001  13.437  1.00  0.00    -0.322 N 
ATOM      9  H6  UNL     1      -3.895   1.085  13.103  1.00  0.00     0.169 HD
HETATM   10  C10 UNL     1      -3.732   2.466  14.689  1.00  0.00     0.177 A 
HETATM   11  N10 UNL     1      -3.212   3.704  14.722  1.00  0.00    -0.332 N 
ATOM     12  H10 UNL     1      -3.179   4.300  15.548  1.00  0.00     0.168 HD
HETATM   13  C13 UNL     1      -2.747   4.039  13.520  1.00  0.00     0.123 A 
ENDROOT
BRANCH  10  14
HETATM   14  C11 UNL     1      -4.342   1.734  15.788  1.00  0.00     0.288 C 
HETATM   15  O1  UNL     1      -3.780   0.702  16.230  1.00  0.00    -0.264 OA
HETATM   16  N7  UNL     1      -5.561   2.157  16.377  1.00  0.00    -0.305 N 
HETATM   17  C12 UNL     1      -6.161   1.423  17.469  1.00  0.00     0.483 C 
ATOM     18  H7  UNL     1      -6.024   2.994  16.022  1.00  0.00     0.166 HD
HETATM   19  N8  UNL     1      -7.444   0.921  16.971  1.00  0.00    -0.033 N 
HETATM   20  N9  UNL     1      -6.364   2.221  18.648  1.00  0.00    -0.033 N 
ATOM     21  H83 UNL     1      -8.047   1.653  16.595  1.00  0.00     0.278 HD
ATOM     22  H82 UNL     1      -7.360   0.375  16.114  1.00  0.00     0.278 HD
ATOM     23  H81 UNL     1      -7.867   0.403  17.742  1.00  0.00     0.278 HD
ATOM     24  H93 UNL     1      -5.492   2.660  18.943  1.00  0.00     0.278 HD
ATOM     25  H92 UNL     1      -6.908   3.056  18.432  1.00  0.00     0.278 HD
ATOM     26  H91 UNL     1      -6.787   1.703  19.419  1.00  0.00     0.278 HD
ENDBRANCH  10  14
BRANCH   1  27
HETATM   27  N1  UNL     1      -1.908   6.182  13.784  1.00  0.00    -0.378 N 
HETATM   28  C1  UNL     1      -2.610   7.440  13.625  1.00  0.00     0.147 C 
ATOM     29  H1  UNL     1      -1.221   6.090  14.533  1.00  0.00     0.160 HD
ENDBRANCH   1  27
BRANCH   4  30
HETATM   30  N3  UNL     1      -1.657   4.104   9.553  1.00  0.00    -0.215 N 
HETATM   31  C4  UNL     1      -2.166   4.998   8.539  1.00  0.00     0.143 C 
HETATM   32  C5  UNL     1      -1.449   4.624   7.257  1.00  0.00     0.055 C 
HETATM   33  C6  UNL     1      -0.190   3.996   7.760  1.00  0.00     0.205 C 
HETATM   34  C8  UNL     1      -0.696   3.188   8.961  1.00  0.00     0.174 C 
BRANCH  33  35
HETATM   35  N4  UNL     1       0.394   3.059   6.831  1.00  0.00    -0.073 N 
HETATM   36  C7  UNL     1       1.531   3.616   6.143  1.00  0.00     0.267 C 
ATOM     37  H42 UNL     1       0.633   2.182   7.292  1.00  0.00     0.277 HD
ATOM     38  H41 UNL     1      -0.302   2.710   6.172  1.00  0.00     0.277 HD
ENDBRANCH  33  35
ENDBRANCH   4  30
TORSDOF 4
ENDMDL
MODEL 5
REMARK VINA RESULT: -7.275890716      2.443      8.340
REMARK  4 active torsions:
REMARK  status: ('A' for Active; 'I' for Inactive)
REMARK    1  A    between atoms: N1_2  and  C2_4 
REMARK    2  A    between atoms: C3_7  and  N3_8 
REMARK    3  A    between atoms: C6_11  and  N4_12 
REMARK    4  A    between atoms: C10_22  and  C11_23 
REMARK       I    between atoms: C11_23  and  N7_25 
REMARK       I    between atoms: N7_25  and  C12_27 
REMARK       I    between atoms: C12_27  and  N8_28 
REMARK       I    between atoms: C12_27  and  N9_32 
ROOT
HETATM    1  C2  UNL     1      -2.863   1.225  11.063  1.00  0.00     0.147 A 
HETATM    2  N2  UNL     1      -1.749   1.707  10.496  1.00  0.00    -0.174 N 
ATOM      3  H2  UNL     1      -1.341   1.215   9.702  1.00  0.00     0.186 HD
HETATM    4  C3  UNL     1      -1.150   2.839  10.959  1.00  0.00     0.683 A 
HETATM    5  N5  UNL     1      -1.671   3.511  12.011  1.00  0.00    -0.174 N 
ATOM      6  H5  UNL     1      -1.215   4.359  12.350  1.00  0.00     0.186 HD
HETATM    7  C9  UNL     1      -2.775   3.068  12.603  1.00  0.00     0.153 A 
HETATM    8  N6  UNL     1      -3.495   3.534  13.653  1.00  0.00    -0.322 N 
ATOM      9  H6  UNL     1      -3.284   4.369  14.199  1.00  0.00     0.169 HD
HETATM   10  C10 UNL     1      -4.535   2.708  13.850  1.00  0.00     0.177 A 
HETATM   11  N10 UNL     1      -4.460   1.734  12.928  1.00  0.00    -0.332 N 
ATOM     12  H10 UNL     1      -5.122   0.963  12.838  1.00  0.00     0.168 HD
HETATM   13  C13 UNL     1      -3.397   1.921  12.148  1.00  0.00     0.123 A 
ENDROOT
BRANCH  10  14
HETATM   14  C11 UNL     1      -5.541   2.866  14.887  1.00  0.00     0.288 C 
HETATM   15  O1  UNL     1      -6.208   3.928  14.944  1.00  0.00    -0.264 OA
HETATM   16  N7  UNL     1      -5.790   1.848  15.844  1.00  0.00    -0.305 N 
HETATM   17  C12 UNL     1      -6.792   2.014  16.873  1.00  0.00     0.483 C 
ATOM     18  H7  UNL     1      -5.251   0.983  15.805  1.00  0.00     0.166 HD
HETATM   19  N8  UNL     1      -6.076   1.998  18.150  1.00  0.00    -0.033 N 
HETATM   20  N9  UNL     1      -7.801   0.989  16.857  1.00  0.00    -0.033 N 
ATOM     21  H83 UNL     1      -5.496   1.170  18.280  1.00  0.00     0.278 HD
ATOM     22  H82 UNL     1      -5.325   2.687  18.202  1.00  0.00     0.278 HD
ATOM     23  H81 UNL     1      -6.783   2.116  18.876  1.00  0.00     0.278 HD
ATOM     24  H93 UNL     1      -8.235   0.923  15.937  1.00  0.00     0.278 HD
ATOM     25  H92 UNL     1      -7.377   0.063  16.911  1.00  0.00     0.278 HD
ATOM     26  H91 UNL     1      -8.508   1.107  17.583  1.00  0.00     0.278 HD
ENDBRANCH  10  14
BRANCH   1  27
HETATM   27  N1  UNL     1      -3.445   0.157  10.646  1.00  0.00    -0.378 N 
HETATM   28  C1  UNL     1      -3.001  -1.164  11.044  1.00  0.00     0.147 C 
ATOM     29  H1  UNL     1      -4.242   0.242  10.016  1.00  0.00     0.160 HD
ENDBRANCH   1  27
BRANCH   4  30
HETATM   30  N3  UNL     1       0.025   3.345  10.361  1.00  0.00    -0.215 N 
HETATM   31  C4  UNL     1       1.063   4.095  11.031  1.00  0.00     0.143 C 
HETATM   32  C5  UNL     1       2.116   4.377   9.978  1.00  0.00     0.055 C 
HETATM   33  C6  UNL     1       1.898   3.274   8.995  1.00  0.00     0.205 C 
HETATM   34  C8  UNL     1       0.368   3.180   8.958  1.00  0.00     0.174 C 
BRANCH  33  35
HETATM   35  N4  UNL     1       2.337   3.601   7.660  1.00  0.00    -0.073 N 
HETATM   36  C7  UNL     1       1.261   3.536   6.704  1.00  0.00     0.267 C 
ATOM     37  H42 UNL     1       2.800   4.510   7.635  1.00  0.00     0.277 HD
ATOM     38  H41 UNL     1       3.120   3.014   7.374  1.00  0.00     0.277 HD
ENDBRANCH  33  35
ENDBRANCH   4  30
TORSDOF 4
ENDMDL
