MODEL 1
REMARK VINA RESULT: -7.536710537      0.000      0.000
REMARK  8 active torsions:
REMARK  status: ('A' for Active; 'I' for Inactive)
REMARK    1  A    between atoms: C2_2  and  C4_4 
REMARK    2  A    between atoms: C4_4  and  C5_5 
REMARK    3  A    between atoms: C5_5  and  N1_6 
REMARK    4  A    between atoms: N1_6  and  C6_8 
REMARK    5  A    between atoms: C7_11  and  N3_12 
REMARK    6  A    between atoms: C9_14  and  N4_15 
REMARK    7  A    between atoms: C11_20  and  N5_21 
REMARK    8  A    between atoms: C13_28  and  N7_29 
REMARK       I    between atoms: N7_29  and  C14_31 
REMARK       I    between atoms: C14_31  and  N8_32 
REMARK       I    between atoms: C14_31  and  N9_36 
ROOT
HETATM    1  C6  UNL     1      -5.531   4.462  13.895  1.00  0.00     0.707 A 
HETATM    2  N2  UNL     1      -4.974   3.873  12.811  1.00  0.00    -0.021 N 
ATOM      3  H2  UNL     1      -4.886   4.373  11.926  1.00  0.00     0.203 HD
HETATM    4  C7  UNL     1      -4.544   2.610  12.942  1.00  0.00     0.709 A 
HETATM    5  N6  UNL     1      -4.673   1.959  14.143  1.00  0.00    -0.021 N 
ATOM      6  H6  UNL     1      -4.338   0.999  14.220  1.00  0.00     0.203 HD
HETATM    7  C13 UNL     1      -5.224   2.540  15.215  1.00  0.00     0.710 A 
HETATM    8  N10 UNL     1      -5.650   3.811  15.061  1.00  0.00    -0.021 N 
ATOM      9  H10 UNL     1      -6.074   4.291  15.855  1.00  0.00     0.203 HD
ENDROOT
BRANCH   4  10
HETATM   10  N3  UNL     1      -3.946   1.915  11.855  1.00  0.00    -0.213 N 
HETATM   11  C8  UNL     1      -4.670   1.278  10.814  1.00  0.00     0.174 C 
HETATM   12  C9  UNL     1      -4.255  -0.202  10.880  1.00  0.00     0.204 C 
HETATM   13  C10 UNL     1      -2.840  -0.219  10.366  1.00  0.00     0.069 C 
HETATM   14  C11 UNL     1      -1.950   0.841  10.873  1.00  0.00     0.204 C 
HETATM   15  C12 UNL     1      -2.496   1.844  11.797  1.00  0.00     0.174 C 
BRANCH  12  16
HETATM   16  N4  UNL     1      -4.222  -0.611  12.266  1.00  0.00    -0.073 N 
ATOM     17  H43 UNL     1      -4.753   0.016  12.870  1.00  0.00     0.274 HD
ATOM     18  H42 UNL     1      -4.761  -1.460  12.436  1.00  0.00     0.274 HD
ATOM     19  H41 UNL     1      -3.248  -0.701  12.556  1.00  0.00     0.274 HD
ENDBRANCH  12  16
BRANCH  14  20
HETATM   20  N5  UNL     1      -1.317   1.501   9.716  1.00  0.00    -0.073 N 
ATOM     21  H53 UNL     1      -0.654   2.226   9.990  1.00  0.00     0.274 HD
ATOM     22  H52 UNL     1      -0.660   0.893   9.226  1.00  0.00     0.274 HD
ATOM     23  H51 UNL     1      -2.057   1.853   9.107  1.00  0.00     0.274 HD
ENDBRANCH  14  20
ENDBRANCH   4  10
BRANCH   1  24
HETATM   24  N1  UNL     1      -5.941   5.678  13.755  1.00  0.00    -0.225 N 
ATOM     25  H1  UNL     1      -6.377   6.143  14.552  1.00  0.00     0.177 HD
BRANCH  24  26
HETATM   26  C5  UNL     1      -5.807   6.404  12.516  1.00  0.00     0.138 C 
BRANCH  26  27
HETATM   27  C4  UNL     1      -7.102   7.139  12.243  1.00  0.00     0.024 C 
BRANCH  27  28
HETATM   28  C2  UNL     1      -6.804   8.322  11.324  1.00  0.00    -0.021 C 
HETATM   29  C1  UNL     1      -5.395   8.773  11.593  1.00  0.00     0.009 C 
HETATM   30  C3  UNL     1      -7.033   7.946   9.888  1.00  0.00     0.009 C 
ENDBRANCH  27  28
ENDBRANCH  26  27
ENDBRANCH  24  26
ENDBRANCH   1  24
BRANCH   7  31
HETATM   31  N7  UNL     1      -5.327   1.893  16.326  1.00  0.00    -0.172 N 
HETATM   32  C14 UNL     1      -6.260   0.841  16.556  1.00  0.00     0.494 C 
HETATM   33  N8  UNL     1      -5.790   0.065  17.703  1.00  0.00    -0.032 N 
HETATM   34  N9  UNL     1      -7.533   1.439  16.945  1.00  0.00    -0.032 N 
ATOM     35  H83 UNL     1      -4.835  -0.274  17.587  1.00  0.00     0.278 HD
ATOM     36  H82 UNL     1      -5.631   0.639  18.531  1.00  0.00     0.278 HD
ATOM     37  H81 UNL     1      -6.458  -0.689  17.868  1.00  0.00     0.278 HD
ATOM     38  H93 UNL     1      -7.445   2.068  17.743  1.00  0.00     0.278 HD
ATOM     39  H92 UNL     1      -7.870   2.123  16.267  1.00  0.00     0.278 HD
ATOM     40  H91 UNL     1      -8.202   0.686  17.110  1.00  0.00     0.278 HD
ATOM     41  H7  UNL     1      -4.700   2.150  17.090  1.00  0.00     0.181 HD
ENDBRANCH   7  31
TORSDOF 8
ENDMDL
MODEL 2
REMARK VINA RESULT: -7.220194155      3.093      5.564
REMARK  8 active torsions:
REMARK  status: ('A' for Active; 'I' for Inactive)
REMARK    1  A    between atoms: C2_2  and  C4_4 
REMARK    2  A    between atoms: C4_4  and  C5_5 
REMARK    3  A    between atoms: C5_5  and  N1_6 
REMARK    4  A    between atoms: N1_6  and  C6_8 
REMARK    5  A    between atoms: C7_11  and  N3_12 
REMARK    6  A    between atoms: C9_14  and  N4_15 
REMARK    7  A    between atoms: C11_20  and  N5_21 
REMARK    8  A    between atoms: C13_28  and  N7_29 
REMARK       I    between atoms: N7_29  and  C14_31 
REMARK       I    between atoms: C14_31  and  N8_32 
REMARK       I    between atoms: C14_31  and  N9_36 
ROOT
HETATM    1  C6  UNL     1      -4.740   2.843  13.155  1.00  0.00     0.707 A 
HETATM    2  N2  UNL     1      -3.713   3.636  12.768  1.00  0.00    -0.021 N 
ATOM      3  H2  UNL     1      -3.710   4.634  12.976  1.00  0.00     0.203 HD
HETATM    4  C7  UNL     1      -2.701   3.061  12.101  1.00  0.00     0.709 A 
HETATM    5  N6  UNL     1      -2.729   1.716  11.834  1.00  0.00    -0.021 N 
ATOM      6  H6  UNL     1      -1.948   1.300  11.326  1.00  0.00     0.203 HD
HETATM    7  C13 UNL     1      -3.743   0.932  12.215  1.00  0.00     0.710 A 
HETATM    8  N10 UNL     1      -4.750   1.531  12.885  1.00  0.00    -0.021 N 
ATOM      9  H10 UNL     1      -5.543   0.968  13.195  1.00  0.00     0.203 HD
ENDROOT
BRANCH   4  10
HETATM   10  N3  UNL     1      -1.582   3.818  11.658  1.00  0.00    -0.213 N 
HETATM   11  C8  UNL     1      -1.583   5.227  11.488  1.00  0.00     0.174 C 
HETATM   12  C9  UNL     1      -1.248   5.455  10.004  1.00  0.00     0.204 C 
HETATM   13  C10 UNL     1       0.212   5.103   9.889  1.00  0.00     0.069 C 
HETATM   14  C11 UNL     1       0.641   3.875  10.583  1.00  0.00     0.204 C 
HETATM   15  C12 UNL     1      -0.349   3.112  11.354  1.00  0.00     0.174 C 
BRANCH  12  16
HETATM   16  N4  UNL     1      -1.992   4.503   9.211  1.00  0.00    -0.073 N 
ATOM     17  H43 UNL     1      -1.746   4.542   8.222  1.00  0.00     0.274 HD
ATOM     18  H42 UNL     1      -1.708   3.539   9.390  1.00  0.00     0.274 HD
ATOM     19  H41 UNL     1      -2.988   4.652   9.372  1.00  0.00     0.274 HD
ENDBRANCH  12  16
BRANCH  14  20
HETATM   20  N5  UNL     1       1.802   4.210  11.429  1.00  0.00    -0.073 N 
ATOM     21  H53 UNL     1       1.590   4.927  12.122  1.00  0.00     0.274 HD
ATOM     22  H52 UNL     1       2.046   3.460  12.076  1.00  0.00     0.274 HD
ATOM     23  H51 UNL     1       2.576   4.469  10.817  1.00  0.00     0.274 HD
ENDBRANCH  14  20
ENDBRANCH   4  10
BRANCH   1  24
HETATM   24  N1  UNL     1      -5.706   3.409  13.796  1.00  0.00    -0.225 N 
ATOM     25  H1  UNL     1      -6.569   3.624  13.293  1.00  0.00     0.177 HD
BRANCH  24  26
HETATM   26  C5  UNL     1      -5.615   3.751  15.195  1.00  0.00     0.138 C 
BRANCH  26  27
HETATM   27  C4  UNL     1      -6.828   3.193  15.909  1.00  0.00     0.024 C 
BRANCH  27  28
HETATM   28  C2  UNL     1      -6.356   2.173  16.944  1.00  0.00    -0.021 C 
HETATM   29  C1  UNL     1      -7.381   1.075  17.011  1.00  0.00     0.009 C 
HETATM   30  C3  UNL     1      -4.983   1.669  16.599  1.00  0.00     0.009 C 
ENDBRANCH  27  28
ENDBRANCH  26  27
ENDBRANCH  24  26
ENDBRANCH   1  24
BRANCH   7  31
HETATM   31  N7  UNL     1      -3.730  -0.329  11.943  1.00  0.00    -0.172 N 
HETATM   32  C14 UNL     1      -2.759  -0.959  11.114  1.00  0.00     0.494 C 
HETATM   33  N8  UNL     1      -2.780  -2.393  11.404  1.00  0.00    -0.032 N 
HETATM   34  N9  UNL     1      -3.177  -0.804   9.724  1.00  0.00    -0.032 N 
ATOM     35  H83 UNL     1      -2.646  -2.598  12.394  1.00  0.00     0.278 HD
ATOM     36  H82 UNL     1      -3.709  -2.803  11.305  1.00  0.00     0.278 HD
ATOM     37  H81 UNL     1      -2.084  -2.844  10.810  1.00  0.00     0.278 HD
ATOM     38  H93 UNL     1      -4.121  -1.150   9.556  1.00  0.00     0.278 HD
ATOM     39  H92 UNL     1      -3.340   0.170   9.469  1.00  0.00     0.278 HD
ATOM     40  H91 UNL     1      -2.481  -1.255   9.130  1.00  0.00     0.278 HD
ATOM     41  H7  UNL     1      -4.463  -0.913  12.349  1.00  0.00     0.181 HD
ENDBRANCH   7  31
TORSDOF 8
ENDMDL
MODEL 3
REMARK VINA RESULT: -7.167775506      2.929      5.668
REMARK  8 active torsions:
REMARK  status: ('A' for Active; 'I' for Inactive)
REMARK    1  A    between atoms: C2_2  and  C4_4 
REMARK    2  A    between atoms: C4_4  and  C5_5 
REMARK    3  A    between atoms: C5_5  and  N1_6 
REMARK    4  A    between atoms: N1_6  and  C6_8 
REMARK    5  A    between atoms: C7_11  and  N3_12 
REMARK    6  A    between atoms: C9_14  and  N4_15 
REMARK    7  A    between atoms: C11_20  and  N5_21 
REMARK    8  A    between atoms: C13_28  and  N7_29 
REMARK       I    between atoms: N7_29  and  C14_31 
REMARK       I    between atoms: C14_31  and  N8_32 
REMARK       I    between atoms: C14_31  and  N9_36 
ROOT
HETATM    1  C6  UNL     1      -4.381   2.255  14.119  1.00  0.00     0.707 A 
HETATM    2  N2  UNL     1      -3.700   3.226  13.466  1.00  0.00    -0.021 N 
ATOM      3  H2  UNL     1      -3.682   4.184  13.815  1.00  0.00     0.203 HD
HETATM    4  C7  UNL     1      -3.052   2.883  12.343  1.00  0.00     0.709 A 
HETATM    5  N6  UNL     1      -3.092   1.588  11.893  1.00  0.00    -0.021 N 
ATOM      6  H6  UNL     1      -2.591   1.349  11.038  1.00  0.00     0.203 HD
HETATM    7  C13 UNL     1      -3.765   0.628  12.537  1.00  0.00     0.710 A 
HETATM    8  N10 UNL     1      -4.410   0.995  13.665  1.00  0.00    -0.021 N 
ATOM      9  H10 UNL     1      -4.934   0.293  14.187  1.00  0.00     0.203 HD
ENDROOT
BRANCH   4  10
HETATM   10  N3  UNL     1      -2.311   3.839  11.594  1.00  0.00    -0.213 N 
HETATM   11  C8  UNL     1      -1.712   3.580  10.334  1.00  0.00     0.174 C 
HETATM   12  C9  UNL     1      -0.209   3.838  10.542  1.00  0.00     0.204 C 
HETATM   13  C10 UNL     1      -0.098   5.335  10.667  1.00  0.00     0.069 C 
HETATM   14  C11 UNL     1      -1.105   5.993  11.520  1.00  0.00     0.204 C 
HETATM   15  C12 UNL     1      -2.148   5.172  12.148  1.00  0.00     0.174 C 
BRANCH  12  16
HETATM   16  N4  UNL     1       0.188   3.262  11.806  1.00  0.00    -0.073 N 
ATOM     17  H43 UNL     1      -0.281   3.700  12.598  1.00  0.00     0.274 HD
ATOM     18  H42 UNL     1      -0.171   2.316  11.934  1.00  0.00     0.274 HD
ATOM     19  H41 UNL     1       1.205   3.308  11.880  1.00  0.00     0.274 HD
ENDBRANCH  12  16
BRANCH  14  20
HETATM   20  N5  UNL     1      -1.713   7.091  10.747  1.00  0.00    -0.073 N 
ATOM     21  H53 UNL     1      -1.385   7.122   9.781  1.00  0.00     0.274 HD
ATOM     22  H52 UNL     1      -2.702   6.935  10.551  1.00  0.00     0.274 HD
ATOM     23  H51 UNL     1      -1.543   7.964  11.248  1.00  0.00     0.274 HD
ENDBRANCH  14  20
ENDBRANCH   4  10
BRANCH   1  24
HETATM   24  N1  UNL     1      -5.000   2.599  15.198  1.00  0.00    -0.225 N 
ATOM     25  H1  UNL     1      -4.639   2.275  16.096  1.00  0.00     0.177 HD
BRANCH  24  26
HETATM   26  C5  UNL     1      -6.184   3.425  15.183  1.00  0.00     0.138 C 
BRANCH  26  27
HETATM   27  C4  UNL     1      -6.848   3.342  16.541  1.00  0.00     0.024 C 
BRANCH  27  28
HETATM   28  C2  UNL     1      -6.514   1.986  17.163  1.00  0.00    -0.021 C 
HETATM   29  C1  UNL     1      -6.288   2.196  18.635  1.00  0.00     0.009 C 
HETATM   30  C3  UNL     1      -7.603   0.992  16.875  1.00  0.00     0.009 C 
ENDBRANCH  27  28
ENDBRANCH  26  27
ENDBRANCH  24  26
ENDBRANCH   1  24
BRANCH   7  31
HETATM   31  N7  UNL     1      -3.777  -0.579  12.081  1.00  0.00    -0.172 N 
HETATM   32  C14 UNL     1      -2.803  -1.105  11.185  1.00  0.00     0.494 C 
HETATM   33  N8  UNL     1      -2.866  -2.565  11.257  1.00  0.00    -0.032 N 
HETATM   34  N9  UNL     1      -3.185  -0.733   9.826  1.00  0.00    -0.032 N 
ATOM     35  H83 UNL     1      -2.760  -2.919  12.208  1.00  0.00     0.278 HD
ATOM     36  H82 UNL     1      -3.803  -2.929  11.080  1.00  0.00     0.278 HD
ATOM     37  H81 UNL     1      -2.169  -2.942  10.615  1.00  0.00     0.278 HD
ATOM     38  H93 UNL     1      -4.134  -1.024   9.591  1.00  0.00     0.278 HD
ATOM     39  H92 UNL     1      -3.319   0.272   9.717  1.00  0.00     0.278 HD
ATOM     40  H91 UNL     1      -2.488  -1.110   9.185  1.00  0.00     0.278 HD
ATOM     41  H7  UNL     1      -4.533  -1.196  12.380  1.00  0.00     0.181 HD
ENDBRANCH   7  31
TORSDOF 8
ENDMDL
MODEL 4
REMARK VINA RESULT: -7.089815890      3.195      5.895
REMARK  8 active torsions:
REMARK  status: ('A' for Active; 'I' for Inactive)
REMARK    1  A    between atoms: C2_2  and  C4_4 
REMARK    2  A    between atoms: C4_4  and  C5_5 
REMARK    3  A    between atoms: C5_5  and  N1_6 
REMARK    4  A    between atoms: N1_6  and  C6_8 
REMARK    5  A    between atoms: C7_11  and  N3_12 
REMARK    6  A    between atoms: C9_14  and  N4_15 
REMARK    7  A    between atoms: C11_20  and  N5_21 
REMARK    8  A    between atoms: C13_28  and  N7_29 
REMARK       I    between atoms: N7_29  and  C14_31 
REMARK       I    between atoms: C14_31  and  N8_32 
REMARK       I    between atoms: C14_31  and  N9_36 
ROOT
HETATM    1  C6  UNL     1      -4.112   1.228  13.186  1.00  0.00     0.707 A 
HETATM    2  N2  UNL     1      -3.462   2.202  12.507  1.00  0.00    -0.021 N 
ATOM      3  H2  UNL     1      -3.447   3.163  12.848  1.00  0.00     0.203 HD
HETATM    4  C7  UNL     1      -2.840   1.858  11.370  1.00  0.00     0.709 A 
HETATM    5  N6  UNL     1      -2.874   0.558  10.933  1.00  0.00    -0.021 N 
ATOM      6  H6  UNL     1      -2.392   0.318  10.066  1.00  0.00     0.203 HD
HETATM    7  C13 UNL     1      -3.516  -0.406  11.603  1.00  0.00     0.710 A 
HETATM    8  N10 UNL     1      -4.135  -0.037  12.744  1.00  0.00    -0.021 N 
ATOM      9  H10 UNL     1      -4.635  -0.742  13.286  1.00  0.00     0.203 HD
ENDROOT
BRANCH   4  10
HETATM   10  N3  UNL     1      -2.132   2.816  10.594  1.00  0.00    -0.213 N 
HETATM   11  C8  UNL     1      -0.964   2.533   9.839  1.00  0.00     0.174 C 
HETATM   12  C9  UNL     1       0.124   3.454  10.417  1.00  0.00     0.204 C 
HETATM   13  C10 UNL     1      -0.259   4.832   9.942  1.00  0.00     0.069 C 
HETATM   14  C11 UNL     1      -1.687   5.184  10.049  1.00  0.00     0.204 C 
HETATM   15  C12 UNL     1      -2.627   4.181  10.566  1.00  0.00     0.174 C 
BRANCH  12  16
HETATM   16  N4  UNL     1       0.020   3.444  11.858  1.00  0.00    -0.073 N 
ATOM     17  H43 UNL     1      -0.258   2.533  12.223  1.00  0.00     0.274 HD
ATOM     18  H42 UNL     1       0.929   3.509  12.316  1.00  0.00     0.274 HD
ATOM     19  H41 UNL     1      -0.616   4.189  12.145  1.00  0.00     0.274 HD
ENDBRANCH  12  16
BRANCH  14  20
HETATM   20  N5  UNL     1      -2.136   5.680   8.735  1.00  0.00    -0.073 N 
ATOM     21  H53 UNL     1      -3.121   5.944   8.730  1.00  0.00     0.274 HD
ATOM     22  H52 UNL     1      -1.747   6.595   8.506  1.00  0.00     0.274 HD
ATOM     23  H51 UNL     1      -1.914   4.972   8.036  1.00  0.00     0.274 HD
ENDBRANCH  14  20
ENDBRANCH   4  10
BRANCH   1  24
HETATM   24  N1  UNL     1      -4.706   1.573  14.278  1.00  0.00    -0.225 N 
ATOM     25  H1  UNL     1      -5.308   2.398  14.270  1.00  0.00     0.177 HD
BRANCH  24  26
HETATM   26  C5  UNL     1      -4.553   0.838  15.511  1.00  0.00     0.138 C 
BRANCH  26  27
HETATM   27  C4  UNL     1      -5.117   1.670  16.643  1.00  0.00     0.024 C 
BRANCH  27  28
HETATM   28  C2  UNL     1      -6.559   2.041  16.301  1.00  0.00    -0.021 C 
HETATM   29  C1  UNL     1      -7.466   1.069  17.004  1.00  0.00     0.009 C 
HETATM   30  C3  UNL     1      -6.838   3.471  16.670  1.00  0.00     0.009 C 
ENDBRANCH  27  28
ENDBRANCH  26  27
ENDBRANCH  24  26
ENDBRANCH   1  24
BRANCH   7  31
HETATM   31  N7  UNL     1      -3.524  -1.616  11.157  1.00  0.00    -0.172 N 
HETATM   32  C14 UNL     1      -2.709  -2.664  11.673  1.00  0.00     0.494 C 
HETATM   33  N8  UNL     1      -3.301  -3.938  11.265  1.00  0.00    -0.032 N 
HETATM   34  N9  UNL     1      -1.401  -2.582  11.030  1.00  0.00    -0.032 N 
ATOM     35  H83 UNL     1      -4.279  -4.026  11.541  1.00  0.00     0.278 HD
ATOM     36  H82 UNL     1      -3.439  -4.005  10.256  1.00  0.00     0.278 HD
ATOM     37  H81 UNL     1      -2.717  -4.689  11.634  1.00  0.00     0.278 HD
ATOM     38  H93 UNL     1      -1.461  -2.595  10.013  1.00  0.00     0.278 HD
ATOM     39  H92 UNL     1      -0.971  -1.662  11.131  1.00  0.00     0.278 HD
ATOM     40  H91 UNL     1      -0.817  -3.332  11.400  1.00  0.00     0.278 HD
ATOM     41  H7  UNL     1      -4.155  -1.838  10.386  1.00  0.00     0.181 HD
ENDBRANCH   7  31
TORSDOF 8
ENDMDL
MODEL 5
REMARK VINA RESULT: -7.084611597      3.312      6.782
REMARK  8 active torsions:
REMARK  status: ('A' for Active; 'I' for Inactive)
REMARK    1  A    between atoms: C2_2  and  C4_4 
REMARK    2  A    between atoms: C4_4  and  C5_5 
REMARK    3  A    between atoms: C5_5  and  N1_6 
REMARK    4  A    between atoms: N1_6  and  C6_8 
REMARK    5  A    between atoms: C7_11  and  N3_12 
REMARK    6  A    between atoms: C9_14  and  N4_15 
REMARK    7  A    between atoms: C11_20  and  N5_21 
REMARK    8  A    between atoms: C13_28  and  N7_29 
REMARK       I    between atoms: N7_29  and  C14_31 
REMARK       I    between atoms: C14_31  and  N8_32 
REMARK       I    between atoms: C14_31  and  N9_36 
ROOT
HETATM    1  C6  UNL     1      -1.100   2.381   9.484  1.00  0.00     0.707 A 
HETATM    2  N2  UNL     1      -1.650   3.391  10.196  1.00  0.00    -0.021 N 
ATOM      3  H2  UNL     1      -1.564   4.361   9.892  1.00  0.00     0.203 HD
HETATM    4  C7  UNL     1      -2.314   3.072  11.317  1.00  0.00     0.709 A 
HETATM    5  N6  UNL     1      -2.417   1.760  11.706  1.00  0.00    -0.021 N 
ATOM      6  H6  UNL     1      -2.928   1.539  12.561  1.00  0.00     0.203 HD
HETATM    7  C13 UNL     1      -1.872   0.761  11.003  1.00  0.00     0.710 A 
HETATM    8  N10 UNL     1      -1.210   1.105   9.878  1.00  0.00    -0.021 N 
ATOM      9  H10 UNL     1      -0.781   0.373   9.313  1.00  0.00     0.203 HD
ENDROOT
BRANCH   4  10
HETATM   10  N3  UNL     1      -2.925   4.069  12.126  1.00  0.00    -0.213 N 
HETATM   11  C8  UNL     1      -2.340   5.327  12.427  1.00  0.00     0.174 C 
HETATM   12  C9  UNL     1      -2.224   5.361  13.961  1.00  0.00     0.204 C 
HETATM   13  C10 UNL     1      -3.643   5.525  14.442  1.00  0.00     0.069 C 
HETATM   14  C11 UNL     1      -4.656   4.686  13.777  1.00  0.00     0.204 C 
HETATM   15  C12 UNL     1      -4.235   3.792  12.690  1.00  0.00     0.174 C 
BRANCH  12  16
HETATM   16  N4  UNL     1      -1.753   4.074  14.418  1.00  0.00    -0.073 N 
ATOM     17  H43 UNL     1      -1.626   3.411  13.653  1.00  0.00     0.274 HD
ATOM     18  H42 UNL     1      -0.786   4.104  14.741  1.00  0.00     0.274 HD
ATOM     19  H41 UNL     1      -2.394   3.727  15.133  1.00  0.00     0.274 HD
ENDBRANCH  12  16
BRANCH  14  20
HETATM   20  N5  UNL     1      -5.752   5.563  13.324  1.00  0.00    -0.073 N 
ATOM     21  H53 UNL     1      -5.602   5.925  12.382  1.00  0.00     0.274 HD
ATOM     22  H52 UNL     1      -6.615   5.051  13.139  1.00  0.00     0.274 HD
ATOM     23  H51 UNL     1      -5.873   6.302  14.016  1.00  0.00     0.274 HD
ENDBRANCH  14  20
ENDBRANCH   4  10
BRANCH   1  24
HETATM   24  N1  UNL     1      -0.464   2.703   8.408  1.00  0.00    -0.225 N 
ATOM     25  H1  UNL     1      -0.643   2.172   7.555  1.00  0.00     0.177 HD
BRANCH  24  26
HETATM   26  C5  UNL     1       0.490   3.785   8.364  1.00  0.00     0.138 C 
BRANCH  26  27
HETATM   27  C4  UNL     1       1.743   3.354   9.096  1.00  0.00     0.024 C 
BRANCH  27  28
HETATM   28  C2  UNL     1       2.135   4.456  10.079  1.00  0.00    -0.021 C 
HETATM   29  C1  UNL     1       3.559   4.846   9.793  1.00  0.00     0.009 C 
HETATM   30  C3  UNL     1       1.182   5.613   9.981  1.00  0.00     0.009 C 
ENDBRANCH  27  28
ENDBRANCH  26  27
ENDBRANCH  24  26
ENDBRANCH   1  24
BRANCH   7  31
HETATM   31  N7  UNL     1      -1.993  -0.460  11.403  1.00  0.00    -0.172 N 
HETATM   32  C14 UNL     1      -3.027  -1.342  10.979  1.00  0.00     0.494 C 
HETATM   33  N8  UNL     1      -2.592  -2.712  11.254  1.00  0.00    -0.032 N 
HETATM   34  N9  UNL     1      -4.202  -1.099  11.810  1.00  0.00    -0.032 N 
ATOM     35  H83 UNL     1      -1.689  -2.931  10.834  1.00  0.00     0.278 HD
ATOM     36  H82 UNL     1      -2.326  -2.854  12.229  1.00  0.00     0.278 HD
ATOM     37  H81 UNL     1      -3.333  -3.344  10.951  1.00  0.00     0.278 HD
ATOM     38  H93 UNL     1      -4.002  -1.177  12.807  1.00  0.00     0.278 HD
ATOM     39  H92 UNL     1      -4.492  -0.121  11.804  1.00  0.00     0.278 HD
ATOM     40  H91 UNL     1      -4.943  -1.731  11.507  1.00  0.00     0.278 HD
ATOM     41  H7  UNL     1      -1.303  -0.816  12.065  1.00  0.00     0.181 HD
ENDBRANCH   7  31
TORSDOF 8
ENDMDL
