MODEL 1
REMARK VINA RESULT: -6.547180122      0.000      0.000
REMARK  10 active torsions:
REMARK  status: ('A' for Active; 'I' for Inactive)
REMARK    1  A    between atoms: C3_4  and  S1_5 
REMARK    2  A    between atoms: S1_5  and  O2_8 
REMARK    3  A    between atoms: O2_8  and  C4_9 
REMARK    4  A    between atoms: C5_11  and  C6_12 
REMARK    5  A    between atoms: C6_12  and  O4_13 
REMARK    6  A    between atoms: C7_15  and  O5_16 
REMARK    7  A    between atoms: C8_18  and  O6_19 
REMARK    8  A    between atoms: C9_21  and  N1_22 
REMARK    9  A    between atoms: N1_22  and  N2_24 
REMARK   10  A    between atoms: N2_24  and  N3_25 
ROOT
HETATM    1  C4  UNL     1      -3.700   2.851  12.428  1.00  0.00     0.305 C 
HETATM    2  O3  UNL     1      -3.393   2.992  11.088  1.00  0.00    -0.348 OA
HETATM    3  C5  UNL     1      -2.800   1.909  10.514  1.00  0.00     0.179 C 
HETATM    4  C7  UNL     1      -3.466   0.596  10.834  1.00  0.00     0.180 C 
HETATM    5  C8  UNL     1      -4.831   0.900  11.409  1.00  0.00     0.179 C 
HETATM    6  C9  UNL     1      -4.584   1.665  12.708  1.00  0.00     0.202 C 
ENDROOT
BRANCH   1   7
HETATM    7  O2  UNL     1      -4.406   3.995  12.812  1.00  0.00    -0.259 OA
BRANCH   7   8
HETATM    8  S1  UNL     1      -4.236   4.355  14.424  1.00  0.00     0.150 S 
HETATM    9  O1  UNL     1      -3.179   3.433  15.010  1.00  0.00    -0.227 OA
HETATM   10  S2  UNL     1      -5.706   4.004  15.253  1.00  0.00     0.041 SA
BRANCH   8  11
HETATM   11  C3  UNL     1      -3.856   6.022  14.702  1.00  0.00     0.124 C 
HETATM   12  C2  UNL     1      -2.706   6.559  14.317  1.00  0.00     0.018 C 
HETATM   13  C1  UNL     1      -2.390   7.987  14.560  1.00  0.00     0.062 C 
HETATM   14 CL1  UNL     1      -1.506   5.583  13.495  1.00  0.00    -0.089 Cl
ENDBRANCH   8  11
ENDBRANCH   7   8
ENDBRANCH   1   7
BRANCH   6  15
HETATM   15  N1  UNL     1      -3.947   0.742  13.636  1.00  0.00    -0.240 N 
ATOM     16  H1  UNL     1      -3.035   0.356  13.392  1.00  0.00     0.197 HD
BRANCH  15  17
HETATM   17  N2  UNL     1      -4.461   0.409  14.697  1.00  0.00    -0.248 NA
BRANCH  17  18
HETATM   18  N3  UNL     1      -4.757   0.250  15.883  1.00  0.00    -0.261 N 
ATOM     19  H32 UNL     1      -3.780   0.246  16.175  1.00  0.00     0.193 HD
ATOM     20  H31 UNL     1      -5.239   0.122  16.774  1.00  0.00     0.193 HD
ENDBRANCH  17  18
ENDBRANCH  15  17
ENDBRANCH   6  15
BRANCH   3  21
HETATM   21  C6  UNL     1      -1.335   1.761  10.863  1.00  0.00     0.198 C 
BRANCH  21  22
HETATM   22  O4  UNL     1      -1.068   0.528  11.420  1.00  0.00    -0.398 OA
ATOM     23  H4  UNL     1      -0.505   0.602  12.182  1.00  0.00     0.209 HD
ENDBRANCH  21  22
ENDBRANCH   3  21
BRANCH   5  24
HETATM   24  O6  UNL     1      -5.557   1.742  10.570  1.00  0.00    -0.391 OA
ATOM     25  H6  UNL     1      -6.487   1.704  10.765  1.00  0.00     0.210 HD
ENDBRANCH   5  24
BRANCH   4  26
HETATM   26  O5  UNL     1      -3.529  -0.217   9.714  1.00  0.00    -0.390 OA
ATOM     27  H5  UNL     1      -4.214  -0.870   9.803  1.00  0.00     0.210 HD
ENDBRANCH   4  26
TORSDOF 10
ENDMDL
MODEL 2
REMARK VINA RESULT: -6.484243734      3.334      5.469
REMARK  10 active torsions:
REMARK  status: ('A' for Active; 'I' for Inactive)
REMARK    1  A    between atoms: C3_4  and  S1_5 
REMARK    2  A    between atoms: S1_5  and  O2_8 
REMARK    3  A    between atoms: O2_8  and  C4_9 
REMARK    4  A    between atoms: C5_11  and  C6_12 
REMARK    5  A    between atoms: C6_12  and  O4_13 
REMARK    6  A    between atoms: C7_15  and  O5_16 
REMARK    7  A    between atoms: C8_18  and  O6_19 
REMARK    8  A    between atoms: C9_21  and  N1_22 
REMARK    9  A    between atoms: N1_22  and  N2_24 
REMARK   10  A    between atoms: N2_24  and  N3_25 
ROOT
HETATM    1  C4  UNL     1      -3.899   2.615  13.308  1.00  0.00     0.305 C 
HETATM    2  O3  UNL     1      -4.803   1.610  13.594  1.00  0.00    -0.348 OA
HETATM    3  C5  UNL     1      -5.126   1.478  14.910  1.00  0.00     0.179 C 
HETATM    4  C7  UNL     1      -5.447   2.778  15.602  1.00  0.00     0.180 C 
HETATM    5  C8  UNL     1      -5.677   3.824  14.534  1.00  0.00     0.179 C 
HETATM    6  C9  UNL     1      -4.352   3.969  13.788  1.00  0.00     0.202 C 
ENDROOT
BRANCH   1   7
HETATM    7  O2  UNL     1      -3.785   2.685  11.917  1.00  0.00    -0.259 OA
BRANCH   7   8
HETATM    8  S1  UNL     1      -2.304   2.185  11.358  1.00  0.00     0.150 S 
HETATM    9  O1  UNL     1      -1.226   2.877  12.178  1.00  0.00    -0.227 OA
HETATM   10  S2  UNL     1      -2.092   2.708   9.730  1.00  0.00     0.041 SA
BRANCH   8  11
HETATM   11  C3  UNL     1      -2.122   0.462  11.389  1.00  0.00     0.124 C 
HETATM   12  C2  UNL     1      -3.107  -0.360  11.053  1.00  0.00     0.018 C 
HETATM   13  C1  UNL     1      -2.941  -1.833  11.083  1.00  0.00     0.062 C 
HETATM   14 CL1  UNL     1      -4.660   0.281  10.555  1.00  0.00    -0.089 Cl
ENDBRANCH   8  11
ENDBRANCH   7   8
ENDBRANCH   1   7
BRANCH   6  15
HETATM   15  N1  UNL     1      -3.394   4.543  14.721  1.00  0.00    -0.240 N 
ATOM     16  H1  UNL     1      -3.670   5.365  15.260  1.00  0.00     0.197 HD
BRANCH  15  17
HETATM   17  N2  UNL     1      -2.272   4.081  14.887  1.00  0.00    -0.248 NA
BRANCH  17  18
HETATM   18  N3  UNL     1      -1.069   3.910  15.096  1.00  0.00    -0.261 N 
ATOM     19  H32 UNL     1      -0.915   3.523  14.165  1.00  0.00     0.193 HD
ATOM     20  H31 UNL     1      -0.130   3.867  15.494  1.00  0.00     0.193 HD
ENDBRANCH  17  18
ENDBRANCH  15  17
ENDBRANCH   6  15
BRANCH   3  21
HETATM   21  C6  UNL     1      -4.058   0.789  15.732  1.00  0.00     0.198 C 
BRANCH  21  22
HETATM   22  O4  UNL     1      -3.115   1.683  16.192  1.00  0.00    -0.398 OA
ATOM     23  H4  UNL     1      -3.175   1.805  17.132  1.00  0.00     0.209 HD
ENDBRANCH  21  22
ENDBRANCH   3  21
BRANCH   5  24
HETATM   24  O6  UNL     1      -6.625   3.399  13.606  1.00  0.00    -0.391 OA
ATOM     25  H6  UNL     1      -6.297   3.477  12.718  1.00  0.00     0.210 HD
ENDBRANCH   5  24
BRANCH   4  26
HETATM   26  O5  UNL     1      -6.532   2.636  16.451  1.00  0.00    -0.390 OA
ATOM     27  H5  UNL     1      -6.251   2.412  17.331  1.00  0.00     0.210 HD
ENDBRANCH   4  26
TORSDOF 10
ENDMDL
MODEL 3
REMARK VINA RESULT: -6.309366755      3.468      4.240
REMARK  10 active torsions:
REMARK  status: ('A' for Active; 'I' for Inactive)
REMARK    1  A    between atoms: C3_4  and  S1_5 
REMARK    2  A    between atoms: S1_5  and  O2_8 
REMARK    3  A    between atoms: O2_8  and  C4_9 
REMARK    4  A    between atoms: C5_11  and  C6_12 
REMARK    5  A    between atoms: C6_12  and  O4_13 
REMARK    6  A    between atoms: C7_15  and  O5_16 
REMARK    7  A    between atoms: C8_18  and  O6_19 
REMARK    8  A    between atoms: C9_21  and  N1_22 
REMARK    9  A    between atoms: N1_22  and  N2_24 
REMARK   10  A    between atoms: N2_24  and  N3_25 
ROOT
HETATM    1  C4  UNL     1      -4.381   3.861  12.577  1.00  0.00     0.305 C 
HETATM    2  O3  UNL     1      -5.238   2.847  12.196  1.00  0.00    -0.348 OA
HETATM    3  C5  UNL     1      -4.803   1.587  12.472  1.00  0.00     0.179 C 
HETATM    4  C7  UNL     1      -4.263   1.411  13.869  1.00  0.00     0.180 C 
HETATM    5  C8  UNL     1      -4.702   2.606  14.686  1.00  0.00     0.179 C 
HETATM    6  C9  UNL     1      -4.043   3.825  14.045  1.00  0.00     0.202 C 
ENDROOT
BRANCH   1   7
HETATM    7  O2  UNL     1      -5.038   5.070  12.333  1.00  0.00    -0.259 OA
BRANCH   7   8
HETATM    8  S1  UNL     1      -4.261   6.019  11.213  1.00  0.00     0.150 S 
HETATM    9  O1  UNL     1      -3.060   5.249  10.687  1.00  0.00    -0.227 OA
HETATM   10  S2  UNL     1      -3.639   7.431  11.982  1.00  0.00     0.041 SA
BRANCH   8  11
HETATM   11  C3  UNL     1      -5.304   6.532   9.929  1.00  0.00     0.124 C 
HETATM   12  C2  UNL     1      -6.471   7.121  10.157  1.00  0.00     0.018 C 
HETATM   13  C1  UNL     1      -7.357   7.555   9.050  1.00  0.00     0.062 C 
HETATM   14 CL1  UNL     1      -7.009   7.407  11.799  1.00  0.00    -0.089 Cl
ENDBRANCH   8  11
ENDBRANCH   7   8
ENDBRANCH   1   7
BRANCH   6  15
HETATM   15  N1  UNL     1      -2.608   3.696  14.250  1.00  0.00    -0.240 N 
ATOM     16  H1  UNL     1      -2.265   3.498  15.191  1.00  0.00     0.197 HD
BRANCH  15  17
HETATM   17  N2  UNL     1      -1.795   3.814  13.342  1.00  0.00    -0.248 NA
BRANCH  17  18
HETATM   18  N3  UNL     1      -0.855   3.684  12.555  1.00  0.00    -0.261 N 
ATOM     19  H32 UNL     1      -1.478   3.521  11.764  1.00  0.00     0.193 HD
ATOM     20  H31 UNL     1       0.062   3.618  12.111  1.00  0.00     0.193 HD
ENDBRANCH  17  18
ENDBRANCH  15  17
ENDBRANCH   6  15
BRANCH   3  21
HETATM   21  C6  UNL     1      -3.741   1.086  11.519  1.00  0.00     0.198 C 
BRANCH  21  22
HETATM   22  O4  UNL     1      -2.491   1.093  12.102  1.00  0.00    -0.398 OA
ATOM     23  H4  UNL     1      -1.837   1.473  11.526  1.00  0.00     0.209 HD
ENDBRANCH  21  22
ENDBRANCH   3  21
BRANCH   5  24
HETATM   24  O6  UNL     1      -6.080   2.795  14.605  1.00  0.00    -0.391 OA
ATOM     25  H6  UNL     1      -6.295   3.712  14.477  1.00  0.00     0.210 HD
ENDBRANCH   5  24
BRANCH   4  26
HETATM   26  O5  UNL     1      -4.679   0.209  14.417  1.00  0.00    -0.390 OA
ATOM     27  H5  UNL     1      -3.977  -0.431  14.408  1.00  0.00     0.210 HD
ENDBRANCH   4  26
TORSDOF 10
ENDMDL
MODEL 4
REMARK VINA RESULT: -6.307684806      2.970      3.954
REMARK  10 active torsions:
REMARK  status: ('A' for Active; 'I' for Inactive)
REMARK    1  A    between atoms: C3_4  and  S1_5 
REMARK    2  A    between atoms: S1_5  and  O2_8 
REMARK    3  A    between atoms: O2_8  and  C4_9 
REMARK    4  A    between atoms: C5_11  and  C6_12 
REMARK    5  A    between atoms: C6_12  and  O4_13 
REMARK    6  A    between atoms: C7_15  and  O5_16 
REMARK    7  A    between atoms: C8_18  and  O6_19 
REMARK    8  A    between atoms: C9_21  and  N1_22 
REMARK    9  A    between atoms: N1_22  and  N2_24 
REMARK   10  A    between atoms: N2_24  and  N3_25 
ROOT
HETATM    1  C4  UNL     1      -4.221   3.666  12.318  1.00  0.00     0.305 C 
HETATM    2  O3  UNL     1      -4.805   4.285  11.229  1.00  0.00    -0.348 OA
HETATM    3  C5  UNL     1      -3.933   4.779  10.308  1.00  0.00     0.179 C 
HETATM    4  C7  UNL     1      -2.829   3.826   9.927  1.00  0.00     0.180 C 
HETATM    5  C8  UNL     1      -3.222   2.449  10.409  1.00  0.00     0.179 C 
HETATM    6  C9  UNL     1      -3.302   2.537  11.932  1.00  0.00     0.202 C 
ENDROOT
BRANCH   1   7
HETATM    7  O2  UNL     1      -5.254   3.117  13.083  1.00  0.00    -0.259 OA
BRANCH   7   8
HETATM    8  S1  UNL     1      -5.811   4.147  14.260  1.00  0.00     0.150 S 
HETATM    9  O1  UNL     1      -6.920   4.999  13.662  1.00  0.00    -0.227 OA
HETATM   10  S2  UNL     1      -4.555   5.233  14.723  1.00  0.00     0.041 SA
BRANCH   8  11
HETATM   11  C3  UNL     1      -6.342   3.314  15.683  1.00  0.00     0.124 C 
HETATM   12  C2  UNL     1      -5.612   2.371  16.265  1.00  0.00     0.018 C 
HETATM   13  C1  UNL     1      -6.076   1.664  17.483  1.00  0.00     0.062 C 
HETATM   14 CL1  UNL     1      -4.054   1.925  15.601  1.00  0.00    -0.089 Cl
ENDBRANCH   8  11
ENDBRANCH   7   8
ENDBRANCH   1   7
BRANCH   6  15
HETATM   15  N1  UNL     1      -1.951   2.769  12.420  1.00  0.00    -0.240 N 
ATOM     16  H1  UNL     1      -1.206   2.143  12.112  1.00  0.00     0.197 HD
BRANCH  15  17
HETATM   17  N2  UNL     1      -1.670   3.683  13.184  1.00  0.00    -0.248 NA
BRANCH  17  18
HETATM   18  N3  UNL     1      -1.127   4.447  13.986  1.00  0.00    -0.261 N 
ATOM     19  H32 UNL     1      -1.015   3.711  14.683  1.00  0.00     0.193 HD
ATOM     20  H31 UNL     1      -0.715   5.248  14.464  1.00  0.00     0.193 HD
ENDBRANCH  17  18
ENDBRANCH  15  17
ENDBRANCH   6  15
BRANCH   3  21
HETATM   21  C6  UNL     1      -3.275   6.076  10.727  1.00  0.00     0.198 C 
BRANCH  21  22
HETATM   22  O4  UNL     1      -1.970   5.878  11.125  1.00  0.00    -0.398 OA
ATOM     23  H4  UNL     1      -1.512   6.702  11.249  1.00  0.00     0.209 HD
ENDBRANCH  21  22
ENDBRANCH   3  21
BRANCH   5  24
HETATM   24  O6  UNL     1      -4.490   2.097   9.952  1.00  0.00    -0.391 OA
ATOM     25  H6  UNL     1      -5.105   2.011  10.672  1.00  0.00     0.210 HD
ENDBRANCH   5  24
BRANCH   4  26
HETATM   26  O5  UNL     1      -2.586   3.865   8.563  1.00  0.00    -0.390 OA
ATOM     27  H5  UNL     1      -1.950   4.538   8.348  1.00  0.00     0.210 HD
ENDBRANCH   4  26
TORSDOF 10
ENDMDL
MODEL 5
REMARK VINA RESULT: -6.289283604      2.438      2.960
REMARK  10 active torsions:
REMARK  status: ('A' for Active; 'I' for Inactive)
REMARK    1  A    between atoms: C3_4  and  S1_5 
REMARK    2  A    between atoms: S1_5  and  O2_8 
REMARK    3  A    between atoms: O2_8  and  C4_9 
REMARK    4  A    between atoms: C5_11  and  C6_12 
REMARK    5  A    between atoms: C6_12  and  O4_13 
REMARK    6  A    between atoms: C7_15  and  O5_16 
REMARK    7  A    between atoms: C8_18  and  O6_19 
REMARK    8  A    between atoms: C9_21  and  N1_22 
REMARK    9  A    between atoms: N1_22  and  N2_24 
REMARK   10  A    between atoms: N2_24  and  N3_25 
ROOT
HETATM    1  C4  UNL     1      -3.857   3.319  11.315  1.00  0.00     0.305 C 
HETATM    2  O3  UNL     1      -3.498   2.627  10.174  1.00  0.00    -0.348 OA
HETATM    3  C5  UNL     1      -2.545   1.671  10.352  1.00  0.00     0.179 C 
HETATM    4  C7  UNL     1      -2.783   0.773  11.539  1.00  0.00     0.180 C 
HETATM    5  C8  UNL     1      -4.217   0.963  11.980  1.00  0.00     0.179 C 
HETATM    6  C9  UNL     1      -4.337   2.419  12.423  1.00  0.00     0.202 C 
ENDROOT
BRANCH   1   7
HETATM    7  O2  UNL     1      -4.919   4.159  10.972  1.00  0.00    -0.259 OA
BRANCH   7   8
HETATM    8  S1  UNL     1      -4.501   5.766  10.954  1.00  0.00     0.150 S 
HETATM    9  O1  UNL     1      -5.747   6.579  10.640  1.00  0.00    -0.227 OA
HETATM   10  S2  UNL     1      -3.388   6.060   9.671  1.00  0.00     0.041 SA
BRANCH   8  11
HETATM   11  C3  UNL     1      -3.756   6.282  12.430  1.00  0.00     0.124 C 
HETATM   12  C2  UNL     1      -4.374   6.199  13.601  1.00  0.00     0.018 C 
HETATM   13  C1  UNL     1      -3.728   6.644  14.859  1.00  0.00     0.062 C 
HETATM   14 CL1  UNL     1      -5.998   5.550  13.699  1.00  0.00    -0.089 Cl
ENDBRANCH   8  11
ENDBRANCH   7   8
ENDBRANCH   1   7
BRANCH   6  15
HETATM   15  N1  UNL     1      -3.520   2.573  13.618  1.00  0.00    -0.240 N 
ATOM     16  H1  UNL     1      -3.762   2.032  14.448  1.00  0.00     0.197 HD
BRANCH  15  17
HETATM   17  N2  UNL     1      -2.555   3.326  13.668  1.00  0.00    -0.248 NA
BRANCH  17  18
HETATM   18  N3  UNL     1      -1.513   3.915  13.964  1.00  0.00    -0.261 N 
ATOM     19  H32 UNL     1      -1.949   4.387  14.755  1.00  0.00     0.193 HD
ATOM     20  H31 UNL     1      -0.560   4.277  14.008  1.00  0.00     0.193 HD
ENDBRANCH  17  18
ENDBRANCH  15  17
ENDBRANCH   6  15
BRANCH   3  21
HETATM   21  C6  UNL     1      -1.145   2.226  10.489  1.00  0.00     0.198 C 
BRANCH  21  22
HETATM   22  O4  UNL     1      -0.674   2.107  11.779  1.00  0.00    -0.398 OA
ATOM     23  H4  UNL     1      -0.344   2.934  12.111  1.00  0.00     0.209 HD
ENDBRANCH  21  22
ENDBRANCH   3  21
BRANCH   5  24
HETATM   24  O6  UNL     1      -5.100   0.784  10.917  1.00  0.00    -0.391 OA
ATOM     25  H6  UNL     1      -4.673   0.942  10.083  1.00  0.00     0.210 HD
ENDBRANCH   5  24
BRANCH   4  26
HETATM   26  O5  UNL     1      -2.489  -0.546  11.233  1.00  0.00    -0.390 OA
ATOM     27  H5  UNL     1      -1.707  -0.836  11.688  1.00  0.00     0.210 HD
ENDBRANCH   4  26
TORSDOF 10
ENDMDL
