MODEL 1
REMARK VINA RESULT: -6.713851083      0.000      0.000
REMARK  11 active torsions:
REMARK  status: ('A' for Active; 'I' for Inactive)
REMARK    1  A    between atoms: N1_2  and  O3_4 
REMARK    2  A    between atoms: O3_4  and  C1_5 
REMARK    3  A    between atoms: C1_5  and  C2_6 
REMARK    4  A    between atoms: C2_6  and  N2_7 
REMARK    5  A    between atoms: C5_10  and  O4_11 
REMARK    6  A    between atoms: C12_19  and  C13_20 
REMARK    7  A    between atoms: C13_20  and  O5_21 
REMARK    8  A    between atoms: C13_20  and  C14_23 
REMARK    9  A    between atoms: C14_23  and  C15_24 
REMARK   10  A    between atoms: C15_24  and  C16_25 
REMARK   11  A    between atoms: C16_25  and  O6_26 
ROOT
HETATM    1  C1  UNL     1       7.994  -0.248  -0.474  1.00  0.00     0.127 C 
HETATM    2  C10 UNL     1       8.951  -1.410  -1.089  1.00  0.00     0.044 C 
HETATM    3  C11 UNL     1       9.686  -0.232  -1.675  1.00  0.00     0.013 C 
HETATM    4  C12 UNL     1       8.284   0.432  -1.723  1.00  0.00     0.054 C 
ENDROOT
BRANCH   1   5
HETATM    5  O3  UNL     1       8.864   0.239   0.573  1.00  0.00    -0.208 OA
BRANCH   5   6
HETATM    6  N1  UNL     1       8.725   1.408   1.237  1.00  0.00     0.005 N 
HETATM    7  O1  UNL     1       8.291   1.364   2.439  1.00  0.00    -0.511 OA
HETATM    8  O2  UNL     1       8.994   2.664   0.775  1.00  0.00    -0.511 OA
ENDBRANCH   5   6
ENDBRANCH   1   5
BRANCH   1   9
HETATM    9  C2  UNL     1       6.772  -0.904  -0.010  1.00  0.00     0.314 C 
BRANCH   9  10
HETATM   10  N2  UNL     1       6.832  -1.961   0.913  1.00  0.00     0.099 N 
HETATM   11  C3  UNL     1       6.688  -1.749   2.291  1.00  0.00     0.276 C 
HETATM   12  C4  UNL     1       6.344  -3.123   2.897  1.00  0.00     0.070 C 
HETATM   13  C5  UNL     1       5.446  -3.690   1.814  1.00  0.00     0.090 C 
HETATM   14  C6  UNL     1       5.530  -5.177   1.682  1.00  0.00     0.040 C 
HETATM   15  C9  UNL     1       5.990  -3.083   0.540  1.00  0.00     0.257 C 
HETATM   16  C7  UNL     1       6.261  -5.480   0.390  1.00  0.00     0.005 C 
HETATM   17  C8  UNL     1       6.884  -4.164  -0.025  1.00  0.00     0.039 C 
BRANCH  13  18
HETATM   18  O4  UNL     1       4.123  -3.338   2.057  1.00  0.00    -0.388 OA
ATOM     19  H4  UNL     1       3.540  -3.899   1.561  1.00  0.00     0.210 HD
ENDBRANCH  13  18
ENDBRANCH   9  10
ENDBRANCH   1   9
BRANCH   4  20
HETATM   20  C13 UNL     1       7.695   0.116  -3.040  1.00  0.00     0.125 C 
BRANCH  20  21
HETATM   21  O5  UNL     1       8.133   1.235  -3.877  1.00  0.00    -0.395 OA
ATOM     22  H5  UNL     1       7.472   1.267  -4.558  1.00  0.00     0.210 HD
ENDBRANCH  20  21
BRANCH  20  23
HETATM   23  C14 UNL     1       6.199   0.109  -3.164  1.00  0.00     0.034 C 
BRANCH  23  24
HETATM   24  C15 UNL     1       5.562  -1.109  -3.708  1.00  0.00     0.028 C 
BRANCH  24  25
HETATM   25  C16 UNL     1       5.952  -1.564  -5.071  1.00  0.00     0.164 C 
BRANCH  25  26
HETATM   26  O6  UNL     1       5.975  -0.500  -5.979  1.00  0.00    -0.401 OA
ATOM     27  H6  UNL     1       5.837  -0.800  -6.870  1.00  0.00     0.209 HD
ENDBRANCH  25  26
ENDBRANCH  24  25
ENDBRANCH  23  24
ENDBRANCH  20  23
ENDBRANCH   4  20
TORSDOF 11
ENDMDL
MODEL 2
REMARK VINA RESULT: -6.562698576      2.478      5.509
REMARK  11 active torsions:
REMARK  status: ('A' for Active; 'I' for Inactive)
REMARK    1  A    between atoms: N1_2  and  O3_4 
REMARK    2  A    between atoms: O3_4  and  C1_5 
REMARK    3  A    between atoms: C1_5  and  C2_6 
REMARK    4  A    between atoms: C2_6  and  N2_7 
REMARK    5  A    between atoms: C5_10  and  O4_11 
REMARK    6  A    between atoms: C12_19  and  C13_20 
REMARK    7  A    between atoms: C13_20  and  O5_21 
REMARK    8  A    between atoms: C13_20  and  C14_23 
REMARK    9  A    between atoms: C14_23  and  C15_24 
REMARK   10  A    between atoms: C15_24  and  C16_25 
REMARK   11  A    between atoms: C16_25  and  O6_26 
ROOT
HETATM    1  C1  UNL     1       7.305  -0.334  -1.865  1.00  0.00     0.127 C 
HETATM    2  C10 UNL     1       6.753  -1.253  -3.087  1.00  0.00     0.044 C 
HETATM    3  C11 UNL     1       5.447  -1.123  -2.346  1.00  0.00     0.013 C 
HETATM    4  C12 UNL     1       6.341  -1.079  -1.077  1.00  0.00     0.054 C 
ENDROOT
BRANCH   1   5
HETATM    5  O3  UNL     1       6.747   0.940  -2.263  1.00  0.00    -0.208 OA
BRANCH   5   6
HETATM    6  N1  UNL     1       7.314   1.819  -3.119  1.00  0.00     0.005 N 
HETATM    7  O1  UNL     1       7.551   3.001  -2.690  1.00  0.00    -0.511 OA
HETATM    8  O2  UNL     1       7.675   1.601  -4.417  1.00  0.00    -0.511 OA
ENDBRANCH   5   6
ENDBRANCH   1   5
BRANCH   1   9
HETATM    9  C2  UNL     1       8.765  -0.409  -1.901  1.00  0.00     0.314 C 
BRANCH   9  10
HETATM   10  N2  UNL     1       9.540   0.234  -0.922  1.00  0.00     0.099 N 
HETATM   11  C3  UNL     1      10.713   0.931  -1.246  1.00  0.00     0.276 C 
HETATM   12  C4  UNL     1      11.000   1.857  -0.048  1.00  0.00     0.070 C 
HETATM   13  C5  UNL     1       9.592   2.274   0.327  1.00  0.00     0.090 C 
HETATM   14  C6  UNL     1       9.412   2.527   1.790  1.00  0.00     0.040 C 
HETATM   15  C9  UNL     1       8.750   1.073  -0.039  1.00  0.00     0.257 C 
HETATM   16  C7  UNL     1       8.575   1.395   2.350  1.00  0.00     0.005 C 
HETATM   17  C8  UNL     1       8.580   0.334   1.269  1.00  0.00     0.039 C 
BRANCH  13  18
HETATM   18  O4  UNL     1       9.230   3.419  -0.372  1.00  0.00    -0.388 OA
ATOM     19  H4  UNL     1       8.337   3.343  -0.684  1.00  0.00     0.210 HD
ENDBRANCH  13  18
ENDBRANCH   9  10
ENDBRANCH   1   9
BRANCH   4  20
HETATM   20  C13 UNL     1       6.497  -2.470  -0.603  1.00  0.00     0.125 C 
BRANCH  20  21
HETATM   21  O5  UNL     1       5.319  -2.667   0.244  1.00  0.00    -0.395 OA
ATOM     22  H5  UNL     1       5.290  -3.609   0.358  1.00  0.00     0.210 HD
ENDBRANCH  20  21
BRANCH  20  23
HETATM   23  C14 UNL     1       7.665  -2.788   0.285  1.00  0.00     0.034 C 
BRANCH  23  24
HETATM   24  C15 UNL     1       8.746  -3.624  -0.278  1.00  0.00     0.028 C 
BRANCH  24  25
HETATM   25  C16 UNL     1       8.575  -4.174  -1.651  1.00  0.00     0.164 C 
BRANCH  25  26
HETATM   26  O6  UNL     1       9.755  -4.068  -2.396  1.00  0.00    -0.401 OA
ATOM     27  H6  UNL     1       9.723  -4.607  -3.177  1.00  0.00     0.209 HD
ENDBRANCH  25  26
ENDBRANCH  24  25
ENDBRANCH  23  24
ENDBRANCH  20  23
ENDBRANCH   4  20
TORSDOF 11
ENDMDL
MODEL 3
REMARK VINA RESULT: -6.525050620      2.668      5.833
REMARK  11 active torsions:
REMARK  status: ('A' for Active; 'I' for Inactive)
REMARK    1  A    between atoms: N1_2  and  O3_4 
REMARK    2  A    between atoms: O3_4  and  C1_5 
REMARK    3  A    between atoms: C1_5  and  C2_6 
REMARK    4  A    between atoms: C2_6  and  N2_7 
REMARK    5  A    between atoms: C5_10  and  O4_11 
REMARK    6  A    between atoms: C12_19  and  C13_20 
REMARK    7  A    between atoms: C13_20  and  O5_21 
REMARK    8  A    between atoms: C13_20  and  C14_23 
REMARK    9  A    between atoms: C14_23  and  C15_24 
REMARK   10  A    between atoms: C15_24  and  C16_25 
REMARK   11  A    between atoms: C16_25  and  O6_26 
ROOT
HETATM    1  C1  UNL     1       7.446  -0.367  -1.832  1.00  0.00     0.127 C 
HETATM    2  C10 UNL     1       6.677  -1.231  -2.976  1.00  0.00     0.044 C 
HETATM    3  C11 UNL     1       5.497  -1.043  -2.057  1.00  0.00     0.013 C 
HETATM    4  C12 UNL     1       6.560  -1.073  -0.926  1.00  0.00     0.054 C 
ENDROOT
BRANCH   1   5
HETATM    5  O3  UNL     1       6.913   0.943  -2.133  1.00  0.00    -0.208 OA
BRANCH   5   6
HETATM    6  N1  UNL     1       7.449   1.836  -2.994  1.00  0.00     0.005 N 
HETATM    7  O1  UNL     1       7.763   2.989  -2.539  1.00  0.00    -0.511 OA
HETATM    8  O2  UNL     1       7.703   1.661  -4.324  1.00  0.00    -0.511 OA
ENDBRANCH   5   6
ENDBRANCH   1   5
BRANCH   1   9
HETATM    9  C2  UNL     1       8.881  -0.523  -2.074  1.00  0.00     0.314 C 
BRANCH   9  10
HETATM   10  N2  UNL     1       9.804  -0.366  -1.027  1.00  0.00     0.099 N 
HETATM   11  C3  UNL     1      10.955  -1.161  -0.931  1.00  0.00     0.276 C 
HETATM   12  C4  UNL     1      11.911  -0.410   0.016  1.00  0.00     0.070 C 
HETATM   13  C5  UNL     1      11.647   1.024  -0.400  1.00  0.00     0.090 C 
HETATM   14  C6  UNL     1      11.791   2.008   0.716  1.00  0.00     0.040 C 
HETATM   15  C9  UNL     1      10.195   1.016  -0.823  1.00  0.00     0.257 C 
HETATM   16  C7  UNL     1      10.403   2.497   1.076  1.00  0.00     0.005 C 
HETATM   17  C8  UNL     1       9.459   1.529   0.395  1.00  0.00     0.039 C 
BRANCH  13  18
HETATM   18  O4  UNL     1      12.506   1.388  -1.431  1.00  0.00    -0.388 OA
ATOM     19  H4  UNL     1      13.319   0.901  -1.366  1.00  0.00     0.210 HD
ENDBRANCH  13  18
ENDBRANCH   9  10
ENDBRANCH   1   9
BRANCH   4  20
HETATM   20  C13 UNL     1       6.700  -2.480  -0.495  1.00  0.00     0.125 C 
BRANCH  20  21
HETATM   21  O5  UNL     1       5.575  -2.660   0.424  1.00  0.00    -0.395 OA
ATOM     22  H5  UNL     1       5.543  -3.601   0.546  1.00  0.00     0.210 HD
ENDBRANCH  20  21
BRANCH  20  23
HETATM   23  C14 UNL     1       7.912  -2.857   0.307  1.00  0.00     0.034 C 
BRANCH  23  24
HETATM   24  C15 UNL     1       8.790  -3.916  -0.235  1.00  0.00     0.028 C 
BRANCH  24  25
HETATM   25  C16 UNL     1       8.614  -4.324  -1.656  1.00  0.00     0.164 C 
BRANCH  25  26
HETATM   26  O6  UNL     1       9.776  -4.097  -2.402  1.00  0.00    -0.401 OA
ATOM     27  H6  UNL     1      10.026  -3.181  -2.387  1.00  0.00     0.209 HD
ENDBRANCH  25  26
ENDBRANCH  24  25
ENDBRANCH  23  24
ENDBRANCH  20  23
ENDBRANCH   4  20
TORSDOF 11
ENDMDL
MODEL 4
REMARK VINA RESULT: -6.502349516      2.961      5.609
REMARK  11 active torsions:
REMARK  status: ('A' for Active; 'I' for Inactive)
REMARK    1  A    between atoms: N1_2  and  O3_4 
REMARK    2  A    between atoms: O3_4  and  C1_5 
REMARK    3  A    between atoms: C1_5  and  C2_6 
REMARK    4  A    between atoms: C2_6  and  N2_7 
REMARK    5  A    between atoms: C5_10  and  O4_11 
REMARK    6  A    between atoms: C12_19  and  C13_20 
REMARK    7  A    between atoms: C13_20  and  O5_21 
REMARK    8  A    between atoms: C13_20  and  C14_23 
REMARK    9  A    between atoms: C14_23  and  C15_24 
REMARK   10  A    between atoms: C15_24  and  C16_25 
REMARK   11  A    between atoms: C16_25  and  O6_26 
ROOT
HETATM    1  C1  UNL     1       7.742  -3.419  -0.468  1.00  0.00     0.127 C 
HETATM    2  C10 UNL     1       7.519  -2.505   0.858  1.00  0.00     0.044 C 
HETATM    3  C11 UNL     1       6.066  -2.804   0.590  1.00  0.00     0.013 C 
HETATM    4  C12 UNL     1       6.496  -2.815  -0.901  1.00  0.00     0.054 C 
ENDROOT
BRANCH   1   5
HETATM    5  O3  UNL     1       7.492  -4.723   0.104  1.00  0.00    -0.208 OA
BRANCH   5   6
HETATM    6  N1  UNL     1       8.049  -5.885  -0.305  1.00  0.00     0.005 N 
HETATM    7  O1  UNL     1       8.459  -6.698   0.594  1.00  0.00    -0.511 OA
HETATM    8  O2  UNL     1       8.236  -6.312  -1.587  1.00  0.00    -0.511 OA
ENDBRANCH   5   6
ENDBRANCH   1   5
BRANCH   1   9
HETATM    9  C2  UNL     1       9.116  -3.191  -0.917  1.00  0.00     0.314 C 
BRANCH   9  10
HETATM   10  N2  UNL     1       9.936  -2.255  -0.266  1.00  0.00     0.099 N 
HETATM   11  C3  UNL     1      10.993  -2.650   0.567  1.00  0.00     0.276 C 
HETATM   12  C4  UNL     1      11.910  -1.419   0.700  1.00  0.00     0.070 C 
HETATM   13  C5  UNL     1      11.823  -0.853  -0.704  1.00  0.00     0.090 C 
HETATM   14  C6  UNL     1      11.941   0.637  -0.758  1.00  0.00     0.040 C 
HETATM   15  C9  UNL     1      10.429  -1.221  -1.157  1.00  0.00     0.257 C 
HETATM   16  C7  UNL     1      10.574   1.190  -1.103  1.00  0.00     0.005 C 
HETATM   17  C8  UNL     1       9.621   0.031  -0.903  1.00  0.00     0.039 C 
BRANCH  13  18
HETATM   18  O4  UNL     1      12.815  -1.408  -1.505  1.00  0.00    -0.388 OA
ATOM     19  H4  UNL     1      13.131  -2.216  -1.120  1.00  0.00     0.210 HD
ENDBRANCH  13  18
ENDBRANCH   9  10
ENDBRANCH   1   9
BRANCH   4  20
HETATM   20  C13 UNL     1       6.330  -1.439  -1.414  1.00  0.00     0.125 C 
BRANCH  20  21
HETATM   21  O5  UNL     1       4.879  -1.247  -1.388  1.00  0.00    -0.395 OA
ATOM     22  H5  UNL     1       4.738  -0.776  -0.575  1.00  0.00     0.210 HD
ENDBRANCH  20  21
BRANCH  20  23
HETATM   23  C14 UNL     1       6.728  -1.160  -2.835  1.00  0.00     0.034 C 
BRANCH  23  24
HETATM   24  C15 UNL     1       5.650  -1.058  -3.841  1.00  0.00     0.028 C 
BRANCH  24  25
HETATM   25  C16 UNL     1       5.860  -1.691  -5.173  1.00  0.00     0.164 C 
BRANCH  25  26
HETATM   26  O6  UNL     1       6.008  -0.731  -6.179  1.00  0.00    -0.401 OA
ATOM     27  H6  UNL     1       6.374  -1.109  -6.970  1.00  0.00     0.209 HD
ENDBRANCH  25  26
ENDBRANCH  24  25
ENDBRANCH  23  24
ENDBRANCH  20  23
ENDBRANCH   4  20
TORSDOF 11
ENDMDL
MODEL 5
REMARK VINA RESULT: -6.444782018      1.537      1.826
REMARK  11 active torsions:
REMARK  status: ('A' for Active; 'I' for Inactive)
REMARK    1  A    between atoms: N1_2  and  O3_4 
REMARK    2  A    between atoms: O3_4  and  C1_5 
REMARK    3  A    between atoms: C1_5  and  C2_6 
REMARK    4  A    between atoms: C2_6  and  N2_7 
REMARK    5  A    between atoms: C5_10  and  O4_11 
REMARK    6  A    between atoms: C12_19  and  C13_20 
REMARK    7  A    between atoms: C13_20  and  O5_21 
REMARK    8  A    between atoms: C13_20  and  C14_23 
REMARK    9  A    between atoms: C14_23  and  C15_24 
REMARK   10  A    between atoms: C15_24  and  C16_25 
REMARK   11  A    between atoms: C16_25  and  O6_26 
ROOT
HETATM    1  C1  UNL     1       8.254   0.912  -0.717  1.00  0.00     0.127 C 
HETATM    2  C10 UNL     1       9.640   0.262  -1.267  1.00  0.00     0.044 C 
HETATM    3  C11 UNL     1       9.640   1.482  -2.152  1.00  0.00     0.013 C 
HETATM    4  C12 UNL     1       8.095   1.345  -2.093  1.00  0.00     0.054 C 
ENDROOT
BRANCH   1   5
HETATM    5  O3  UNL     1       8.802   1.984   0.084  1.00  0.00    -0.208 OA
BRANCH   5   6
HETATM    6  N1  UNL     1       8.952   1.970   1.427  1.00  0.00     0.005 N 
HETATM    7  O1  UNL     1       9.997   1.406   1.904  1.00  0.00    -0.511 OA
HETATM    8  O2  UNL     1       8.109   2.492   2.364  1.00  0.00    -0.511 OA
ENDBRANCH   5   6
ENDBRANCH   1   5
BRANCH   1   9
HETATM    9  C2  UNL     1       7.562  -0.134   0.036  1.00  0.00     0.314 C 
BRANCH   9  10
HETATM   10  N2  UNL     1       8.205  -1.345   0.336  1.00  0.00     0.099 N 
HETATM   11  C3  UNL     1       8.470  -1.736   1.657  1.00  0.00     0.276 C 
HETATM   12  C4  UNL     1       8.729  -3.254   1.605  1.00  0.00     0.070 C 
HETATM   13  C5  UNL     1       7.714  -3.676   0.560  1.00  0.00     0.090 C 
HETATM   14  C6  UNL     1       8.149  -4.848  -0.259  1.00  0.00     0.040 C 
HETATM   15  C9  UNL     1       7.624  -2.479  -0.359  1.00  0.00     0.257 C 
HETATM   16  C7  UNL     1       8.468  -4.340  -1.650  1.00  0.00     0.005 C 
HETATM   17  C8  UNL     1       8.540  -2.834  -1.509  1.00  0.00     0.039 C 
BRANCH  13  18
HETATM   18  O4  UNL     1       6.502  -3.981   1.167  1.00  0.00    -0.388 OA
ATOM     19  H4  UNL     1       5.885  -3.270   1.042  1.00  0.00     0.210 HD
ENDBRANCH  13  18
ENDBRANCH   9  10
ENDBRANCH   1   9
BRANCH   4  20
HETATM   20  C13 UNL     1       7.688   0.494  -3.230  1.00  0.00     0.125 C 
BRANCH  20  21
HETATM   21  O5  UNL     1       7.854   1.378  -4.385  1.00  0.00    -0.395 OA
ATOM     22  H5  UNL     1       8.763   1.649  -4.321  1.00  0.00     0.210 HD
ENDBRANCH  20  21
BRANCH  20  23
HETATM   23  C14 UNL     1       6.258   0.040  -3.298  1.00  0.00     0.034 C 
BRANCH  23  24
HETATM   24  C15 UNL     1       5.999  -1.346  -3.742  1.00  0.00     0.028 C 
BRANCH  24  25
HETATM   25  C16 UNL     1       5.870  -1.609  -5.202  1.00  0.00     0.164 C 
BRANCH  25  26
HETATM   26  O6  UNL     1       5.971  -0.429  -5.947  1.00  0.00    -0.401 OA
ATOM     27  H6  UNL     1       6.771   0.042  -5.745  1.00  0.00     0.209 HD
ENDBRANCH  25  26
ENDBRANCH  24  25
ENDBRANCH  23  24
ENDBRANCH  20  23
ENDBRANCH   4  20
TORSDOF 11
ENDMDL
