MODEL 1
REMARK VINA RESULT: -4.004313609      0.000      0.000
REMARK  1 active torsions:
REMARK  status: ('A' for Active; 'I' for Inactive)
REMARK    1  A    between atoms: N2_3  and  C2_5 
ROOT
HETATM    1  N1  UNL     1      64.206  76.345  26.894  1.00  0.00    -0.172 NA
HETATM    2  C1  UNL     1      63.104  76.569  27.216  1.00  0.00     0.177 C 
HETATM    3  N2  UNL     1      61.785  76.835  27.595  1.00  0.00    -0.324 N 
ATOM      4  H2  UNL     1      61.499  77.802  27.748  1.00  0.00     0.172 HD
ENDROOT
BRANCH   3   5
HETATM    5  C2  UNL     1      60.804  75.771  27.777  1.00  0.00     0.092 A 
HETATM    6  C3  UNL     1      60.059  75.264  26.580  1.00  0.00     0.028 A 
HETATM    7  C4  UNL     1      61.092  74.396  27.315  1.00  0.00     0.028 A 
ENDBRANCH   3   5
TORSDOF 1
ENDMDL
MODEL 2
REMARK VINA RESULT: -3.404884597      2.648      3.700
REMARK  1 active torsions:
REMARK  status: ('A' for Active; 'I' for Inactive)
REMARK    1  A    between atoms: N2_3  and  C2_5 
ROOT
HETATM    1  N1  UNL     1      58.531  74.571  23.947  1.00  0.00    -0.172 NA
HETATM    2  C1  UNL     1      59.120  75.195  24.741  1.00  0.00     0.177 C 
HETATM    3  N2  UNL     1      59.819  75.942  25.695  1.00  0.00    -0.324 N 
ATOM      4  H2  UNL     1      60.142  76.878  25.450  1.00  0.00     0.172 HD
ENDROOT
BRANCH   3   5
HETATM    5  C2  UNL     1      60.100  75.422  27.028  1.00  0.00     0.092 A 
HETATM    6  C3  UNL     1      61.208  74.427  27.196  1.00  0.00     0.028 A 
HETATM    7  C4  UNL     1      61.310  75.852  27.763  1.00  0.00     0.028 A 
ENDBRANCH   3   5
TORSDOF 1
ENDMDL
MODEL 3
REMARK VINA RESULT: -3.308658981      1.057      1.432
REMARK  1 active torsions:
REMARK  status: ('A' for Active; 'I' for Inactive)
REMARK    1  A    between atoms: N2_3  and  C2_5 
ROOT
HETATM    1  N1  UNL     1      63.365  77.511  27.140  1.00  0.00    -0.172 NA
HETATM    2  C1  UNL     1      63.033  76.391  27.152  1.00  0.00     0.177 C 
HETATM    3  N2  UNL     1      62.636  75.050  27.172  1.00  0.00    -0.324 N 
ATOM      4  H2  UNL     1      63.343  74.322  27.068  1.00  0.00     0.172 HD
ENDROOT
BRANCH   3   5
HETATM    5  C2  UNL     1      61.239  74.661  27.338  1.00  0.00     0.092 A 
HETATM    6  C3  UNL     1      60.295  75.625  27.990  1.00  0.00     0.028 A 
HETATM    7  C4  UNL     1      60.184  75.271  26.499  1.00  0.00     0.028 A 
ENDBRANCH   3   5
TORSDOF 1
ENDMDL
MODEL 4
REMARK VINA RESULT: -3.200277886      1.979      3.339
REMARK  1 active torsions:
REMARK  status: ('A' for Active; 'I' for Inactive)
REMARK    1  A    between atoms: N2_3  and  C2_5 
ROOT
HETATM    1  N1  UNL     1      59.128  75.661  25.089  1.00  0.00    -0.172 NA
HETATM    2  C1  UNL     1      59.865  75.274  25.909  1.00  0.00     0.177 C 
HETATM    3  N2  UNL     1      60.753  74.812  26.886  1.00  0.00    -0.324 N 
ATOM      4  H2  UNL     1      60.892  73.807  26.994  1.00  0.00     0.172 HD
ENDROOT
BRANCH   3   5
HETATM    5  C2  UNL     1      61.486  75.725  27.757  1.00  0.00     0.092 A 
HETATM    6  C3  UNL     1      62.944  75.955  27.496  1.00  0.00     0.028 A 
HETATM    7  C4  UNL     1      61.899  77.059  27.270  1.00  0.00     0.028 A 
ENDBRANCH   3   5
TORSDOF 1
ENDMDL
MODEL 5
REMARK VINA RESULT: -2.755563869      1.037      1.487
REMARK  1 active torsions:
REMARK  status: ('A' for Active; 'I' for Inactive)
REMARK    1  A    between atoms: N2_3  and  C2_5 
ROOT
HETATM    1  N1  UNL     1      63.661  75.843  27.477  1.00  0.00    -0.172 NA
HETATM    2  C1  UNL     1      62.516  76.005  27.307  1.00  0.00     0.177 C 
HETATM    3  N2  UNL     1      61.147  76.199  27.096  1.00  0.00    -0.324 N 
ATOM      4  H2  UNL     1      60.741  77.114  27.295  1.00  0.00     0.172 HD
ENDROOT
BRANCH   3   5
HETATM    5  C2  UNL     1      60.283  75.133  26.602  1.00  0.00     0.092 A 
HETATM    6  C3  UNL     1      58.803  75.361  26.570  1.00  0.00     0.028 A 
HETATM    7  C4  UNL     1      59.630  75.246  25.280  1.00  0.00     0.028 A 
ENDBRANCH   3   5
TORSDOF 1
ENDMDL
