MODEL 1
REMARK VINA RESULT: -8.427268930      0.000      0.000
REMARK  17 active torsions:
REMARK  status: ('A' for Active; 'I' for Inactive)
REMARK    1  A    between atoms: C3_3  and  C4_4 
REMARK    2  A    between atoms: C5_5  and  N1_6 
REMARK    3  A    between atoms: C5_5  and  C17_19 
REMARK    4  A    between atoms: N1_6  and  C6_8 
REMARK    5  A    between atoms: C6_8  and  C7_9 
REMARK    6  A    between atoms: C17_19  and  N2_20 
REMARK    7  A    between atoms: C17_19  and  O4_41 
REMARK    8  A    between atoms: N2_20  and  C18_23 
REMARK    9  A    between atoms: C18_23  and  C20_26 
REMARK       I    between atoms: C20_26  and  N4_28 
REMARK       I    between atoms: N5_31  and  C23_32 
REMARK   10  A    between atoms: C23_32  and  O3_34 
REMARK   11  A    between atoms: O3_34  and  C24_35 
REMARK   12  A    between atoms: C24_35  and  C25_36 
REMARK   13  A    between atoms: C25_36  and  C26_37 
REMARK   14  A    between atoms: O4_41  and  C30_42 
REMARK   15  A    between atoms: C30_42  and  C31_43 
REMARK   16  A    between atoms: C31_43  and  O5_44 
REMARK   17  A    between atoms: O5_44  and  C32_45 
ROOT
HETATM    1  C1  UNL     1      21.321  34.998  16.551  1.00  0.00     0.112 C 
HETATM    2  C2  UNL     1      21.305  33.851  15.635  1.00  0.00    -0.106 C 
HETATM    3  C3  UNL     1      21.314  32.902  14.890  1.00  0.00    -0.077 C 
ENDROOT
BRANCH   3   4
HETATM    4  C4  UNL     1      21.350  31.769  14.014  1.00  0.00     0.093 C 
HETATM    5  C5  UNL     1      20.251  31.200  13.556  1.00  0.00     0.070 C 
BRANCH   5   6
HETATM    6  N1  UNL     1      19.002  31.746  13.956  1.00  0.00    -0.388 N 
ATOM      7  H1  UNL     1      18.604  32.512  13.413  1.00  0.00     0.159 HD
BRANCH   6   8
HETATM    8  C6  UNL     1      18.279  31.256  15.100  1.00  0.00     0.129 C 
BRANCH   8   9
HETATM    9  C7  UNL     1      17.556  32.398  15.748  1.00  0.00    -0.023 C 
HETATM   10  C8  UNL     1      17.665  33.580  14.807  1.00  0.00     0.015 C 
HETATM   11  C9  UNL     1      16.829  34.726  15.315  1.00  0.00    -0.013 C 
HETATM   12  C10 UNL     1      15.417  34.264  15.494  1.00  0.00     0.009 C 
HETATM   13  C14 UNL     1      17.470  35.174  16.624  1.00  0.00     0.009 C 
HETATM   14  C11 UNL     1      15.361  33.201  16.561  1.00  0.00    -0.013 C 
HETATM   15  C12 UNL     1      15.996  33.660  17.842  1.00  0.00     0.009 C 
HETATM   16  C16 UNL     1      16.153  32.003  16.055  1.00  0.00     0.015 C 
HETATM   17  C13 UNL     1      17.432  34.007  17.565  1.00  0.00    -0.013 C 
HETATM   18  C15 UNL     1      18.215  32.824  17.047  1.00  0.00     0.015 C 
ENDBRANCH   8   9
ENDBRANCH   6   8
ENDBRANCH   5   6
BRANCH   5  19
HETATM   19  C17 UNL     1      20.310  30.007  12.618  1.00  0.00     0.374 C 
BRANCH  19  20
HETATM   20  N2  UNL     1      18.950  29.734  12.128  1.00  0.00    -0.018 N 
ATOM     21  H22 UNL     1      18.235  30.163  12.715  1.00  0.00     0.282 HD
ATOM     22  H21 UNL     1      18.747  30.232  11.261  1.00  0.00     0.282 HD
BRANCH  20  23
HETATM   23  C18 UNL     1      18.756  28.301  11.993  1.00  0.00     0.385 C 
HETATM   24  C19 UNL     1      18.050  27.787  13.188  1.00  0.00     0.102 C 
HETATM   25  N3  UNL     1      17.499  27.408  14.112  1.00  0.00    -0.195 NA
BRANCH  23  26
HETATM   26  C20 UNL     1      17.962  27.938  10.809  1.00  0.00     0.265 C 
HETATM   27  O1  UNL     1      17.103  28.751  10.356  1.00  0.00    -0.270 OA
HETATM   28  N4  UNL     1      18.117  26.706  10.146  1.00  0.00    -0.346 N 
HETATM   29  C21 UNL     1      17.287  26.321   9.012  1.00  0.00     0.146 C 
HETATM   30  C29 UNL     1      19.134  25.773  10.540  1.00  0.00     0.146 C 
HETATM   31  C22 UNL     1      17.932  25.171   8.239  1.00  0.00     0.148 C 
HETATM   32  N5  UNL     1      19.348  25.364   8.157  1.00  0.00    -0.325 N 
HETATM   33  C23 UNL     1      20.060  25.368   6.908  1.00  0.00     0.362 C 
HETATM   34  C28 UNL     1      20.094  25.560   9.367  1.00  0.00     0.148 C 
HETATM   35  O2  UNL     1      19.431  25.179   5.821  1.00  0.00    -0.238 OA
BRANCH  33  36
HETATM   36  O3  UNL     1      21.420  25.574   6.836  1.00  0.00    -0.304 OA
BRANCH  36  37
HETATM   37  C24 UNL     1      22.400  24.617   6.579  1.00  0.00     0.180 C 
BRANCH  37  38
HETATM   38  C25 UNL     1      23.625  24.812   7.404  1.00  0.00     0.026 C 
BRANCH  38  39
HETATM   39  C26 UNL     1      24.815  24.064   6.823  1.00  0.00    -0.002 C 
HETATM   40  C27 UNL     1      24.759  24.083   5.315  1.00  0.00     0.005 C 
ENDBRANCH  38  39
ENDBRANCH  37  38
ENDBRANCH  36  37
ENDBRANCH  33  36
ENDBRANCH  23  26
ENDBRANCH  20  23
ENDBRANCH  19  20
BRANCH  19  41
HETATM   41  O4  UNL     1      20.975  29.072  13.092  1.00  0.00    -0.352 OA
BRANCH  41  42
HETATM   42  C30 UNL     1      21.654  28.130  13.516  1.00  0.00     0.197 C 
BRANCH  42  43
HETATM   43  C31 UNL     1      22.816  27.762  12.561  1.00  0.00     0.194 C 
BRANCH  43  44
HETATM   44  O5  UNL     1      22.328  27.468  11.291  1.00  0.00    -0.382 OA
BRANCH  44  45
HETATM   45  C32 UNL     1      23.259  26.713  10.635  1.00  0.00     0.147 C 
HETATM   46  C33 UNL     1      24.694  27.170  10.844  1.00  0.00     0.060 C 
HETATM   47  C34 UNL     1      25.416  25.865  10.481  1.00  0.00     0.170 C 
HETATM   48  O6  UNL     1      24.652  24.888  11.069  1.00  0.00    -0.389 OA
HETATM   49  C35 UNL     1      23.343  25.289  11.119  1.00  0.00     0.199 C 
ENDBRANCH  44  45
ENDBRANCH  43  44
ENDBRANCH  42  43
ENDBRANCH  41  42
ENDBRANCH  19  41
ENDBRANCH   5  19
ENDBRANCH   3   4
TORSDOF 17
ENDMDL
MODEL 2
REMARK VINA RESULT: -8.108074124      0.889      1.558
REMARK  17 active torsions:
REMARK  status: ('A' for Active; 'I' for Inactive)
REMARK    1  A    between atoms: C3_3  and  C4_4 
REMARK    2  A    between atoms: C5_5  and  N1_6 
REMARK    3  A    between atoms: C5_5  and  C17_19 
REMARK    4  A    between atoms: N1_6  and  C6_8 
REMARK    5  A    between atoms: C6_8  and  C7_9 
REMARK    6  A    between atoms: C17_19  and  N2_20 
REMARK    7  A    between atoms: C17_19  and  O4_41 
REMARK    8  A    between atoms: N2_20  and  C18_23 
REMARK    9  A    between atoms: C18_23  and  C20_26 
REMARK       I    between atoms: C20_26  and  N4_28 
REMARK       I    between atoms: N5_31  and  C23_32 
REMARK   10  A    between atoms: C23_32  and  O3_34 
REMARK   11  A    between atoms: O3_34  and  C24_35 
REMARK   12  A    between atoms: C24_35  and  C25_36 
REMARK   13  A    between atoms: C25_36  and  C26_37 
REMARK   14  A    between atoms: O4_41  and  C30_42 
REMARK   15  A    between atoms: C30_42  and  C31_43 
REMARK   16  A    between atoms: C31_43  and  O5_44 
REMARK   17  A    between atoms: O5_44  and  C32_45 
ROOT
HETATM    1  C1  UNL     1      22.457  32.956  17.390  1.00  0.00     0.112 C 
HETATM    2  C2  UNL     1      22.155  32.222  16.155  1.00  0.00    -0.106 C 
HETATM    3  C3  UNL     1      21.887  31.632  15.137  1.00  0.00    -0.077 C 
ENDROOT
BRANCH   3   4
HETATM    4  C4  UNL     1      21.544  30.947  13.927  1.00  0.00     0.093 C 
HETATM    5  C5  UNL     1      20.303  30.892  13.478  1.00  0.00     0.070 C 
BRANCH   5   6
HETATM    6  N1  UNL     1      19.293  31.541  14.235  1.00  0.00    -0.388 N 
ATOM      7  H1  UNL     1      19.022  31.145  15.135  1.00  0.00     0.159 HD
BRANCH   6   8
HETATM    8  C6  UNL     1      18.637  32.739  13.778  1.00  0.00     0.129 C 
BRANCH   8   9
HETATM    9  C7  UNL     1      17.940  33.387  14.935  1.00  0.00    -0.023 C 
HETATM   10  C8  UNL     1      17.131  32.308  15.625  1.00  0.00     0.015 C 
HETATM   11  C9  UNL     1      16.523  32.846  16.894  1.00  0.00    -0.013 C 
HETATM   12  C10 UNL     1      17.609  33.395  17.766  1.00  0.00     0.009 C 
HETATM   13  C14 UNL     1      15.519  33.911  16.467  1.00  0.00     0.009 C 
HETATM   14  C11 UNL     1      18.263  34.569  17.086  1.00  0.00    -0.013 C 
HETATM   15  C12 UNL     1      17.260  35.608  16.673  1.00  0.00     0.009 C 
HETATM   16  C16 UNL     1      18.937  34.049  15.823  1.00  0.00     0.015 C 
HETATM   17  C13 UNL     1      16.278  34.973  15.728  1.00  0.00    -0.013 C 
HETATM   18  C15 UNL     1      16.947  34.442  14.482  1.00  0.00     0.015 C 
ENDBRANCH   8   9
ENDBRANCH   6   8
ENDBRANCH   5   6
BRANCH   5  19
HETATM   19  C17 UNL     1      19.962  30.172  12.186  1.00  0.00     0.374 C 
BRANCH  19  20
HETATM   20  N2  UNL     1      18.575  29.686  12.277  1.00  0.00    -0.018 N 
ATOM     21  H22 UNL     1      18.115  29.996  13.133  1.00  0.00     0.282 HD
ATOM     22  H21 UNL     1      17.963  30.148  11.606  1.00  0.00     0.282 HD
BRANCH  20  23
HETATM   23  C18 UNL     1      18.551  28.241  12.137  1.00  0.00     0.385 C 
HETATM   24  C19 UNL     1      17.898  27.645  13.324  1.00  0.00     0.102 C 
HETATM   25  N3  UNL     1      17.385  27.201  14.241  1.00  0.00    -0.195 NA
BRANCH  23  26
HETATM   26  C20 UNL     1      17.817  27.793  10.944  1.00  0.00     0.265 C 
HETATM   27  O1  UNL     1      16.932  28.541  10.434  1.00  0.00    -0.270 OA
HETATM   28  N4  UNL     1      18.058  26.547  10.335  1.00  0.00    -0.346 N 
HETATM   29  C21 UNL     1      17.287  26.077   9.190  1.00  0.00     0.146 C 
HETATM   30  C29 UNL     1      19.110  25.686  10.795  1.00  0.00     0.146 C 
HETATM   31  C22 UNL     1      18.018  24.936   8.483  1.00  0.00     0.148 C 
HETATM   32  N5  UNL     1      19.423  25.202   8.437  1.00  0.00    -0.325 N 
HETATM   33  C23 UNL     1      20.175  25.198   7.211  1.00  0.00     0.362 C 
HETATM   34  C28 UNL     1      20.118  25.482   9.661  1.00  0.00     0.148 C 
HETATM   35  O2  UNL     1      19.592  24.936   6.114  1.00  0.00    -0.238 OA
BRANCH  33  36
HETATM   36  O3  UNL     1      21.523  25.475   7.174  1.00  0.00    -0.304 OA
BRANCH  36  37
HETATM   37  C24 UNL     1      22.561  24.563   6.986  1.00  0.00     0.180 C 
BRANCH  37  38
HETATM   38  C25 UNL     1      22.895  24.360   5.548  1.00  0.00     0.026 C 
BRANCH  38  39
HETATM   39  C26 UNL     1      24.398  24.302   5.326  1.00  0.00    -0.002 C 
HETATM   40  C27 UNL     1      25.075  23.648   6.506  1.00  0.00     0.005 C 
ENDBRANCH  38  39
ENDBRANCH  37  38
ENDBRANCH  36  37
ENDBRANCH  33  36
ENDBRANCH  23  26
ENDBRANCH  20  23
ENDBRANCH  19  20
BRANCH  19  41
HETATM   41  O4  UNL     1      20.853  29.378  11.844  1.00  0.00    -0.352 OA
BRANCH  41  42
HETATM   42  C30 UNL     1      21.718  28.585  11.455  1.00  0.00     0.197 C 
BRANCH  42  43
HETATM   43  C31 UNL     1      22.138  27.581  12.557  1.00  0.00     0.194 C 
BRANCH  43  44
HETATM   44  O5  UNL     1      23.480  27.241  12.419  1.00  0.00    -0.382 OA
BRANCH  44  45
HETATM   45  C32 UNL     1      23.677  26.766  11.152  1.00  0.00     0.147 C 
HETATM   46  C33 UNL     1      25.094  26.947  10.630  1.00  0.00     0.060 C 
HETATM   47  C34 UNL     1      25.084  25.872   9.534  1.00  0.00     0.170 C 
HETATM   48  O6  UNL     1      24.431  24.814  10.113  1.00  0.00    -0.389 OA
HETATM   49  C35 UNL     1      23.519  25.274  11.027  1.00  0.00     0.199 C 
ENDBRANCH  44  45
ENDBRANCH  43  44
ENDBRANCH  42  43
ENDBRANCH  41  42
ENDBRANCH  19  41
ENDBRANCH   5  19
ENDBRANCH   3   4
TORSDOF 17
ENDMDL
MODEL 3
REMARK VINA RESULT: -8.098233919      6.196     11.892
REMARK  17 active torsions:
REMARK  status: ('A' for Active; 'I' for Inactive)
REMARK    1  A    between atoms: C3_3  and  C4_4 
REMARK    2  A    between atoms: C5_5  and  N1_6 
REMARK    3  A    between atoms: C5_5  and  C17_19 
REMARK    4  A    between atoms: N1_6  and  C6_8 
REMARK    5  A    between atoms: C6_8  and  C7_9 
REMARK    6  A    between atoms: C17_19  and  N2_20 
REMARK    7  A    between atoms: C17_19  and  O4_41 
REMARK    8  A    between atoms: N2_20  and  C18_23 
REMARK    9  A    between atoms: C18_23  and  C20_26 
REMARK       I    between atoms: C20_26  and  N4_28 
REMARK       I    between atoms: N5_31  and  C23_32 
REMARK   10  A    between atoms: C23_32  and  O3_34 
REMARK   11  A    between atoms: O3_34  and  C24_35 
REMARK   12  A    between atoms: C24_35  and  C25_36 
REMARK   13  A    between atoms: C25_36  and  C26_37 
REMARK   14  A    between atoms: O4_41  and  C30_42 
REMARK   15  A    between atoms: C30_42  and  C31_43 
REMARK   16  A    between atoms: C31_43  and  O5_44 
REMARK   17  A    between atoms: O5_44  and  C32_45 
ROOT
HETATM    1  C1  UNL     1      23.844  32.264  14.448  1.00  0.00     0.112 C 
HETATM    2  C2  UNL     1      22.712  32.769  15.235  1.00  0.00    -0.106 C 
HETATM    3  C3  UNL     1      21.797  33.198  15.895  1.00  0.00    -0.077 C 
ENDROOT
BRANCH   3   4
HETATM    4  C4  UNL     1      20.730  33.722  16.694  1.00  0.00     0.093 C 
HETATM    5  C5  UNL     1      19.490  33.800  16.246  1.00  0.00     0.070 C 
BRANCH   5   6
HETATM    6  N1  UNL     1      19.230  33.344  14.926  1.00  0.00    -0.388 N 
ATOM      7  H1  UNL     1      19.780  33.725  14.157  1.00  0.00     0.159 HD
BRANCH   6   8
HETATM    8  C6  UNL     1      18.217  32.363  14.637  1.00  0.00     0.129 C 
BRANCH   8   9
HETATM    9  C7  UNL     1      18.874  31.120  14.118  1.00  0.00    -0.023 C 
HETATM   10  C8  UNL     1      19.891  31.555  13.084  1.00  0.00     0.015 C 
HETATM   11  C9  UNL     1      20.706  30.373  12.628  1.00  0.00    -0.013 C 
HETATM   12  C10 UNL     1      21.340  29.723  13.818  1.00  0.00     0.009 C 
HETATM   13  C14 UNL     1      19.741  29.446  11.898  1.00  0.00     0.009 C 
HETATM   14  C11 UNL     1      20.271  29.169  14.724  1.00  0.00    -0.013 C 
HETATM   15  C12 UNL     1      19.331  28.258  13.989  1.00  0.00     0.009 C 
HETATM   16  C16 UNL     1      19.460  30.346  15.249  1.00  0.00     0.015 C 
HETATM   17  C13 UNL     1      18.682  29.038  12.879  1.00  0.00    -0.013 C 
HETATM   18  C15 UNL     1      17.891  30.216  13.396  1.00  0.00     0.015 C 
ENDBRANCH   8   9
ENDBRANCH   6   8
ENDBRANCH   5   6
BRANCH   5  19
HETATM   19  C17 UNL     1      18.370  34.346  17.112  1.00  0.00     0.374 C 
BRANCH  19  20
HETATM   20  N2  UNL     1      17.582  35.295  16.309  1.00  0.00    -0.018 N 
ATOM     21  H22 UNL     1      17.971  36.238  16.337  1.00  0.00     0.282 HD
ATOM     22  H21 UNL     1      17.681  35.126  15.308  1.00  0.00     0.282 HD
BRANCH  20  23
HETATM   23  C18 UNL     1      16.194  35.264  16.735  1.00  0.00     0.385 C 
HETATM   24  C19 UNL     1      15.759  33.857  16.883  1.00  0.00     0.102 C 
HETATM   25  N3  UNL     1      15.442  32.768  17.000  1.00  0.00    -0.195 NA
BRANCH  23  26
HETATM   26  C20 UNL     1      15.974  35.942  18.021  1.00  0.00     0.265 C 
HETATM   27  O1  UNL     1      15.652  35.265  19.041  1.00  0.00    -0.270 OA
HETATM   28  N4  UNL     1      16.106  37.336  18.170  1.00  0.00    -0.346 N 
HETATM   29  C21 UNL     1      15.827  38.015  19.430  1.00  0.00     0.146 C 
HETATM   30  C29 UNL     1      16.561  38.160  17.086  1.00  0.00     0.146 C 
HETATM   31  C22 UNL     1      16.448  39.411  19.436  1.00  0.00     0.148 C 
HETATM   32  N5  UNL     1      17.740  39.380  18.822  1.00  0.00    -0.325 N 
HETATM   33  C23 UNL     1      18.924  39.867  19.477  1.00  0.00     0.362 C 
HETATM   34  C28 UNL     1      17.867  38.845  17.497  1.00  0.00     0.148 C 
HETATM   35  O2  UNL     1      18.842  40.363  20.643  1.00  0.00    -0.238 OA
BRANCH  33  36
HETATM   36  O3  UNL     1      20.167  39.815  18.886  1.00  0.00    -0.304 OA
BRANCH  36  37
HETATM   37  C24 UNL     1      21.035  40.883  18.664  1.00  0.00     0.180 C 
BRANCH  37  38
HETATM   38  C25 UNL     1      21.675  40.834  17.320  1.00  0.00     0.026 C 
BRANCH  38  39
HETATM   39  C26 UNL     1      20.639  40.840  16.207  1.00  0.00    -0.002 C 
HETATM   40  C27 UNL     1      21.006  39.829  15.148  1.00  0.00     0.005 C 
ENDBRANCH  38  39
ENDBRANCH  37  38
ENDBRANCH  36  37
ENDBRANCH  33  36
ENDBRANCH  23  26
ENDBRANCH  20  23
ENDBRANCH  19  20
BRANCH  19  41
HETATM   41  O4  UNL     1      18.775  34.701  18.231  1.00  0.00    -0.352 OA
BRANCH  41  42
HETATM   42  C30 UNL     1      19.204  35.009  19.348  1.00  0.00     0.197 C 
BRANCH  42  43
HETATM   43  C31 UNL     1      20.094  36.275  19.311  1.00  0.00     0.194 C 
BRANCH  43  44
HETATM   44  O5  UNL     1      21.306  36.037  19.955  1.00  0.00    -0.382 OA
BRANCH  44  45
HETATM   45  C32 UNL     1      22.319  36.286  19.072  1.00  0.00     0.147 C 
HETATM   46  C33 UNL     1      21.881  36.997  17.802  1.00  0.00     0.060 C 
HETATM   47  C34 UNL     1      23.236  37.577  17.372  1.00  0.00     0.170 C 
HETATM   48  O6  UNL     1      23.795  38.019  18.545  1.00  0.00    -0.389 OA
HETATM   49  C35 UNL     1      23.359  37.245  19.588  1.00  0.00     0.199 C 
ENDBRANCH  44  45
ENDBRANCH  43  44
ENDBRANCH  42  43
ENDBRANCH  41  42
ENDBRANCH  19  41
ENDBRANCH   5  19
ENDBRANCH   3   4
TORSDOF 17
ENDMDL
MODEL 4
REMARK VINA RESULT: -8.083186742      2.161      4.547
REMARK  17 active torsions:
REMARK  status: ('A' for Active; 'I' for Inactive)
REMARK    1  A    between atoms: C3_3  and  C4_4 
REMARK    2  A    between atoms: C5_5  and  N1_6 
REMARK    3  A    between atoms: C5_5  and  C17_19 
REMARK    4  A    between atoms: N1_6  and  C6_8 
REMARK    5  A    between atoms: C6_8  and  C7_9 
REMARK    6  A    between atoms: C17_19  and  N2_20 
REMARK    7  A    between atoms: C17_19  and  O4_41 
REMARK    8  A    between atoms: N2_20  and  C18_23 
REMARK    9  A    between atoms: C18_23  and  C20_26 
REMARK       I    between atoms: C20_26  and  N4_28 
REMARK       I    between atoms: N5_31  and  C23_32 
REMARK   10  A    between atoms: C23_32  and  O3_34 
REMARK   11  A    between atoms: O3_34  and  C24_35 
REMARK   12  A    between atoms: C24_35  and  C25_36 
REMARK   13  A    between atoms: C25_36  and  C26_37 
REMARK   14  A    between atoms: O4_41  and  C30_42 
REMARK   15  A    between atoms: C30_42  and  C31_43 
REMARK   16  A    between atoms: C31_43  and  O5_44 
REMARK   17  A    between atoms: O5_44  and  C32_45 
ROOT
HETATM    1  C1  UNL     1      23.214  32.650  15.619  1.00  0.00     0.112 C 
HETATM    2  C2  UNL     1      22.675  31.626  14.715  1.00  0.00    -0.106 C 
HETATM    3  C3  UNL     1      22.255  30.782  13.961  1.00  0.00    -0.077 C 
ENDROOT
BRANCH   3   4
HETATM    4  C4  UNL     1      21.781  29.779  13.055  1.00  0.00     0.093 C 
HETATM    5  C5  UNL     1      20.781  28.973  13.360  1.00  0.00     0.070 C 
BRANCH   5   6
HETATM    6  N1  UNL     1      20.169  29.124  14.632  1.00  0.00    -0.388 N 
ATOM      7  H1  UNL     1      20.757  29.111  15.465  1.00  0.00     0.159 HD
BRANCH   6   8
HETATM    8  C6  UNL     1      18.748  29.295  14.788  1.00  0.00     0.129 C 
BRANCH   8   9
HETATM    9  C7  UNL     1      18.462  30.726  15.129  1.00  0.00    -0.023 C 
HETATM   10  C8  UNL     1      19.443  31.127  16.212  1.00  0.00     0.015 C 
HETATM   11  C9  UNL     1      19.324  32.601  16.500  1.00  0.00    -0.013 C 
HETATM   12  C10 UNL     1      19.525  33.368  15.231  1.00  0.00     0.009 C 
HETATM   13  C14 UNL     1      17.937  32.808  17.097  1.00  0.00     0.009 C 
HETATM   14  C11 UNL     1      18.421  33.043  14.259  1.00  0.00    -0.013 C 
HETATM   15  C12 UNL     1      17.062  33.253  14.863  1.00  0.00     0.009 C 
HETATM   16  C16 UNL     1      18.545  31.568  13.902  1.00  0.00     0.015 C 
HETATM   17  C13 UNL     1      16.936  32.366  16.071  1.00  0.00    -0.013 C 
HETATM   18  C15 UNL     1      17.076  30.904  15.722  1.00  0.00     0.015 C 
ENDBRANCH   8   9
ENDBRANCH   6   8
ENDBRANCH   5   6
BRANCH   5  19
HETATM   19  C17 UNL     1      20.285  27.924  12.381  1.00  0.00     0.374 C 
BRANCH  19  20
HETATM   20  N2  UNL     1      21.421  27.489  11.551  1.00  0.00    -0.018 N 
ATOM     21  H22 UNL     1      21.206  27.527  10.555  1.00  0.00     0.282 HD
ATOM     22  H21 UNL     1      22.185  28.164  11.562  1.00  0.00     0.282 HD
BRANCH  20  23
HETATM   23  C18 UNL     1      21.854  26.167  11.967  1.00  0.00     0.385 C 
HETATM   24  C19 UNL     1      20.790  25.185  11.661  1.00  0.00     0.102 C 
HETATM   25  N3  UNL     1      19.964  24.439  11.411  1.00  0.00    -0.195 NA
BRANCH  23  26
HETATM   26  C20 UNL     1      23.084  25.727  11.291  1.00  0.00     0.265 C 
HETATM   27  O1  UNL     1      24.106  25.431  11.977  1.00  0.00    -0.270 OA
HETATM   28  N4  UNL     1      23.175  25.618   9.890  1.00  0.00    -0.346 N 
HETATM   29  C21 UNL     1      24.412  25.241   9.217  1.00  0.00     0.146 C 
HETATM   30  C29 UNL     1      22.033  25.842   9.051  1.00  0.00     0.146 C 
HETATM   31  C22 UNL     1      24.128  24.790   7.785  1.00  0.00     0.148 C 
HETATM   32  N5  UNL     1      22.932  24.006   7.742  1.00  0.00    -0.325 N 
HETATM   33  C23 UNL     1      22.889  22.685   7.175  1.00  0.00     0.362 C 
HETATM   34  C28 UNL     1      21.722  24.555   8.282  1.00  0.00     0.148 C 
HETATM   35  O2  UNL     1      23.939  22.178   6.673  1.00  0.00    -0.238 OA
BRANCH  33  36
HETATM   36  O3  UNL     1      21.737  21.930   7.156  1.00  0.00    -0.304 OA
BRANCH  36  37
HETATM   37  C24 UNL     1      20.972  21.597   6.039  1.00  0.00     0.180 C 
BRANCH  37  38
HETATM   38  C25 UNL     1      19.946  22.628   5.717  1.00  0.00     0.026 C 
BRANCH  38  39
HETATM   39  C26 UNL     1      20.340  23.447   4.498  1.00  0.00    -0.002 C 
HETATM   40  C27 UNL     1      20.335  24.919   4.834  1.00  0.00     0.005 C 
ENDBRANCH  38  39
ENDBRANCH  37  38
ENDBRANCH  36  37
ENDBRANCH  33  36
ENDBRANCH  23  26
ENDBRANCH  20  23
ENDBRANCH  19  20
BRANCH  19  41
HETATM   41  O4  UNL     1      19.232  28.268  11.821  1.00  0.00    -0.352 OA
BRANCH  41  42
HETATM   42  C30 UNL     1      18.167  28.629  11.309  1.00  0.00     0.197 C 
BRANCH  42  43
HETATM   43  C31 UNL     1      17.821  27.824  10.032  1.00  0.00     0.194 C 
BRANCH  43  44
HETATM   44  O5  UNL     1      18.984  27.415   9.386  1.00  0.00    -0.382 OA
BRANCH  44  45
HETATM   45  C32 UNL     1      18.648  26.489   8.438  1.00  0.00     0.147 C 
HETATM   46  C33 UNL     1      17.402  25.682   8.768  1.00  0.00     0.060 C 
HETATM   47  C34 UNL     1      17.037  25.215   7.351  1.00  0.00     0.170 C 
HETATM   48  O6  UNL     1      17.253  26.323   6.571  1.00  0.00    -0.389 OA
HETATM   49  C35 UNL     1      18.255  27.085   7.112  1.00  0.00     0.199 C 
ENDBRANCH  44  45
ENDBRANCH  43  44
ENDBRANCH  42  43
ENDBRANCH  41  42
ENDBRANCH  19  41
ENDBRANCH   5  19
ENDBRANCH   3   4
TORSDOF 17
ENDMDL
MODEL 5
REMARK VINA RESULT: -7.993939493      2.217      4.576
REMARK  17 active torsions:
REMARK  status: ('A' for Active; 'I' for Inactive)
REMARK    1  A    between atoms: C3_3  and  C4_4 
REMARK    2  A    between atoms: C5_5  and  N1_6 
REMARK    3  A    between atoms: C5_5  and  C17_19 
REMARK    4  A    between atoms: N1_6  and  C6_8 
REMARK    5  A    between atoms: C6_8  and  C7_9 
REMARK    6  A    between atoms: C17_19  and  N2_20 
REMARK    7  A    between atoms: C17_19  and  O4_41 
REMARK    8  A    between atoms: N2_20  and  C18_23 
REMARK    9  A    between atoms: C18_23  and  C20_26 
REMARK       I    between atoms: C20_26  and  N4_28 
REMARK       I    between atoms: N5_31  and  C23_32 
REMARK   10  A    between atoms: C23_32  and  O3_34 
REMARK   11  A    between atoms: O3_34  and  C24_35 
REMARK   12  A    between atoms: C24_35  and  C25_36 
REMARK   13  A    between atoms: C25_36  and  C26_37 
REMARK   14  A    between atoms: O4_41  and  C30_42 
REMARK   15  A    between atoms: C30_42  and  C31_43 
REMARK   16  A    between atoms: C31_43  and  O5_44 
REMARK   17  A    between atoms: O5_44  and  C32_45 
ROOT
HETATM    1  C1  UNL     1      22.761  32.492  15.533  1.00  0.00     0.112 C 
HETATM    2  C2  UNL     1      22.474  31.298  14.727  1.00  0.00    -0.106 C 
HETATM    3  C3  UNL     1      22.219  30.327  14.058  1.00  0.00    -0.077 C 
ENDROOT
BRANCH   3   4
HETATM    4  C4  UNL     1      21.890  29.186  13.256  1.00  0.00     0.093 C 
HETATM    5  C5  UNL     1      20.680  29.002  12.760  1.00  0.00     0.070 C 
BRANCH   5   6
HETATM    6  N1  UNL     1      19.689  29.979  13.042  1.00  0.00    -0.388 N 
ATOM      7  H1  UNL     1      19.707  30.859  12.529  1.00  0.00     0.159 HD
BRANCH   6   8
HETATM    8  C6  UNL     1      18.661  29.770  14.028  1.00  0.00     0.129 C 
BRANCH   8   9
HETATM    9  C7  UNL     1      18.392  31.064  14.736  1.00  0.00    -0.023 C 
HETATM   10  C8  UNL     1      19.002  32.164  13.892  1.00  0.00     0.015 C 
HETATM   11  C9  UNL     1      18.638  33.513  14.457  1.00  0.00    -0.013 C 
HETATM   12  C10 UNL     1      17.148  33.621  14.552  1.00  0.00     0.009 C 
HETATM   13  C14 UNL     1      19.321  33.603  15.818  1.00  0.00     0.009 C 
HETATM   14  C11 UNL     1      16.626  32.603  15.532  1.00  0.00    -0.013 C 
HETATM   15  C12 UNL     1      17.308  32.707  16.866  1.00  0.00     0.009 C 
HETATM   16  C16 UNL     1      16.928  31.223  14.964  1.00  0.00     0.015 C 
HETATM   17  C13 UNL     1      18.782  32.489  16.665  1.00  0.00    -0.013 C 
HETATM   18  C15 UNL     1      19.084  31.127  16.086  1.00  0.00     0.015 C 
ENDBRANCH   8   9
ENDBRANCH   6   8
ENDBRANCH   5   6
BRANCH   5  19
HETATM   19  C17 UNL     1      20.355  27.793  11.902  1.00  0.00     0.374 C 
BRANCH  19  20
HETATM   20  N2  UNL     1      21.587  27.361  11.221  1.00  0.00    -0.018 N 
ATOM     21  H22 UNL     1      21.485  27.362  10.206  1.00  0.00     0.282 HD
ATOM     22  H21 UNL     1      22.329  28.055  11.295  1.00  0.00     0.282 HD
BRANCH  20  23
HETATM   23  C18 UNL     1      21.998  26.064  11.727  1.00  0.00     0.385 C 
HETATM   24  C19 UNL     1      20.877  25.107  11.591  1.00  0.00     0.102 C 
HETATM   25  N3  UNL     1      20.007  24.379  11.471  1.00  0.00    -0.195 NA
BRANCH  23  26
HETATM   26  C20 UNL     1      23.156  25.509  11.010  1.00  0.00     0.265 C 
HETATM   27  O1  UNL     1      24.182  25.147  11.658  1.00  0.00    -0.270 OA
HETATM   28  N4  UNL     1      23.174  25.359   9.610  1.00  0.00    -0.346 N 
HETATM   29  C21 UNL     1      24.344  24.868   8.894  1.00  0.00     0.146 C 
HETATM   30  C29 UNL     1      22.015  25.656   8.816  1.00  0.00     0.146 C 
HETATM   31  C22 UNL     1      23.959  24.406   7.489  1.00  0.00     0.148 C 
HETATM   32  N5  UNL     1      22.703  23.722   7.520  1.00  0.00    -0.325 N 
HETATM   33  C23 UNL     1      22.528  22.396   6.992  1.00  0.00     0.362 C 
HETATM   34  C28 UNL     1      21.567  24.381   8.097  1.00  0.00     0.148 C 
HETATM   35  O2  UNL     1      23.510  21.793   6.459  1.00  0.00    -0.238 OA
BRANCH  33  36
HETATM   36  O3  UNL     1      21.320  21.737   7.045  1.00  0.00    -0.304 OA
BRANCH  36  37
HETATM   37  C24 UNL     1      20.471  21.457   5.974  1.00  0.00     0.180 C 
BRANCH  37  38
HETATM   38  C25 UNL     1      19.580  22.601   5.633  1.00  0.00     0.026 C 
BRANCH  38  39
HETATM   39  C26 UNL     1      19.995  23.263   4.329  1.00  0.00    -0.002 C 
HETATM   40  C27 UNL     1      20.488  24.666   4.589  1.00  0.00     0.005 C 
ENDBRANCH  38  39
ENDBRANCH  37  38
ENDBRANCH  36  37
ENDBRANCH  33  36
ENDBRANCH  23  26
ENDBRANCH  20  23
ENDBRANCH  19  20
BRANCH  19  41
HETATM   41  O4  UNL     1      19.325  27.960  11.229  1.00  0.00    -0.352 OA
BRANCH  41  42
HETATM   42  C30 UNL     1      18.273  28.106  10.597  1.00  0.00     0.197 C 
BRANCH  42  43
HETATM   43  C31 UNL     1      18.129  27.083   9.444  1.00  0.00     0.194 C 
BRANCH  43  44
HETATM   44  O5  UNL     1      19.028  27.373   8.422  1.00  0.00    -0.382 OA
BRANCH  44  45
HETATM   45  C32 UNL     1      18.709  26.607   7.336  1.00  0.00     0.147 C 
HETATM   46  C33 UNL     1      17.543  25.658   7.562  1.00  0.00     0.060 C 
HETATM   47  C34 UNL     1      17.137  25.423   6.100  1.00  0.00     0.170 C 
HETATM   48  O6  UNL     1      17.231  26.667   5.526  1.00  0.00    -0.389 OA
HETATM   49  C35 UNL     1      18.204  27.397   6.157  1.00  0.00     0.199 C 
ENDBRANCH  44  45
ENDBRANCH  43  44
ENDBRANCH  42  43
ENDBRANCH  41  42
ENDBRANCH  19  41
ENDBRANCH   5  19
ENDBRANCH   3   4
TORSDOF 17
ENDMDL
