MODEL 1
REMARK VINA RESULT: -7.552715491      0.000      0.000
REMARK  2 active torsions:
REMARK  status: ('A' for Active; 'I' for Inactive)
REMARK    1  A    between atoms: C5_5  and  N1_6 
REMARK    2  A    between atoms: C7_10  and  C8_11 
ROOT
HETATM    1  C1  UNL     1      73.150  35.636  73.112  1.00  0.00     0.068 C 
HETATM    2  C2  UNL     1      73.891  36.583  72.206  1.00  0.00     0.008 A 
HETATM    3  C3  UNL     1      74.910  37.432  72.571  1.00  0.00     0.042 A 
HETATM    4  C4  UNL     1      75.347  38.149  71.465  1.00  0.00     0.037 A 
HETATM    5  C5  UNL     1      76.334  39.116  71.315  1.00  0.00     0.053 A 
HETATM    6  C6  UNL     1      76.578  39.701  70.056  1.00  0.00     0.033 A 
HETATM    7  C7  UNL     1      77.500  40.663  69.696  1.00  0.00    -0.027 A 
HETATM    8  C11 UNL     1      77.521  41.040  68.405  1.00  0.00    -0.012 A 
HETATM    9  C12 UNL     1      78.372  42.003  67.613  1.00  0.00     0.057 C 
HETATM   10  S1  UNL     1      76.277  40.085  67.676  1.00  0.00    -0.076 SA
HETATM   11  C13 UNL     1      75.776  39.232  69.063  1.00  0.00     0.091 A 
HETATM   12  N2  UNL     1      74.807  38.273  69.236  1.00  0.00    -0.330 N 
HETATM   13  C14 UNL     1      74.053  37.893  68.084  1.00  0.00     0.158 C 
HETATM   14  C15 UNL     1      74.569  37.714  70.427  1.00  0.00     0.121 A 
HETATM   15  N3  UNL     1      73.709  36.781  70.893  1.00  0.00    -0.345 N 
ATOM     16  H3  UNL     1      73.016  36.294  70.323  1.00  0.00     0.167 HD
ENDROOT
BRANCH   5  17
HETATM   17  N1  UNL     1      76.981  39.421  72.370  1.00  0.00    -0.398 N 
ATOM     18  H12 UNL     1      76.656  40.106  73.051  1.00  0.00     0.156 HD
ATOM     19  H11 UNL     1      77.867  38.934  72.506  1.00  0.00     0.156 HD
ENDBRANCH   5  17
BRANCH   7  20
HETATM   20  C8  UNL     1      78.460  41.243  70.719  1.00  0.00     0.012 C 
HETATM   21  C9  UNL     1      78.575  42.739  70.666  1.00  0.00     0.015 C 
HETATM   22  C10 UNL     1      79.846  40.637  70.486  1.00  0.00     0.015 C 
ENDBRANCH   7  20
TORSDOF 2
ENDMDL
MODEL 2
REMARK VINA RESULT: -7.122537933      1.944      5.563
REMARK  2 active torsions:
REMARK  status: ('A' for Active; 'I' for Inactive)
REMARK    1  A    between atoms: C5_5  and  N1_6 
REMARK    2  A    between atoms: C7_10  and  C8_11 
ROOT
HETATM    1  C1  UNL     1      80.357  43.454  68.317  1.00  0.00     0.068 C 
HETATM    2  C2  UNL     1      79.326  42.400  68.618  1.00  0.00     0.008 A 
HETATM    3  C3  UNL     1      78.971  41.938  69.865  1.00  0.00     0.042 A 
HETATM    4  C4  UNL     1      77.986  40.967  69.747  1.00  0.00     0.037 A 
HETATM    5  C5  UNL     1      77.310  40.208  70.695  1.00  0.00     0.053 A 
HETATM    6  C6  UNL     1      76.338  39.268  70.300  1.00  0.00     0.033 A 
HETATM    7  C7  UNL     1      75.561  38.427  71.071  1.00  0.00    -0.027 A 
HETATM    8  C11 UNL     1      74.697  37.625  70.424  1.00  0.00    -0.012 A 
HETATM    9  C12 UNL     1      73.670  36.616  70.878  1.00  0.00     0.057 C 
HETATM   10  S1  UNL     1      74.943  38.012  68.757  1.00  0.00    -0.076 SA
HETATM   11  C13 UNL     1      76.151  39.197  68.955  1.00  0.00     0.091 A 
HETATM   12  N2  UNL     1      76.831  39.959  68.036  1.00  0.00    -0.330 N 
HETATM   13  C14 UNL     1      76.512  39.759  66.658  1.00  0.00     0.158 C 
HETATM   14  C15 UNL     1      77.756  40.853  68.403  1.00  0.00     0.121 A 
HETATM   15  N3  UNL     1      78.566  41.716  67.751  1.00  0.00    -0.345 N 
ATOM     16  H3  UNL     1      78.595  41.833  66.738  1.00  0.00     0.167 HD
ENDROOT
BRANCH   5  17
HETATM   17  N1  UNL     1      77.628  40.423  71.911  1.00  0.00    -0.398 N 
ATOM     18  H12 UNL     1      77.665  41.353  72.327  1.00  0.00     0.156 HD
ATOM     19  H11 UNL     1      77.853  39.598  72.466  1.00  0.00     0.156 HD
ENDBRANCH   5  17
BRANCH   7  20
HETATM   20  C8  UNL     1      75.671  38.436  72.586  1.00  0.00     0.012 C 
HETATM   21  C9  UNL     1      75.617  37.071  73.208  1.00  0.00     0.015 C 
HETATM   22  C10 UNL     1      74.526  39.278  73.152  1.00  0.00     0.015 C 
ENDBRANCH   7  20
TORSDOF 2
ENDMDL
MODEL 3
REMARK VINA RESULT: -6.610625404      1.645      3.208
REMARK  2 active torsions:
REMARK  status: ('A' for Active; 'I' for Inactive)
REMARK    1  A    between atoms: C5_5  and  N1_6 
REMARK    2  A    between atoms: C7_10  and  C8_11 
ROOT
HETATM    1  C1  UNL     1      73.321  35.725  72.796  1.00  0.00     0.068 C 
HETATM    2  C2  UNL     1      74.224  36.660  72.037  1.00  0.00     0.008 A 
HETATM    3  C3  UNL     1      73.994  37.180  70.784  1.00  0.00     0.042 A 
HETATM    4  C4  UNL     1      75.048  38.005  70.413  1.00  0.00     0.037 A 
HETATM    5  C5  UNL     1      75.286  38.748  69.263  1.00  0.00     0.053 A 
HETATM    6  C6  UNL     1      76.463  39.513  69.135  1.00  0.00     0.033 A 
HETATM    7  C7  UNL     1      76.885  40.312  68.093  1.00  0.00    -0.027 A 
HETATM    8  C11 UNL     1      78.064  40.941  68.240  1.00  0.00    -0.012 A 
HETATM    9  C12 UNL     1      78.846  41.907  67.383  1.00  0.00     0.057 C 
HETATM   10  S1  UNL     1      78.606  40.441  69.805  1.00  0.00    -0.076 SA
HETATM   11  C13 UNL     1      77.290  39.440  70.213  1.00  0.00     0.091 A 
HETATM   12  N2  UNL     1      77.032  38.698  71.340  1.00  0.00    -0.330 N 
HETATM   13  C14 UNL     1      78.008  38.733  72.382  1.00  0.00     0.158 C 
HETATM   14  C15 UNL     1      75.918  37.970  71.468  1.00  0.00     0.121 A 
HETATM   15  N3  UNL     1      75.406  37.161  72.424  1.00  0.00    -0.345 N 
ATOM     16  H3  UNL     1      75.856  36.961  73.317  1.00  0.00     0.167 HD
ENDROOT
BRANCH   5  17
HETATM   17  N1  UNL     1      74.386  38.686  68.363  1.00  0.00    -0.398 N 
ATOM     18  H12 UNL     1      73.533  39.245  68.380  1.00  0.00     0.156 HD
ATOM     19  H11 UNL     1      74.560  38.030  67.601  1.00  0.00     0.156 HD
ENDBRANCH   5  17
BRANCH   7  20
HETATM   20  C8  UNL     1      76.032  40.483  66.848  1.00  0.00     0.012 C 
HETATM   21  C9  UNL     1      76.824  40.584  65.577  1.00  0.00     0.015 C 
HETATM   22  C10 UNL     1      75.192  41.753  67.004  1.00  0.00     0.015 C 
ENDBRANCH   7  20
TORSDOF 2
ENDMDL
MODEL 4
REMARK VINA RESULT: -6.485659457      1.060      1.067
REMARK  2 active torsions:
REMARK  status: ('A' for Active; 'I' for Inactive)
REMARK    1  A    between atoms: C5_5  and  N1_6 
REMARK    2  A    between atoms: C7_10  and  C8_11 
ROOT
HETATM    1  C1  UNL     1      72.699  35.789  71.588  1.00  0.00     0.068 C 
HETATM    2  C2  UNL     1      73.703  36.751  71.012  1.00  0.00     0.008 A 
HETATM    3  C3  UNL     1      74.798  37.274  71.662  1.00  0.00     0.042 A 
HETATM    4  C4  UNL     1      75.492  38.123  70.810  1.00  0.00     0.037 A 
HETATM    5  C5  UNL     1      76.642  38.882  70.988  1.00  0.00     0.053 A 
HETATM    6  C6  UNL     1      77.145  39.679  69.940  1.00  0.00     0.033 A 
HETATM    7  C7  UNL     1      78.259  40.493  69.909  1.00  0.00    -0.027 A 
HETATM    8  C11 UNL     1      78.511  41.144  68.760  1.00  0.00    -0.012 A 
HETATM    9  C12 UNL     1      79.611  42.073  68.307  1.00  0.00     0.057 C 
HETATM   10  S1  UNL     1      77.226  40.648  67.714  1.00  0.00    -0.076 SA
HETATM   11  C13 UNL     1      76.410  39.618  68.798  1.00  0.00     0.091 A 
HETATM   12  N2  UNL     1      75.275  38.858  68.644  1.00  0.00    -0.330 N 
HETATM   13  C14 UNL     1      74.623  38.909  67.375  1.00  0.00     0.158 C 
HETATM   14  C15 UNL     1      74.792  38.101  69.634  1.00  0.00     0.121 A 
HETATM   15  N3  UNL     1      73.730  37.276  69.779  1.00  0.00    -0.345 N 
ATOM     16  H3  UNL     1      73.044  37.080  69.050  1.00  0.00     0.167 HD
ENDROOT
BRANCH   5  17
HETATM   17  N1  UNL     1      77.190  38.802  72.137  1.00  0.00    -0.398 N 
ATOM     18  H12 UNL     1      78.083  38.340  72.304  1.00  0.00     0.156 HD
ATOM     19  H11 UNL     1      76.678  39.235  72.906  1.00  0.00     0.156 HD
ENDBRANCH   5  17
BRANCH   7  20
HETATM   20  C8  UNL     1      79.164  40.622  71.122  1.00  0.00     0.012 C 
HETATM   21  C9  UNL     1      79.635  42.022  71.384  1.00  0.00     0.015 C 
HETATM   22  C10 UNL     1      80.386  39.724  70.914  1.00  0.00     0.015 C 
ENDBRANCH   7  20
TORSDOF 2
ENDMDL
MODEL 5
REMARK VINA RESULT: -6.373803301      0.848      1.207
REMARK  2 active torsions:
REMARK  status: ('A' for Active; 'I' for Inactive)
REMARK    1  A    between atoms: C5_5  and  N1_6 
REMARK    2  A    between atoms: C7_10  and  C8_11 
ROOT
HETATM    1  C1  UNL     1      73.344  35.949  72.652  1.00  0.00     0.068 C 
HETATM    2  C2  UNL     1      74.200  36.852  71.805  1.00  0.00     0.008 A 
HETATM    3  C3  UNL     1      75.402  37.415  72.170  1.00  0.00     0.042 A 
HETATM    4  C4  UNL     1      75.898  38.186  71.127  1.00  0.00     0.037 A 
HETATM    5  C5  UNL     1      77.055  38.946  71.002  1.00  0.00     0.053 A 
HETATM    6  C6  UNL     1      77.324  39.652  69.812  1.00  0.00     0.033 A 
HETATM    7  C7  UNL     1      78.400  40.451  69.486  1.00  0.00    -0.027 A 
HETATM    8  C11 UNL     1      78.404  41.005  68.261  1.00  0.00    -0.012 A 
HETATM    9  C12 UNL     1      79.380  41.885  67.517  1.00  0.00     0.057 C 
HETATM   10  S1  UNL     1      76.933  40.441  67.548  1.00  0.00    -0.076 SA
HETATM   11  C13 UNL     1      76.368  39.508  68.856  1.00  0.00     0.091 A 
HETATM   12  N2  UNL     1      75.231  38.750  69.002  1.00  0.00    -0.330 N 
HETATM   13  C14 UNL     1      74.329  38.706  67.896  1.00  0.00     0.158 C 
HETATM   14  C15 UNL     1      74.969  38.078  70.128  1.00  0.00     0.121 A 
HETATM   15  N3  UNL     1      73.966  37.278  70.556  1.00  0.00    -0.345 N 
ATOM     16  H3  UNL     1      73.145  37.031  70.003  1.00  0.00     0.167 HD
ENDROOT
BRANCH   5  17
HETATM   17  N1  UNL     1      77.829  38.953  72.014  1.00  0.00    -0.398 N 
ATOM     18  H12 UNL     1      78.004  38.133  72.595  1.00  0.00     0.156 HD
ATOM     19  H11 UNL     1      78.280  39.843  72.225  1.00  0.00     0.156 HD
ENDBRANCH   5  17
BRANCH   7  20
HETATM   20  C8  UNL     1      79.537  40.666  70.470  1.00  0.00     0.012 C 
HETATM   21  C9  UNL     1      80.123  39.395  71.011  1.00  0.00     0.015 C 
HETATM   22  C10 UNL     1      79.014  41.502  71.641  1.00  0.00     0.015 C 
ENDBRANCH   7  20
TORSDOF 2
ENDMDL
