MODEL 1
REMARK VINA RESULT: -9.258525624      0.000      0.000
REMARK  14 active torsions:
REMARK  status: ('A' for Active; 'I' for Inactive)
REMARK    1  A    between atoms: O1_2  and  C2_3 
REMARK    2  A    between atoms: C2_3  and  C3_5 
REMARK    3  A    between atoms: C4_7  and  C5_8 
REMARK    4  A    between atoms: C8_19  and  C9_20 
REMARK    5  A    between atoms: C9_20  and  O7_21 
REMARK    6  A    between atoms: C9_20  and  O8_23 
REMARK    7  A    between atoms: O8_23  and  C10_24 
REMARK    8  A    between atoms: C12_26  and  O9_27 
REMARK    9  A    between atoms: C15_32  and  N4_33 
REMARK       I    between atoms: N4_33  and  C16_35 
REMARK   10  A    between atoms: C16_35  and  C17_37 
REMARK   11  A    between atoms: C17_37  and  N5_39 
REMARK   12  A    between atoms: C17_37  and  C19_43 
REMARK   13  A    between atoms: C19_43  and  O12_44 
REMARK   14  A    between atoms: C22_49  and  O14_50 
ROOT
HETATM    1  C10 UNL     1      15.179   5.327  10.009  1.00  0.00     0.117 A 
HETATM    2  C11 UNL     1      15.384   3.981  10.195  1.00  0.00     0.078 A 
HETATM    3  C12 UNL     1      14.796   3.026   9.395  1.00  0.00     0.085 A 
HETATM    4  C13 UNL     1      13.968   3.429   8.364  1.00  0.00     0.086 A 
HETATM    5  C14 UNL     1      13.359   2.521   7.539  1.00  0.00     0.216 A 
HETATM    6  O10 UNL     1      13.515   1.292   7.670  1.00  0.00    -0.285 OA
HETATM    7  C15 UNL     1      12.523   2.979   6.502  1.00  0.00     0.109 A 
HETATM    8  C20 UNL     1      12.393   4.322   6.411  1.00  0.00     0.176 A 
HETATM    9  O13 UNL     1      12.998   5.185   7.230  1.00  0.00    -0.316 OA
HETATM   10  C21 UNL     1      13.767   4.771   8.183  1.00  0.00     0.128 A 
HETATM   11  C22 UNL     1      14.361   5.741   8.993  1.00  0.00     0.135 A 
ENDROOT
BRANCH   1  12
HETATM   12  O8  UNL     1      15.802   6.266  10.854  1.00  0.00    -0.284 OA
BRANCH  12  13
HETATM   13  C9  UNL     1      16.830   7.026  10.415  1.00  0.00     0.202 C 
BRANCH  13  14
HETATM   14  C8  UNL     1      18.254   6.868  10.413  1.00  0.00     0.130 A 
HETATM   15  C3  UNL     1      18.981   6.308   9.414  1.00  0.00     0.173 A 
HETATM   16  O3  UNL     1      20.327   6.232   9.562  1.00  0.00    -0.284 OA
HETATM   17  C4  UNL     1      20.994   6.648  10.579  1.00  0.00     0.185 A 
HETATM   18  N3  UNL     1      20.296   7.204  11.576  1.00  0.00    -0.301 N 
HETATM   19  C7  UNL     1      18.970   7.337  11.549  1.00  0.00     0.265 A 
ATOM     20  H3  UNL     1      20.802   7.542  12.395  1.00  0.00     0.171 HD
HETATM   21  O6  UNL     1      18.339   7.863  12.498  1.00  0.00    -0.267 OA
BRANCH  15  22
HETATM   22  C2  UNL     1      18.420   5.786   8.203  1.00  0.00     0.318 C 
HETATM   23  O2  UNL     1      17.530   6.255   7.522  1.00  0.00    -0.257 OA
BRANCH  22  24
HETATM   24  O1  UNL     1      18.949   4.571   7.710  1.00  0.00    -0.321 OA
HETATM   25  C1  UNL     1      18.122   3.428   7.549  1.00  0.00     0.213 C 
ENDBRANCH  22  24
ENDBRANCH  15  22
BRANCH  17  26
HETATM   26  C5  UNL     1      22.436   6.508  10.617  1.00  0.00     0.175 A 
HETATM   27  N1  UNL     1      23.268   6.210   9.611  1.00  0.00    -0.269 N 
HETATM   28  N2  UNL     1      24.514   6.188  10.114  1.00  0.00     0.030 NA
ATOM     29  H1  UNL     1      23.004   6.032   8.642  1.00  0.00     0.185 HD
HETATM   30  O4  UNL     1      24.461   6.463  11.379  1.00  0.00    -0.180 OA
HETATM   31  C6  UNL     1      23.216   6.666  11.736  1.00  0.00     0.335 A 
HETATM   32  O5  UNL     1      22.776   6.958  12.898  1.00  0.00    -0.256 OA
ENDBRANCH  17  26
ENDBRANCH  13  14
BRANCH  13  33
HETATM   33  O7  UNL     1      16.408   8.144   9.883  1.00  0.00    -0.340 OA
ATOM     34  H7  UNL     1      16.022   8.753  10.501  1.00  0.00     0.220 HD
ENDBRANCH  13  33
ENDBRANCH  12  13
ENDBRANCH   1  12
BRANCH  11  35
HETATM   35  O14 UNL     1      14.121   7.093   8.763  1.00  0.00    -0.356 OA
ATOM     36  H14 UNL     1      13.237   7.436   8.711  1.00  0.00     0.218 HD
ENDBRANCH  11  35
BRANCH   3  37
HETATM   37  O9  UNL     1      14.997   1.663   9.576  1.00  0.00    -0.360 OA
ATOM     38  H9  UNL     1      15.130   1.061   8.854  1.00  0.00     0.217 HD
ENDBRANCH   3  37
BRANCH   7  39
HETATM   39  N4  UNL     1      11.890   2.074   5.648  1.00  0.00    -0.320 N 
HETATM   40  C16 UNL     1      12.315   1.511   4.440  1.00  0.00     0.260 C 
HETATM   41  O11 UNL     1      13.420   1.761   3.907  1.00  0.00    -0.270 OA
ATOM     42  H4  UNL     1      10.965   1.774   5.955  1.00  0.00     0.169 HD
BRANCH  40  43
HETATM   43  C17 UNL     1      11.373   0.546   3.751  1.00  0.00     0.220 C 
HETATM   44  C18 UNL     1      11.519   0.653   2.253  1.00  0.00     0.059 C 
BRANCH  43  45
HETATM   45  N5  UNL     1      10.006   0.828   4.138  1.00  0.00    -0.060 N 
ATOM     46  H53 UNL     1       9.916   1.738   4.588  1.00  0.00     0.275 HD
ATOM     47  H52 UNL     1       9.408   1.001   3.330  1.00  0.00     0.275 HD
ATOM     48  H51 UNL     1       9.647   0.074   4.724  1.00  0.00     0.275 HD
ENDBRANCH  43  45
BRANCH  43  49
HETATM   49  C19 UNL     1      11.689  -0.875   4.178  1.00  0.00     0.212 C 
BRANCH  49  50
HETATM   50  O12 UNL     1      12.394  -0.780   5.376  1.00  0.00    -0.398 OA
ATOM     51  H12 UNL     1      12.617  -1.668   5.630  1.00  0.00     0.209 HD
ENDBRANCH  49  50
ENDBRANCH  43  49
ENDBRANCH  40  43
ENDBRANCH   7  39
TORSDOF 14
ENDMDL
MODEL 2
REMARK VINA RESULT: -9.124409825      4.335      5.849
REMARK  14 active torsions:
REMARK  status: ('A' for Active; 'I' for Inactive)
REMARK    1  A    between atoms: O1_2  and  C2_3 
REMARK    2  A    between atoms: C2_3  and  C3_5 
REMARK    3  A    between atoms: C4_7  and  C5_8 
REMARK    4  A    between atoms: C8_19  and  C9_20 
REMARK    5  A    between atoms: C9_20  and  O7_21 
REMARK    6  A    between atoms: C9_20  and  O8_23 
REMARK    7  A    between atoms: O8_23  and  C10_24 
REMARK    8  A    between atoms: C12_26  and  O9_27 
REMARK    9  A    between atoms: C15_32  and  N4_33 
REMARK       I    between atoms: N4_33  and  C16_35 
REMARK   10  A    between atoms: C16_35  and  C17_37 
REMARK   11  A    between atoms: C17_37  and  N5_39 
REMARK   12  A    between atoms: C17_37  and  C19_43 
REMARK   13  A    between atoms: C19_43  and  O12_44 
REMARK   14  A    between atoms: C22_49  and  O14_50 
ROOT
HETATM    1  C10 UNL     1      16.942  10.035  11.376  1.00  0.00     0.117 A 
HETATM    2  C11 UNL     1      17.370   9.974  10.071  1.00  0.00     0.078 A 
HETATM    3  C12 UNL     1      16.518   9.694   9.026  1.00  0.00     0.085 A 
HETATM    4  C13 UNL     1      15.181   9.465   9.290  1.00  0.00     0.086 A 
HETATM    5  C14 UNL     1      14.291   9.183   8.288  1.00  0.00     0.216 A 
HETATM    6  O10 UNL     1      14.633   9.118   7.092  1.00  0.00    -0.285 OA
HETATM    7  C15 UNL     1      12.937   8.957   8.605  1.00  0.00     0.109 A 
HETATM    8  C20 UNL     1      12.628   9.042   9.919  1.00  0.00     0.176 A 
HETATM    9  O13 UNL     1      13.516   9.318  10.877  1.00  0.00    -0.316 OA
HETATM   10  C21 UNL     1      14.759   9.527  10.591  1.00  0.00     0.128 A 
HETATM   11  C22 UNL     1      15.621   9.811  11.653  1.00  0.00     0.135 A 
ENDROOT
BRANCH   1  12
HETATM   12  O8  UNL     1      17.852  10.325  12.411  1.00  0.00    -0.284 OA
BRANCH  12  13
HETATM   13  C9  UNL     1      18.677   9.374  12.901  1.00  0.00     0.202 C 
BRANCH  13  14
HETATM   14  C8  UNL     1      19.825   8.689  12.383  1.00  0.00     0.130 A 
HETATM   15  C3  UNL     1      21.102   9.140  12.442  1.00  0.00     0.173 A 
HETATM   16  O3  UNL     1      22.082   8.372  11.905  1.00  0.00    -0.284 OA
HETATM   17  C4  UNL     1      21.912   7.232  11.333  1.00  0.00     0.185 A 
HETATM   18  N3  UNL     1      20.659   6.769  11.265  1.00  0.00    -0.301 N 
HETATM   19  C7  UNL     1      19.611   7.431  11.756  1.00  0.00     0.265 A 
ATOM     20  H3  UNL     1      20.498   5.867  10.816  1.00  0.00     0.171 HD
HETATM   21  O6  UNL     1      18.445   6.972  11.679  1.00  0.00    -0.267 OA
BRANCH  15  22
HETATM   22  C2  UNL     1      21.492  10.384  13.038  1.00  0.00     0.318 C 
HETATM   23  O2  UNL     1      21.485  10.691  14.214  1.00  0.00    -0.257 OA
BRANCH  22  24
HETATM   24  O1  UNL     1      21.946  11.407  12.174  1.00  0.00    -0.321 OA
HETATM   25  C1  UNL     1      21.405  12.718  12.247  1.00  0.00     0.213 C 
ENDBRANCH  22  24
ENDBRANCH  15  22
BRANCH  17  26
HETATM   26  C5  UNL     1      23.046   6.506  10.796  1.00  0.00     0.175 A 
HETATM   27  N1  UNL     1      23.350   6.273   9.513  1.00  0.00    -0.269 N 
HETATM   28  N2  UNL     1      24.490   5.561   9.495  1.00  0.00     0.030 NA
ATOM     29  H1  UNL     1      22.815   6.579   8.701  1.00  0.00     0.185 HD
HETATM   30  O4  UNL     1      24.880   5.360  10.714  1.00  0.00    -0.180 OA
HETATM   31  C6  UNL     1      24.033   5.917  11.546  1.00  0.00     0.335 A 
HETATM   32  O5  UNL     1      24.086   5.927  12.822  1.00  0.00    -0.256 OA
ENDBRANCH  17  26
ENDBRANCH  13  14
BRANCH  13  33
HETATM   33  O7  UNL     1      18.333   9.016  14.111  1.00  0.00    -0.340 OA
ATOM     34  H7  UNL     1      17.869   8.188  14.159  1.00  0.00     0.220 HD
ENDBRANCH  13  33
ENDBRANCH  12  13
ENDBRANCH   1  12
BRANCH  11  35
HETATM   35  O14 UNL     1      15.137   9.861  12.957  1.00  0.00    -0.356 OA
ATOM     36  H14 UNL     1      14.895  10.685  13.363  1.00  0.00     0.218 HD
ENDBRANCH  11  35
BRANCH   3  37
HETATM   37  O9  UNL     1      16.942   9.630   7.703  1.00  0.00    -0.360 OA
ATOM     38  H9  UNL     1      16.340   9.599   6.970  1.00  0.00     0.217 HD
ENDBRANCH   3  37
BRANCH   7  39
HETATM   39  N4  UNL     1      12.011   8.667   7.603  1.00  0.00    -0.320 N 
HETATM   40  C16 UNL     1      11.664   7.450   7.008  1.00  0.00     0.260 C 
HETATM   41  O11 UNL     1      12.181   6.352   7.316  1.00  0.00    -0.270 OA
ATOM     42  H4  UNL     1      11.503   9.476   7.244  1.00  0.00     0.169 HD
BRANCH  40  43
HETATM   43  C17 UNL     1      10.600   7.479   5.929  1.00  0.00     0.220 C 
HETATM   44  C18 UNL     1      11.043   6.667   4.737  1.00  0.00     0.059 C 
BRANCH  43  45
HETATM   45  N5  UNL     1      10.338   8.846   5.530  1.00  0.00    -0.060 N 
ATOM     46  H53 UNL     1      10.963   9.505   5.993  1.00  0.00     0.275 HD
ATOM     47  H52 UNL     1      10.621   9.023   4.566  1.00  0.00     0.275 HD
ATOM     48  H51 UNL     1       9.357   9.073   5.688  1.00  0.00     0.275 HD
ENDBRANCH  43  45
BRANCH  43  49
HETATM   49  C19 UNL     1       9.306   6.900   6.468  1.00  0.00     0.212 C 
BRANCH  49  50
HETATM   50  O12 UNL     1       9.232   7.276   7.808  1.00  0.00    -0.398 OA
ATOM     51  H12 UNL     1       8.441   7.793   7.901  1.00  0.00     0.209 HD
ENDBRANCH  49  50
ENDBRANCH  43  49
ENDBRANCH  40  43
ENDBRANCH   7  39
TORSDOF 14
ENDMDL
MODEL 3
REMARK VINA RESULT: -9.069230366      4.303      6.178
REMARK  14 active torsions:
REMARK  status: ('A' for Active; 'I' for Inactive)
REMARK    1  A    between atoms: O1_2  and  C2_3 
REMARK    2  A    between atoms: C2_3  and  C3_5 
REMARK    3  A    between atoms: C4_7  and  C5_8 
REMARK    4  A    between atoms: C8_19  and  C9_20 
REMARK    5  A    between atoms: C9_20  and  O7_21 
REMARK    6  A    between atoms: C9_20  and  O8_23 
REMARK    7  A    between atoms: O8_23  and  C10_24 
REMARK    8  A    between atoms: C12_26  and  O9_27 
REMARK    9  A    between atoms: C15_32  and  N4_33 
REMARK       I    between atoms: N4_33  and  C16_35 
REMARK   10  A    between atoms: C16_35  and  C17_37 
REMARK   11  A    between atoms: C17_37  and  N5_39 
REMARK   12  A    between atoms: C17_37  and  C19_43 
REMARK   13  A    between atoms: C19_43  and  O12_44 
REMARK   14  A    between atoms: C22_49  and  O14_50 
ROOT
HETATM    1  C10 UNL     1      16.244  10.390  12.683  1.00  0.00     0.117 A 
HETATM    2  C11 UNL     1      15.039   9.968  13.191  1.00  0.00     0.078 A 
HETATM    3  C12 UNL     1      13.998   9.562  12.385  1.00  0.00     0.085 A 
HETATM    4  C13 UNL     1      14.163   9.576  11.013  1.00  0.00     0.086 A 
HETATM    5  C14 UNL     1      13.161   9.183  10.167  1.00  0.00     0.216 A 
HETATM    6  O10 UNL     1      12.053   8.793  10.582  1.00  0.00    -0.285 OA
HETATM    7  C15 UNL     1      13.375   9.215   8.776  1.00  0.00     0.109 A 
HETATM    8  C20 UNL     1      14.596   9.647   8.386  1.00  0.00     0.176 A 
HETATM    9  O13 UNL     1      15.557  10.026   9.233  1.00  0.00    -0.316 OA
HETATM   10  C21 UNL     1      15.365   9.998  10.511  1.00  0.00     0.128 A 
HETATM   11  C22 UNL     1      16.422  10.410  11.326  1.00  0.00     0.135 A 
ENDROOT
BRANCH   1  12
HETATM   12  O8  UNL     1      17.279  10.796  13.547  1.00  0.00    -0.284 OA
BRANCH  12  13
HETATM   13  C9  UNL     1      18.232   9.927  13.951  1.00  0.00     0.202 C 
BRANCH  13  14
HETATM   14  C8  UNL     1      19.305   9.248  13.289  1.00  0.00     0.130 A 
HETATM   15  C3  UNL     1      20.444   9.830  12.839  1.00  0.00     0.173 A 
HETATM   16  O3  UNL     1      21.370   9.048  12.230  1.00  0.00    -0.284 OA
HETATM   17  C4  UNL     1      21.269   7.782  12.035  1.00  0.00     0.185 A 
HETATM   18  N3  UNL     1      20.153   7.188  12.471  1.00  0.00    -0.301 N 
HETATM   19  C7  UNL     1      19.171   7.847  13.085  1.00  0.00     0.265 A 
ATOM     20  H3  UNL     1      20.048   6.183  12.328  1.00  0.00     0.171 HD
HETATM   21  O6  UNL     1      18.133   7.265  13.485  1.00  0.00    -0.267 OA
BRANCH  15  22
HETATM   22  C2  UNL     1      20.740  11.227  12.963  1.00  0.00     0.318 C 
HETATM   23  O2  UNL     1      21.541  11.765  13.703  1.00  0.00    -0.257 OA
BRANCH  22  24
HETATM   24  O1  UNL     1      20.026  12.121  12.134  1.00  0.00    -0.321 OA
HETATM   25  C1  UNL     1      19.490  13.330  12.653  1.00  0.00     0.213 C 
ENDBRANCH  22  24
ENDBRANCH  15  22
BRANCH  17  26
HETATM   26  C5  UNL     1      22.333   7.056  11.369  1.00  0.00     0.175 A 
HETATM   27  N1  UNL     1      23.635   7.026  11.676  1.00  0.00    -0.269 N 
HETATM   28  N2  UNL     1      24.239   6.222  10.783  1.00  0.00     0.030 NA
ATOM     29  H1  UNL     1      24.087   7.521  12.444  1.00  0.00     0.185 HD
HETATM   30  O4  UNL     1      23.350   5.769   9.957  1.00  0.00    -0.180 OA
HETATM   31  C6  UNL     1      22.170   6.249  10.270  1.00  0.00     0.335 A 
HETATM   32  O5  UNL     1      21.057   6.027   9.684  1.00  0.00    -0.256 OA
ENDBRANCH  17  26
ENDBRANCH  13  14
BRANCH  13  33
HETATM   33  O7  UNL     1      18.129   9.662  15.228  1.00  0.00    -0.340 OA
ATOM     34  H7  UNL     1      18.956   9.649  15.695  1.00  0.00     0.220 HD
ENDBRANCH  13  33
ENDBRANCH  12  13
ENDBRANCH   1  12
BRANCH  11  35
HETATM   35  O14 UNL     1      17.623  10.830  10.760  1.00  0.00    -0.356 OA
ATOM     36  H14 UNL     1      17.639  11.396   9.998  1.00  0.00     0.218 HD
ENDBRANCH  11  35
BRANCH   3  37
HETATM   37  O9  UNL     1      12.776   9.134  12.891  1.00  0.00    -0.360 OA
ATOM     38  H9  UNL     1      12.220   8.511  12.438  1.00  0.00     0.217 HD
ENDBRANCH   3  37
BRANCH   7  39
HETATM   39  N4  UNL     1      12.370   8.819   7.892  1.00  0.00    -0.320 N 
HETATM   40  C16 UNL     1      12.074   7.564   7.351  1.00  0.00     0.260 C 
HETATM   41  O11 UNL     1      12.727   6.526   7.604  1.00  0.00    -0.270 OA
ATOM     42  H4  UNL     1      11.748   9.570   7.591  1.00  0.00     0.169 HD
BRANCH  40  43
HETATM   43  C17 UNL     1      10.893   7.472   6.407  1.00  0.00     0.220 C 
HETATM   44  C18 UNL     1      11.155   6.436   5.342  1.00  0.00     0.059 C 
BRANCH  43  45
HETATM   45  N5  UNL     1      10.648   8.761   5.795  1.00  0.00    -0.060 N 
ATOM     46  H53 UNL     1       9.826   8.748   5.191  1.00  0.00     0.275 HD
ATOM     47  H52 UNL     1      10.324   9.451   6.473  1.00  0.00     0.275 HD
ATOM     48  H51 UNL     1      11.481   9.076   5.298  1.00  0.00     0.275 HD
ENDBRANCH  43  45
BRANCH  43  49
HETATM   49  C19 UNL     1       9.647   7.083   7.179  1.00  0.00     0.212 C 
BRANCH  49  50
HETATM   50  O12 UNL     1       9.814   7.572   8.473  1.00  0.00    -0.398 OA
ATOM     51  H12 UNL     1       9.010   7.380   8.940  1.00  0.00     0.209 HD
ENDBRANCH  49  50
ENDBRANCH  43  49
ENDBRANCH  40  43
ENDBRANCH   7  39
TORSDOF 14
ENDMDL
MODEL 4
REMARK VINA RESULT: -9.060620454      3.915      5.283
REMARK  14 active torsions:
REMARK  status: ('A' for Active; 'I' for Inactive)
REMARK    1  A    between atoms: O1_2  and  C2_3 
REMARK    2  A    between atoms: C2_3  and  C3_5 
REMARK    3  A    between atoms: C4_7  and  C5_8 
REMARK    4  A    between atoms: C8_19  and  C9_20 
REMARK    5  A    between atoms: C9_20  and  O7_21 
REMARK    6  A    between atoms: C9_20  and  O8_23 
REMARK    7  A    between atoms: O8_23  and  C10_24 
REMARK    8  A    between atoms: C12_26  and  O9_27 
REMARK    9  A    between atoms: C15_32  and  N4_33 
REMARK       I    between atoms: N4_33  and  C16_35 
REMARK   10  A    between atoms: C16_35  and  C17_37 
REMARK   11  A    between atoms: C17_37  and  N5_39 
REMARK   12  A    between atoms: C17_37  and  C19_43 
REMARK   13  A    between atoms: C19_43  and  O12_44 
REMARK   14  A    between atoms: C22_49  and  O14_50 
ROOT
HETATM    1  C10 UNL     1      16.959  10.069  11.400  1.00  0.00     0.117 A 
HETATM    2  C11 UNL     1      17.392  10.001  10.097  1.00  0.00     0.078 A 
HETATM    3  C12 UNL     1      16.543   9.714   9.051  1.00  0.00     0.085 A 
HETATM    4  C13 UNL     1      15.206   9.484   9.312  1.00  0.00     0.086 A 
HETATM    5  C14 UNL     1      14.320   9.195   8.308  1.00  0.00     0.216 A 
HETATM    6  O10 UNL     1      14.666   9.123   7.114  1.00  0.00    -0.285 OA
HETATM    7  C15 UNL     1      12.966   8.969   8.622  1.00  0.00     0.109 A 
HETATM    8  C20 UNL     1      12.651   9.061   9.935  1.00  0.00     0.176 A 
HETATM    9  O13 UNL     1      13.536   9.345  10.894  1.00  0.00    -0.316 OA
HETATM   10  C21 UNL     1      14.779   9.553  10.611  1.00  0.00     0.128 A 
HETATM   11  C22 UNL     1      15.637   9.844  11.674  1.00  0.00     0.135 A 
ENDROOT
BRANCH   1  12
HETATM   12  O8  UNL     1      17.865  10.366  12.437  1.00  0.00    -0.284 OA
BRANCH  12  13
HETATM   13  C9  UNL     1      18.695   9.421  12.931  1.00  0.00     0.202 C 
BRANCH  13  14
HETATM   14  C8  UNL     1      19.761   8.643  12.373  1.00  0.00     0.130 A 
HETATM   15  C3  UNL     1      19.618   7.449  11.747  1.00  0.00     0.173 A 
HETATM   16  O3  UNL     1      20.729   6.834  11.270  1.00  0.00    -0.284 OA
HETATM   17  C4  UNL     1      21.930   7.285  11.356  1.00  0.00     0.185 A 
HETATM   18  N3  UNL     1      22.093   8.462  11.970  1.00  0.00    -0.301 N 
HETATM   19  C7  UNL     1      21.080   9.163  12.480  1.00  0.00     0.265 A 
ATOM     20  H3  UNL     1      23.037   8.842  12.052  1.00  0.00     0.171 HD
HETATM   21  O6  UNL     1      21.262  10.266  13.051  1.00  0.00    -0.267 OA
BRANCH  15  22
HETATM   22  C2  UNL     1      18.362   6.785  11.553  1.00  0.00     0.318 C 
HETATM   23  O2  UNL     1      17.539   6.471  12.389  1.00  0.00    -0.257 OA
BRANCH  22  24
HETATM   24  O1  UNL     1      18.008   6.435  10.230  1.00  0.00    -0.321 OA
HETATM   25  C1  UNL     1      16.676   6.065   9.905  1.00  0.00     0.213 C 
ENDBRANCH  22  24
ENDBRANCH  15  22
BRANCH  17  26
HETATM   26  C5  UNL     1      23.037   6.530  10.804  1.00  0.00     0.175 A 
HETATM   27  N1  UNL     1      23.298   6.259   9.519  1.00  0.00    -0.269 N 
HETATM   28  N2  UNL     1      24.428   5.531   9.485  1.00  0.00     0.030 NA
ATOM     29  H1  UNL     1      22.743   6.551   8.716  1.00  0.00     0.185 HD
HETATM   30  O4  UNL     1      24.853   5.357  10.696  1.00  0.00    -0.180 OA
HETATM   31  C6  UNL     1      24.039   5.946  11.539  1.00  0.00     0.335 A 
HETATM   32  O5  UNL     1      24.132   5.989  12.812  1.00  0.00    -0.256 OA
ENDBRANCH  17  26
ENDBRANCH  13  14
BRANCH  13  33
HETATM   33  O7  UNL     1      18.451   9.180  14.193  1.00  0.00    -0.340 OA
ATOM     34  H7  UNL     1      17.529   9.167  14.421  1.00  0.00     0.220 HD
ENDBRANCH  13  33
ENDBRANCH  12  13
ENDBRANCH   1  12
BRANCH  11  35
HETATM   35  O14 UNL     1      15.148   9.901  12.977  1.00  0.00    -0.356 OA
ATOM     36  H14 UNL     1      14.252   9.661  13.179  1.00  0.00     0.218 HD
ENDBRANCH  11  35
BRANCH   3  37
HETATM   37  O9  UNL     1      16.973   9.642   7.731  1.00  0.00    -0.360 OA
ATOM     38  H9  UNL     1      16.512   9.145   7.065  1.00  0.00     0.217 HD
ENDBRANCH   3  37
BRANCH   7  39
HETATM   39  N4  UNL     1      12.043   8.672   7.618  1.00  0.00    -0.320 N 
HETATM   40  C16 UNL     1      11.698   7.450   7.031  1.00  0.00     0.260 C 
HETATM   41  O11 UNL     1      12.213   6.355   7.350  1.00  0.00    -0.270 OA
ATOM     42  H4  UNL     1      11.537   9.478   7.252  1.00  0.00     0.169 HD
BRANCH  40  43
HETATM   43  C17 UNL     1      10.639   7.471   5.948  1.00  0.00     0.220 C 
HETATM   44  C18 UNL     1      11.089   6.657   4.760  1.00  0.00     0.059 C 
BRANCH  43  45
HETATM   45  N5  UNL     1      10.374   8.836   5.542  1.00  0.00    -0.060 N 
ATOM     46  H53 UNL     1      11.201   9.427   5.625  1.00  0.00     0.275 HD
ATOM     47  H52 UNL     1      10.234   8.915   4.535  1.00  0.00     0.275 HD
ATOM     48  H51 UNL     1       9.583   9.209   6.068  1.00  0.00     0.275 HD
ENDBRANCH  43  45
BRANCH  43  49
HETATM   49  C19 UNL     1       9.344   6.891   6.484  1.00  0.00     0.212 C 
BRANCH  49  50
HETATM   50  O12 UNL     1       9.221   7.341   7.797  1.00  0.00    -0.398 OA
ATOM     51  H12 UNL     1       8.291   7.420   7.970  1.00  0.00     0.209 HD
ENDBRANCH  49  50
ENDBRANCH  43  49
ENDBRANCH  40  43
ENDBRANCH   7  39
TORSDOF 14
ENDMDL
MODEL 5
REMARK VINA RESULT: -8.904894696      2.531     10.379
REMARK  14 active torsions:
REMARK  status: ('A' for Active; 'I' for Inactive)
REMARK    1  A    between atoms: O1_2  and  C2_3 
REMARK    2  A    between atoms: C2_3  and  C3_5 
REMARK    3  A    between atoms: C4_7  and  C5_8 
REMARK    4  A    between atoms: C8_19  and  C9_20 
REMARK    5  A    between atoms: C9_20  and  O7_21 
REMARK    6  A    between atoms: C9_20  and  O8_23 
REMARK    7  A    between atoms: O8_23  and  C10_24 
REMARK    8  A    between atoms: C12_26  and  O9_27 
REMARK    9  A    between atoms: C15_32  and  N4_33 
REMARK       I    between atoms: N4_33  and  C16_35 
REMARK   10  A    between atoms: C16_35  and  C17_37 
REMARK   11  A    between atoms: C17_37  and  N5_39 
REMARK   12  A    between atoms: C17_37  and  C19_43 
REMARK   13  A    between atoms: C19_43  and  O12_44 
REMARK   14  A    between atoms: C22_49  and  O14_50 
ROOT
HETATM    1  C10 UNL     1      14.349   7.645   6.615  1.00  0.00     0.117 A 
HETATM    2  C11 UNL     1      14.954   6.411   6.625  1.00  0.00     0.078 A 
HETATM    3  C12 UNL     1      16.096   6.152   7.350  1.00  0.00     0.085 A 
HETATM    4  C13 UNL     1      16.662   7.166   8.098  1.00  0.00     0.086 A 
HETATM    5  C14 UNL     1      17.797   6.963   8.837  1.00  0.00     0.216 A 
HETATM    6  O10 UNL     1      18.378   5.862   8.876  1.00  0.00    -0.285 OA
HETATM    7  C15 UNL     1      18.338   8.027   9.585  1.00  0.00     0.109 A 
HETATM    8  C20 UNL     1      17.662   9.196   9.503  1.00  0.00     0.176 A 
HETATM    9  O13 UNL     1      16.557   9.367   8.774  1.00  0.00    -0.316 OA
HETATM   10  C21 UNL     1      16.057   8.395   8.086  1.00  0.00     0.128 A 
HETATM   11  C22 UNL     1      14.898   8.660   7.352  1.00  0.00     0.135 A 
ENDROOT
BRANCH   1  12
HETATM   12  O8  UNL     1      13.182   7.861   5.858  1.00  0.00    -0.284 OA
BRANCH  12  13
HETATM   13  C9  UNL     1      12.132   7.014   5.936  1.00  0.00     0.202 C 
BRANCH  13  14
HETATM   14  C8  UNL     1      11.935   5.639   5.583  1.00  0.00     0.130 A 
HETATM   15  C3  UNL     1      11.809   5.162   4.320  1.00  0.00     0.173 A 
HETATM   16  O3  UNL     1      11.627   3.829   4.150  1.00  0.00    -0.284 OA
HETATM   17  C4  UNL     1      11.562   2.956   5.092  1.00  0.00     0.185 A 
HETATM   18  N3  UNL     1      11.684   3.405   6.345  1.00  0.00    -0.301 N 
HETATM   19  C7  UNL     1      11.866   4.692   6.642  1.00  0.00     0.265 A 
ATOM     20  H3  UNL     1      11.634   2.732   7.111  1.00  0.00     0.171 HD
HETATM   21  O6  UNL     1      11.978   5.087   7.829  1.00  0.00    -0.267 OA
BRANCH  15  22
HETATM   22  C2  UNL     1      11.855   5.977   3.142  1.00  0.00     0.318 C 
HETATM   23  O2  UNL     1      12.828   6.463   2.600  1.00  0.00    -0.257 OA
BRANCH  22  24
HETATM   24  O1  UNL     1      10.628   6.272   2.505  1.00  0.00    -0.321 OA
HETATM   25  C1  UNL     1      10.550   6.394   1.092  1.00  0.00     0.213 C 
ENDBRANCH  22  24
ENDBRANCH  15  22
BRANCH  17  26
HETATM   26  C5  UNL     1      11.363   1.555   4.778  1.00  0.00     0.175 A 
HETATM   27  N1  UNL     1      10.354   0.990   4.103  1.00  0.00    -0.269 N 
HETATM   28  N2  UNL     1      10.592  -0.332   4.058  1.00  0.00     0.030 NA
ATOM     29  H1  UNL     1       9.553   1.473   3.698  1.00  0.00     0.185 HD
HETATM   30  O4  UNL     1      11.703  -0.581   4.677  1.00  0.00    -0.180 OA
HETATM   31  C6  UNL     1      12.213   0.537   5.136  1.00  0.00     0.335 A 
HETATM   32  O5  UNL     1      13.296   0.688   5.796  1.00  0.00    -0.256 OA
ENDBRANCH  17  26
ENDBRANCH  13  14
BRANCH  13  33
HETATM   33  O7  UNL     1      11.079   7.599   6.446  1.00  0.00    -0.340 OA
ATOM     34  H7  UNL     1      11.082   7.659   7.394  1.00  0.00     0.220 HD
ENDBRANCH  13  33
ENDBRANCH  12  13
ENDBRANCH   1  12
BRANCH  11  35
HETATM   35  O14 UNL     1      14.325   9.928   7.377  1.00  0.00    -0.356 OA
ATOM     36  H14 UNL     1      14.763  10.675   6.986  1.00  0.00     0.218 HD
ENDBRANCH  11  35
BRANCH   3  37
HETATM   37  O9  UNL     1      16.714   4.907   7.364  1.00  0.00    -0.360 OA
ATOM     38  H9  UNL     1      17.421   4.690   7.959  1.00  0.00     0.217 HD
ENDBRANCH   3  37
BRANCH   7  39
HETATM   39  N4  UNL     1      19.494   7.846  10.346  1.00  0.00    -0.320 N 
HETATM   40  C16 UNL     1      19.857   8.371  11.590  1.00  0.00     0.260 C 
HETATM   41  O11 UNL     1      19.135   9.147  12.256  1.00  0.00    -0.270 OA
ATOM     42  H4  UNL     1      20.188   7.228   9.925  1.00  0.00     0.169 HD
BRANCH  40  43
HETATM   43  C17 UNL     1      21.207   7.968  12.150  1.00  0.00     0.220 C 
HETATM   44  C18 UNL     1      21.033   7.238  13.459  1.00  0.00     0.059 C 
BRANCH  43  45
HETATM   45  N5  UNL     1      22.032   9.142  12.342  1.00  0.00    -0.060 N 
ATOM     46  H53 UNL     1      21.579   9.834  12.939  1.00  0.00     0.275 HD
ATOM     47  H52 UNL     1      22.844   8.947  12.929  1.00  0.00     0.275 HD
ATOM     48  H51 UNL     1      22.299   9.533  11.439  1.00  0.00     0.275 HD
ENDBRANCH  43  45
BRANCH  43  49
HETATM   49  C19 UNL     1      21.920   7.060  11.167  1.00  0.00     0.212 C 
BRANCH  49  50
HETATM   50  O12 UNL     1      23.281   7.335  11.289  1.00  0.00    -0.398 OA
ATOM     51  H12 UNL     1      23.740   6.622  10.862  1.00  0.00     0.209 HD
ENDBRANCH  49  50
ENDBRANCH  43  49
ENDBRANCH  40  43
ENDBRANCH   7  39
TORSDOF 14
ENDMDL
