MODEL 1
REMARK VINA RESULT: -8.911931000      0.000      0.000
REMARK  14 active torsions:
REMARK  status: ('A' for Active; 'I' for Inactive)
REMARK    1  A    between atoms: C2_2  and  C3_3 
REMARK    2  A    between atoms: C3_3  and  C4_4 
REMARK    3  A    between atoms: C4_4  and  C5_5 
REMARK    4  A    between atoms: C5_5  and  C6_6 
REMARK    5  A    between atoms: C5_5  and  C8_8 
REMARK    6  A    between atoms: C8_8  and  O1_9 
REMARK    7  A    between atoms: C8_8  and  C24_36 
REMARK    8  A    between atoms: O1_9  and  C9_10 
REMARK    9  A    between atoms: C9_10  and  C10_12 
REMARK       I    between atoms: C10_12  and  N1_14 
REMARK       I    between atoms: N1_14  and  C11_16 
REMARK   10  A    between atoms: C11_16  and  C12_18 
REMARK   11  A    between atoms: C17_25  and  N3_26 
REMARK       I    between atoms: N3_26  and  C18_28 
REMARK   12  A    between atoms: C24_36  and  C25_38 
REMARK   13  A    between atoms: C25_38  and  C26_39 
REMARK   14  A    between atoms: C26_39  and  C27_40 
ROOT
HETATM    1  C10 UNL     1      19.520  26.213  16.886  1.00  0.00     0.323 C 
HETATM    2  O3  UNL     1      20.053  25.503  16.015  1.00  0.00    -0.261 OA
HETATM    3  N1  UNL     1      18.219  25.934  17.355  1.00  0.00    -0.289 N 
ATOM      4  H1  UNL     1      17.862  26.569  18.069  1.00  0.00     0.172 HD
HETATM    5  C11 UNL     1      17.358  24.910  16.977  1.00  0.00     0.229 C 
HETATM    6  O4  UNL     1      16.226  24.820  17.558  1.00  0.00    -0.273 OA
ENDROOT
BRANCH   1   7
HETATM    7  C9  UNL     1      20.280  27.346  17.410  1.00  0.00     0.352 C 
HETATM    8  O2  UNL     1      20.419  28.423  16.795  1.00  0.00    -0.254 OA
BRANCH   7   9
HETATM    9  O1  UNL     1      20.908  27.263  18.673  1.00  0.00    -0.300 OA
BRANCH   9  10
HETATM   10  C8  UNL     1      21.573  26.053  19.050  1.00  0.00     0.205 C 
BRANCH  10  11
HETATM   11  C5  UNL     1      21.075  25.463  20.323  1.00  0.00     0.022 C 
BRANCH  11  12
HETATM   12  C4  UNL     1      20.109  24.306  20.037  1.00  0.00     0.007 C 
BRANCH  12  13
HETATM   13  C3  UNL     1      18.832  24.435  20.848  1.00  0.00     0.000 C 
BRANCH  13  14
HETATM   14  C2  UNL     1      17.848  23.380  20.308  1.00  0.00    -0.005 C 
HETATM   15  C1  UNL     1      18.351  22.004  20.633  1.00  0.00     0.005 C 
ENDBRANCH  13  14
ENDBRANCH  12  13
ENDBRANCH  11  12
BRANCH  11  16
HETATM   16  C6  UNL     1      20.402  26.464  21.213  1.00  0.00     0.003 C 
HETATM   17  C7  UNL     1      21.244  26.938  22.334  1.00  0.00     0.005 C 
ENDBRANCH  11  16
ENDBRANCH  10  11
BRANCH  10  18
HETATM   18  C24 UNL     1      23.020  26.467  19.088  1.00  0.00     0.157 C 
HETATM   19  O6  UNL     1      23.420  27.392  19.744  1.00  0.00    -0.295 OA
BRANCH  18  20
HETATM   20  C25 UNL     1      24.053  25.728  18.289  1.00  0.00     0.088 C 
BRANCH  20  21
HETATM   21  C26 UNL     1      24.845  26.652  17.410  1.00  0.00     0.085 C 
BRANCH  21  22
HETATM   22  C27 UNL     1      23.947  27.088  16.302  1.00  0.00     0.123 C 
HETATM   23  C28 UNL     1      23.778  28.536  15.946  1.00  0.00     0.091 C 
HETATM   24  O7  UNL     1      23.298  26.294  15.624  1.00  0.00    -0.298 OA
ENDBRANCH  21  22
ENDBRANCH  20  21
ENDBRANCH  18  20
ENDBRANCH  10  18
ENDBRANCH   9  10
ENDBRANCH   7   9
ENDBRANCH   1   7
BRANCH   5  25
HETATM   25  C12 UNL     1      17.690  23.928  15.935  1.00  0.00     0.087 C 
HETATM   26  C13 UNL     1      17.950  22.595  16.592  1.00  0.00     0.053 C 
HETATM   27  C14 UNL     1      16.606  21.953  16.723  1.00  0.00    -0.049 A 
HETATM   28  C15 UNL     1      16.235  20.911  17.537  1.00  0.00     0.038 A 
HETATM   29  C22 UNL     1      15.764  22.600  15.850  1.00  0.00    -0.050 A 
HETATM   30  C16 UNL     1      14.904  20.438  17.509  1.00  0.00     0.051 A 
HETATM   31  N2  UNL     1      14.405  19.452  18.230  1.00  0.00    -0.335 N 
HETATM   32  C20 UNL     1      14.057  21.074  16.644  1.00  0.00     0.035 A 
HETATM   33  C17 UNL     1      13.126  19.134  18.079  1.00  0.00     0.152 A 
ATOM     34  H2  UNL     1      14.992  18.943  18.891  1.00  0.00     0.168 HD
HETATM   35  S1  UNL     1      12.588  20.238  16.896  1.00  0.00    -0.052 SA
HETATM   36  C21 UNL     1      14.466  22.141  15.820  1.00  0.00     0.029 A 
HETATM   37  C23 UNL     1      16.440  23.679  15.114  1.00  0.00     0.053 C 
BRANCH  33  38
HETATM   38  N3  UNL     1      12.428  18.208  18.677  1.00  0.00    -0.307 N 
HETATM   39  C18 UNL     1      11.540  18.623  19.699  1.00  0.00     0.219 C 
HETATM   40  C19 UNL     1      12.014  18.719  21.098  1.00  0.00     0.117 C 
HETATM   41  O5  UNL     1      10.356  18.912  19.447  1.00  0.00    -0.274 OA
ATOM     42  H3  UNL     1      12.519  17.225  18.419  1.00  0.00     0.171 HD
ENDBRANCH  33  38
ENDBRANCH   5  25
TORSDOF 14
ENDMDL
MODEL 2
REMARK VINA RESULT: -8.870934807      1.160      1.985
REMARK  14 active torsions:
REMARK  status: ('A' for Active; 'I' for Inactive)
REMARK    1  A    between atoms: C2_2  and  C3_3 
REMARK    2  A    between atoms: C3_3  and  C4_4 
REMARK    3  A    between atoms: C4_4  and  C5_5 
REMARK    4  A    between atoms: C5_5  and  C6_6 
REMARK    5  A    between atoms: C5_5  and  C8_8 
REMARK    6  A    between atoms: C8_8  and  O1_9 
REMARK    7  A    between atoms: C8_8  and  C24_36 
REMARK    8  A    between atoms: O1_9  and  C9_10 
REMARK    9  A    between atoms: C9_10  and  C10_12 
REMARK       I    between atoms: C10_12  and  N1_14 
REMARK       I    between atoms: N1_14  and  C11_16 
REMARK   10  A    between atoms: C11_16  and  C12_18 
REMARK   11  A    between atoms: C17_25  and  N3_26 
REMARK       I    between atoms: N3_26  and  C18_28 
REMARK   12  A    between atoms: C24_36  and  C25_38 
REMARK   13  A    between atoms: C25_38  and  C26_39 
REMARK   14  A    between atoms: C26_39  and  C27_40 
ROOT
HETATM    1  C10 UNL     1      19.489  26.196  16.996  1.00  0.00     0.323 C 
HETATM    2  O3  UNL     1      20.032  25.493  16.126  1.00  0.00    -0.261 OA
HETATM    3  N1  UNL     1      18.194  25.895  17.469  1.00  0.00    -0.289 N 
ATOM      4  H1  UNL     1      17.827  26.526  18.182  1.00  0.00     0.172 HD
HETATM    5  C11 UNL     1      17.350  24.856  17.094  1.00  0.00     0.229 C 
HETATM    6  O4  UNL     1      16.221  24.747  17.677  1.00  0.00    -0.273 OA
ENDROOT
BRANCH   1   7
HETATM    7  C9  UNL     1      20.231  27.343  17.516  1.00  0.00     0.352 C 
HETATM    8  O2  UNL     1      20.365  28.414  16.891  1.00  0.00    -0.254 OA
BRANCH   7   9
HETATM    9  O1  UNL     1      20.843  27.281  18.789  1.00  0.00    -0.300 OA
BRANCH   9  10
HETATM   10  C8  UNL     1      21.189  26.007  19.342  1.00  0.00     0.205 C 
BRANCH  10  11
HETATM   11  C5  UNL     1      20.787  25.839  20.765  1.00  0.00     0.022 C 
BRANCH  11  12
HETATM   12  C4  UNL     1      19.414  25.160  20.860  1.00  0.00     0.007 C 
BRANCH  12  13
HETATM   13  C3  UNL     1      19.397  23.835  20.120  1.00  0.00     0.000 C 
BRANCH  13  14
HETATM   14  C2  UNL     1      18.015  23.201  20.364  1.00  0.00    -0.005 C 
HETATM   15  C1  UNL     1      18.180  21.759  20.747  1.00  0.00     0.005 C 
ENDBRANCH  13  14
ENDBRANCH  12  13
ENDBRANCH  11  12
BRANCH  11  16
HETATM   16  C6  UNL     1      20.756  27.130  21.525  1.00  0.00     0.003 C 
HETATM   17  C7  UNL     1      21.340  27.047  22.883  1.00  0.00     0.005 C 
ENDBRANCH  11  16
ENDBRANCH  10  11
BRANCH  10  18
HETATM   18  C24 UNL     1      22.674  25.935  19.108  1.00  0.00     0.157 C 
HETATM   19  O6  UNL     1      23.279  26.760  18.477  1.00  0.00    -0.295 OA
BRANCH  18  20
HETATM   20  C25 UNL     1      23.487  24.804  19.665  1.00  0.00     0.088 C 
BRANCH  20  21
HETATM   21  C26 UNL     1      24.803  25.278  20.211  1.00  0.00     0.085 C 
BRANCH  21  22
HETATM   22  C27 UNL     1      24.570  25.709  21.619  1.00  0.00     0.123 C 
HETATM   23  C28 UNL     1      24.135  24.741  22.680  1.00  0.00     0.091 C 
HETATM   24  O7  UNL     1      24.718  26.872  21.989  1.00  0.00    -0.298 OA
ENDBRANCH  21  22
ENDBRANCH  20  21
ENDBRANCH  18  20
ENDBRANCH  10  18
ENDBRANCH   9  10
ENDBRANCH   7   9
ENDBRANCH   1   7
BRANCH   5  25
HETATM   25  C12 UNL     1      17.697  23.878  16.053  1.00  0.00     0.087 C 
HETATM   26  C13 UNL     1      17.936  22.540  16.707  1.00  0.00     0.053 C 
HETATM   27  C14 UNL     1      16.587  21.905  16.808  1.00  0.00    -0.049 A 
HETATM   28  C15 UNL     1      16.194  20.861  17.609  1.00  0.00     0.038 A 
HETATM   29  C22 UNL     1      15.766  22.561  15.922  1.00  0.00    -0.050 A 
HETATM   30  C16 UNL     1      14.860  20.395  17.552  1.00  0.00     0.051 A 
HETATM   31  N2  UNL     1      14.342  19.408  18.258  1.00  0.00    -0.335 N 
HETATM   32  C20 UNL     1      14.035  21.041  16.674  1.00  0.00     0.035 A 
HETATM   33  C17 UNL     1      13.064  19.098  18.080  1.00  0.00     0.152 A 
ATOM     34  H2  UNL     1      14.913  18.892  18.927  1.00  0.00     0.168 HD
HETATM   35  S1  UNL     1      12.556  20.212  16.893  1.00  0.00    -0.052 SA
HETATM   36  C21 UNL     1      14.466  22.110  15.864  1.00  0.00     0.029 A 
HETATM   37  C23 UNL     1      16.462  23.640  15.206  1.00  0.00     0.053 C 
BRANCH  33  38
HETATM   38  N3  UNL     1      12.350  18.173  18.659  1.00  0.00    -0.307 N 
HETATM   39  C18 UNL     1      11.447  18.586  19.669  1.00  0.00     0.219 C 
HETATM   40  C19 UNL     1      11.899  18.668  21.076  1.00  0.00     0.117 C 
HETATM   41  O5  UNL     1      10.270  18.886  19.398  1.00  0.00    -0.274 OA
ATOM     42  H3  UNL     1      12.437  17.192  18.395  1.00  0.00     0.171 HD
ENDBRANCH  33  38
ENDBRANCH   5  25
TORSDOF 14
ENDMDL
MODEL 3
REMARK VINA RESULT: -8.816452887      3.555     10.921
REMARK  14 active torsions:
REMARK  status: ('A' for Active; 'I' for Inactive)
REMARK    1  A    between atoms: C2_2  and  C3_3 
REMARK    2  A    between atoms: C3_3  and  C4_4 
REMARK    3  A    between atoms: C4_4  and  C5_5 
REMARK    4  A    between atoms: C5_5  and  C6_6 
REMARK    5  A    between atoms: C5_5  and  C8_8 
REMARK    6  A    between atoms: C8_8  and  O1_9 
REMARK    7  A    between atoms: C8_8  and  C24_36 
REMARK    8  A    between atoms: O1_9  and  C9_10 
REMARK    9  A    between atoms: C9_10  and  C10_12 
REMARK       I    between atoms: C10_12  and  N1_14 
REMARK       I    between atoms: N1_14  and  C11_16 
REMARK   10  A    between atoms: C11_16  and  C12_18 
REMARK   11  A    between atoms: C17_25  and  N3_26 
REMARK       I    between atoms: N3_26  and  C18_28 
REMARK   12  A    between atoms: C24_36  and  C25_38 
REMARK   13  A    between atoms: C25_38  and  C26_39 
REMARK   14  A    between atoms: C26_39  and  C27_40 
ROOT
HETATM    1  C10 UNL     1      14.962  22.439  15.464  1.00  0.00     0.323 C 
HETATM    2  O3  UNL     1      14.235  23.407  15.746  1.00  0.00    -0.261 OA
HETATM    3  N1  UNL     1      16.366  22.528  15.574  1.00  0.00    -0.289 N 
ATOM      4  H1  UNL     1      16.883  21.686  15.321  1.00  0.00     0.172 HD
HETATM    5  C11 UNL     1      17.141  23.609  15.981  1.00  0.00     0.229 C 
HETATM    6  O4  UNL     1      18.406  23.464  16.041  1.00  0.00    -0.273 OA
ENDROOT
BRANCH   1   7
HETATM    7  C9  UNL     1      14.322  21.204  15.014  1.00  0.00     0.352 C 
HETATM    8  O2  UNL     1      14.158  20.915  13.811  1.00  0.00    -0.254 OA
BRANCH   7   9
HETATM    9  O1  UNL     1      13.849  20.261  15.954  1.00  0.00    -0.300 OA
BRANCH   9  10
HETATM   10  C8  UNL     1      13.038  20.702  17.047  1.00  0.00     0.205 C 
BRANCH  10  11
HETATM   11  C5  UNL     1      13.482  20.187  18.372  1.00  0.00     0.022 C 
BRANCH  11  12
HETATM   12  C4  UNL     1      14.303  21.248  19.115  1.00  0.00     0.007 C 
BRANCH  12  13
HETATM   13  C3  UNL     1      15.783  21.130  18.797  1.00  0.00     0.000 C 
BRANCH  13  14
HETATM   14  C2  UNL     1      16.479  22.345  19.437  1.00  0.00    -0.005 C 
HETATM   15  C1  UNL     1      17.959  22.104  19.504  1.00  0.00     0.005 C 
ENDBRANCH  13  14
ENDBRANCH  12  13
ENDBRANCH  11  12
BRANCH  11  16
HETATM   16  C6  UNL     1      14.278  18.921  18.275  1.00  0.00     0.003 C 
HETATM   17  C7  UNL     1      13.582  17.727  18.806  1.00  0.00     0.005 C 
ENDBRANCH  11  16
ENDBRANCH  10  11
BRANCH  10  18
HETATM   18  C24 UNL     1      11.660  20.255  16.642  1.00  0.00     0.157 C 
HETATM   19  O6  UNL     1      11.311  20.164  15.495  1.00  0.00    -0.295 OA
BRANCH  18  20
HETATM   20  C25 UNL     1      10.632  19.896  17.674  1.00  0.00     0.088 C 
BRANCH  20  21
HETATM   21  C26 UNL     1      10.041  18.538  17.425  1.00  0.00     0.085 C 
BRANCH  21  22
HETATM   22  C27 UNL     1      10.058  17.802  18.722  1.00  0.00     0.123 C 
HETATM   23  C28 UNL     1      10.041  16.303  18.780  1.00  0.00     0.091 C 
HETATM   24  O7  UNL     1      10.086  18.376  19.809  1.00  0.00    -0.298 OA
ENDBRANCH  21  22
ENDBRANCH  20  21
ENDBRANCH  18  20
ENDBRANCH  10  18
ENDBRANCH   9  10
ENDBRANCH   7   9
ENDBRANCH   1   7
BRANCH   5  25
HETATM   25  C12 UNL     1      16.567  24.914  16.343  1.00  0.00     0.087 C 
HETATM   26  C13 UNL     1      17.341  25.474  17.511  1.00  0.00     0.053 C 
HETATM   27  C14 UNL     1      18.504  26.189  16.905  1.00  0.00    -0.049 A 
HETATM   28  C15 UNL     1      19.676  26.576  17.509  1.00  0.00     0.038 A 
HETATM   29  C22 UNL     1      18.195  26.416  15.585  1.00  0.00    -0.050 A 
HETATM   30  C16 UNL     1      20.661  27.257  16.758  1.00  0.00     0.051 A 
HETATM   31  N2  UNL     1      21.829  27.686  17.200  1.00  0.00    -0.335 N 
HETATM   32  C20 UNL     1      20.364  27.487  15.444  1.00  0.00     0.035 A 
HETATM   33  C17 UNL     1      22.640  28.310  16.356  1.00  0.00     0.152 A 
ATOM     34  H2  UNL     1      22.101  27.540  18.172  1.00  0.00     0.168 HD
HETATM   35  S1  UNL     1      21.761  28.306  14.895  1.00  0.00    -0.052 SA
HETATM   36  C21 UNL     1      19.153  27.079  14.851  1.00  0.00     0.029 A 
HETATM   37  C23 UNL     1      16.873  25.884  15.220  1.00  0.00     0.053 C 
BRANCH  33  38
HETATM   38  N3  UNL     1      23.824  28.813  16.568  1.00  0.00    -0.307 N 
HETATM   39  C18 UNL     1      24.771  28.712  15.519  1.00  0.00     0.219 C 
HETATM   40  C19 UNL     1      25.645  27.521  15.423  1.00  0.00     0.117 C 
HETATM   41  O5  UNL     1      24.886  29.611  14.666  1.00  0.00    -0.274 OA
ATOM     42  H3  UNL     1      24.060  29.261  17.454  1.00  0.00     0.171 HD
ENDBRANCH  33  38
ENDBRANCH   5  25
TORSDOF 14
ENDMDL
MODEL 4
REMARK VINA RESULT: -8.669140612      2.006      3.008
REMARK  14 active torsions:
REMARK  status: ('A' for Active; 'I' for Inactive)
REMARK    1  A    between atoms: C2_2  and  C3_3 
REMARK    2  A    between atoms: C3_3  and  C4_4 
REMARK    3  A    between atoms: C4_4  and  C5_5 
REMARK    4  A    between atoms: C5_5  and  C6_6 
REMARK    5  A    between atoms: C5_5  and  C8_8 
REMARK    6  A    between atoms: C8_8  and  O1_9 
REMARK    7  A    between atoms: C8_8  and  C24_36 
REMARK    8  A    between atoms: O1_9  and  C9_10 
REMARK    9  A    between atoms: C9_10  and  C10_12 
REMARK       I    between atoms: C10_12  and  N1_14 
REMARK       I    between atoms: N1_14  and  C11_16 
REMARK   10  A    between atoms: C11_16  and  C12_18 
REMARK   11  A    between atoms: C17_25  and  N3_26 
REMARK       I    between atoms: N3_26  and  C18_28 
REMARK   12  A    between atoms: C24_36  and  C25_38 
REMARK   13  A    between atoms: C25_38  and  C26_39 
REMARK   14  A    between atoms: C26_39  and  C27_40 
ROOT
HETATM    1  C10 UNL     1      17.416  24.810  16.479  1.00  0.00     0.323 C 
HETATM    2  O3  UNL     1      16.534  25.566  16.921  1.00  0.00    -0.261 OA
HETATM    3  N1  UNL     1      17.093  23.530  15.981  1.00  0.00    -0.289 N 
ATOM      4  H1  UNL     1      17.880  22.978  15.639  1.00  0.00     0.172 HD
HETATM    5  C11 UNL     1      15.847  22.919  15.893  1.00  0.00     0.229 C 
HETATM    6  O4  UNL     1      15.774  21.756  15.374  1.00  0.00    -0.273 OA
ENDROOT
BRANCH   1   7
HETATM    7  C9  UNL     1      18.799  25.284  16.489  1.00  0.00     0.352 C 
HETATM    8  O2  UNL     1      19.563  25.194  15.507  1.00  0.00    -0.254 OA
BRANCH   7   9
HETATM    9  O1  UNL     1      19.341  25.883  17.649  1.00  0.00    -0.300 OA
BRANCH   9  10
HETATM   10  C8  UNL     1      20.558  25.373  18.201  1.00  0.00     0.205 C 
BRANCH  10  11
HETATM   11  C5  UNL     1      20.442  24.944  19.622  1.00  0.00     0.022 C 
BRANCH  11  12
HETATM   12  C4  UNL     1      19.550  23.702  19.738  1.00  0.00     0.007 C 
BRANCH  12  13
HETATM   13  C3  UNL     1      18.363  23.952  20.650  1.00  0.00     0.000 C 
BRANCH  13  14
HETATM   14  C2  UNL     1      17.313  22.871  20.330  1.00  0.00    -0.005 C 
HETATM   15  C1  UNL     1      17.804  22.007  19.205  1.00  0.00     0.005 C 
ENDBRANCH  13  14
ENDBRANCH  12  13
ENDBRANCH  11  12
BRANCH  11  16
HETATM   16  C6  UNL     1      19.913  26.021  20.521  1.00  0.00     0.003 C 
HETATM   17  C7  UNL     1      20.890  26.507  21.521  1.00  0.00     0.005 C 
ENDBRANCH  11  16
ENDBRANCH  10  11
BRANCH  10  18
HETATM   18  C24 UNL     1      21.526  26.503  17.975  1.00  0.00     0.157 C 
HETATM   19  O6  UNL     1      22.702  26.416  18.211  1.00  0.00    -0.295 OA
BRANCH  18  20
HETATM   20  C25 UNL     1      21.057  27.822  17.433  1.00  0.00     0.088 C 
BRANCH  20  21
HETATM   21  C26 UNL     1      21.792  28.205  16.182  1.00  0.00     0.085 C 
BRANCH  21  22
HETATM   22  C27 UNL     1      20.768  28.514  15.143  1.00  0.00     0.123 C 
HETATM   23  C28 UNL     1      21.103  28.521  13.680  1.00  0.00     0.091 C 
HETATM   24  O7  UNL     1      19.600  28.779  15.422  1.00  0.00    -0.298 OA
ENDBRANCH  21  22
ENDBRANCH  20  21
ENDBRANCH  18  20
ENDBRANCH  10  18
ENDBRANCH   9  10
ENDBRANCH   7   9
ENDBRANCH   1   7
BRANCH   5  25
HETATM   25  C12 UNL     1      14.610  23.550  16.375  1.00  0.00     0.087 C 
HETATM   26  C13 UNL     1      13.431  22.783  15.829  1.00  0.00     0.053 C 
HETATM   27  C14 UNL     1      13.203  21.670  16.799  1.00  0.00    -0.049 A 
HETATM   28  C15 UNL     1      12.496  20.507  16.612  1.00  0.00     0.038 A 
HETATM   29  C22 UNL     1      13.839  22.017  17.967  1.00  0.00    -0.050 A 
HETATM   30  C16 UNL     1      12.389  19.573  17.668  1.00  0.00     0.051 A 
HETATM   31  N2  UNL     1      11.747  18.420  17.635  1.00  0.00    -0.335 N 
HETATM   32  C20 UNL     1      13.018  19.908  18.834  1.00  0.00     0.035 A 
HETATM   33  C17 UNL     1      11.745  17.659  18.721  1.00  0.00     0.152 A 
ATOM     34  H2  UNL     1      11.260  18.121  16.789  1.00  0.00     0.168 HD
HETATM   35  S1  UNL     1      12.666  18.566  19.833  1.00  0.00    -0.052 SA
HETATM   36  C21 UNL     1      13.737  21.109  18.997  1.00  0.00     0.029 A 
HETATM   37  C23 UNL     1      14.520  23.317  17.870  1.00  0.00     0.053 C 
BRANCH  33  38
HETATM   38  N3  UNL     1      11.185  16.497  18.915  1.00  0.00    -0.307 N 
HETATM   39  C18 UNL     1      10.256  16.053  17.943  1.00  0.00     0.219 C 
HETATM   40  C19 UNL     1       8.825  16.407  18.071  1.00  0.00     0.117 C 
HETATM   41  O5  UNL     1      10.619  15.365  16.971  1.00  0.00    -0.274 OA
ATOM     42  H3  UNL     1      11.407  15.931  19.735  1.00  0.00     0.171 HD
ENDBRANCH  33  38
ENDBRANCH   5  25
TORSDOF 14
ENDMDL
MODEL 5
REMARK VINA RESULT: -8.635347326      1.745      4.604
REMARK  14 active torsions:
REMARK  status: ('A' for Active; 'I' for Inactive)
REMARK    1  A    between atoms: C2_2  and  C3_3 
REMARK    2  A    between atoms: C3_3  and  C4_4 
REMARK    3  A    between atoms: C4_4  and  C5_5 
REMARK    4  A    between atoms: C5_5  and  C6_6 
REMARK    5  A    between atoms: C5_5  and  C8_8 
REMARK    6  A    between atoms: C8_8  and  O1_9 
REMARK    7  A    between atoms: C8_8  and  C24_36 
REMARK    8  A    between atoms: O1_9  and  C9_10 
REMARK    9  A    between atoms: C9_10  and  C10_12 
REMARK       I    between atoms: C10_12  and  N1_14 
REMARK       I    between atoms: N1_14  and  C11_16 
REMARK   10  A    between atoms: C11_16  and  C12_18 
REMARK   11  A    between atoms: C17_25  and  N3_26 
REMARK       I    between atoms: N3_26  and  C18_28 
REMARK   12  A    between atoms: C24_36  and  C25_38 
REMARK   13  A    between atoms: C25_38  and  C26_39 
REMARK   14  A    between atoms: C26_39  and  C27_40 
ROOT
HETATM    1  C10 UNL     1      19.733  25.370  18.884  1.00  0.00     0.323 C 
HETATM    2  O3  UNL     1      20.419  24.336  18.830  1.00  0.00    -0.261 OA
HETATM    3  N1  UNL     1      18.323  25.309  18.868  1.00  0.00    -0.289 N 
ATOM      4  H1  UNL     1      17.841  26.207  18.915  1.00  0.00     0.172 HD
HETATM    5  C11 UNL     1      17.501  24.189  18.798  1.00  0.00     0.229 C 
HETATM    6  O4  UNL     1      16.237  24.358  18.831  1.00  0.00    -0.273 OA
ENDROOT
BRANCH   1   7
HETATM    7  C9  UNL     1      20.427  26.654  18.963  1.00  0.00     0.352 C 
HETATM    8  O2  UNL     1      21.051  27.036  19.973  1.00  0.00    -0.254 OA
BRANCH   7   9
HETATM    9  O1  UNL     1      20.417  27.541  17.862  1.00  0.00    -0.300 OA
BRANCH   9  10
HETATM   10  C8  UNL     1      21.183  27.223  16.696  1.00  0.00     0.205 C 
BRANCH  10  11
HETATM   11  C5  UNL     1      22.580  27.736  16.734  1.00  0.00     0.022 C 
BRANCH  11  12
HETATM   12  C4  UNL     1      23.082  28.038  15.316  1.00  0.00     0.007 C 
BRANCH  12  13
HETATM   13  C3  UNL     1      23.672  29.434  15.220  1.00  0.00     0.000 C 
BRANCH  13  14
HETATM   14  C2  UNL     1      25.204  29.276  15.219  1.00  0.00    -0.005 C 
HETATM   15  C1  UNL     1      25.797  30.090  16.331  1.00  0.00     0.005 C 
ENDBRANCH  13  14
ENDBRANCH  12  13
ENDBRANCH  11  12
BRANCH  11  16
HETATM   16  C6  UNL     1      23.534  26.798  17.409  1.00  0.00     0.003 C 
HETATM   17  C7  UNL     1      24.247  27.389  18.564  1.00  0.00     0.005 C 
ENDBRANCH  11  16
ENDBRANCH  10  11
BRANCH  10  18
HETATM   18  C24 UNL     1      20.347  27.795  15.583  1.00  0.00     0.157 C 
HETATM   19  O6  UNL     1      19.996  28.945  15.551  1.00  0.00    -0.295 OA
BRANCH  18  20
HETATM   20  C25 UNL     1      19.902  26.937  14.435  1.00  0.00     0.088 C 
BRANCH  20  21
HETATM   21  C26 UNL     1      18.406  26.839  14.358  1.00  0.00     0.085 C 
BRANCH  21  22
HETATM   22  C27 UNL     1      17.992  25.688  15.211  1.00  0.00     0.123 C 
HETATM   23  C28 UNL     1      16.567  25.494  15.641  1.00  0.00     0.091 C 
HETATM   24  O7  UNL     1      18.787  24.839  15.608  1.00  0.00    -0.298 OA
ENDBRANCH  21  22
ENDBRANCH  20  21
ENDBRANCH  18  20
ENDBRANCH  10  18
ENDBRANCH   9  10
ENDBRANCH   7   9
ENDBRANCH   1   7
BRANCH   5  25
HETATM   25  C12 UNL     1      18.022  22.819  18.685  1.00  0.00     0.087 C 
HETATM   26  C13 UNL     1      17.289  21.941  19.667  1.00  0.00     0.053 C 
HETATM   27  C14 UNL     1      16.054  21.496  18.952  1.00  0.00    -0.049 A 
HETATM   28  C15 UNL     1      14.900  20.976  19.485  1.00  0.00     0.038 A 
HETATM   29  C22 UNL     1      16.273  21.694  17.609  1.00  0.00    -0.050 A 
HETATM   30  C16 UNL     1      13.837  20.605  18.631  1.00  0.00     0.051 A 
HETATM   31  N2  UNL     1      12.676  20.096  18.998  1.00  0.00    -0.335 N 
HETATM   32  C20 UNL     1      14.044  20.797  17.294  1.00  0.00     0.035 A 
HETATM   33  C17 UNL     1      11.783  19.801  18.061  1.00  0.00     0.152 A 
ATOM     34  H2  UNL     1      12.469  19.931  19.983  1.00  0.00     0.168 HD
HETATM   35  S1  UNL     1      12.575  20.244  16.617  1.00  0.00    -0.052 SA
HETATM   36  C21 UNL     1      15.239  21.333  16.775  1.00  0.00     0.029 A 
HETATM   37  C23 UNL     1      17.599  22.270  17.337  1.00  0.00     0.053 C 
BRANCH  33  38
HETATM   38  N3  UNL     1      10.587  19.297  18.188  1.00  0.00    -0.307 N 
HETATM   39  C18 UNL     1      10.438  18.192  19.062  1.00  0.00     0.219 C 
HETATM   40  C19 UNL     1      10.616  16.815  18.551  1.00  0.00     0.117 C 
HETATM   41  O5  UNL     1      10.157  18.354  20.263  1.00  0.00    -0.274 OA
ATOM     42  H3  UNL     1       9.792  19.682  17.679  1.00  0.00     0.171 HD
ENDBRANCH  33  38
ENDBRANCH   5  25
TORSDOF 14
ENDMDL
