MODEL 1
REMARK VINA RESULT: -8.868720582      0.000      0.000
REMARK  15 active torsions:
REMARK  status: ('A' for Active; 'I' for Inactive)
REMARK    1  A    between atoms: O1_2  and  C2_3 
REMARK    2  A    between atoms: C4_5  and  C5_6 
REMARK    3  A    between atoms: C5_6  and  C17_18 
REMARK    4  A    between atoms: C6_7  and  C7_8 
REMARK    5  A    between atoms: C7_8  and  C8_9 
REMARK    6  A    between atoms: C8_9  and  C9_10 
REMARK    7  A    between atoms: C9_10  and  C11_12 
REMARK    8  A    between atoms: C11_12  and  C12_13 
REMARK    9  A    between atoms: C12_13  and  C13_14 
REMARK   10  A    between atoms: C13_14  and  C14_15 
REMARK   11  A    between atoms: C17_18  and  O2_19 
REMARK   12  A    between atoms: C17_18  and  C18_21 
REMARK   13  A    between atoms: C22_25  and  O3_26 
REMARK   14  A    between atoms: C25_29  and  O4_30 
REMARK   15  A    between atoms: C27_32  and  O5_33 
ROOT
HETATM    1  C5  UNL     1      15.334  20.100   9.444  1.00  0.00    -0.022 C 
HETATM    2  C6  UNL     1      16.613  20.050   9.115  1.00  0.00    -0.016 C 
ENDROOT
BRANCH   1   3
HETATM    3  C4  UNL     1      14.749  18.879  10.034  1.00  0.00    -0.022 A 
HETATM    4  C3  UNL     1      13.450  18.498   9.821  1.00  0.00     0.052 A 
HETATM    5  C2  UNL     1      12.879  17.372  10.411  1.00  0.00     0.105 A 
HETATM    6  C27 UNL     1      13.627  16.582  11.254  1.00  0.00     0.135 A 
HETATM    7  C25 UNL     1      14.934  16.946  11.482  1.00  0.00     0.105 A 
HETATM    8  C24 UNL     1      15.485  18.082  10.878  1.00  0.00     0.052 A 
BRANCH   5   9
HETATM    9  O1  UNL     1      11.559  17.018  10.171  1.00  0.00    -0.353 OA
HETATM   10  C1  UNL     1      11.053  17.122   8.839  1.00  0.00     0.210 C 
ENDBRANCH   5   9
BRANCH   6  11
HETATM   11  O5  UNL     1      13.113  15.470  11.855  1.00  0.00    -0.351 OA
HETATM   12  C28 UNL     1      12.520  15.399  13.116  1.00  0.00     0.210 C 
ENDBRANCH   6  11
BRANCH   7  13
HETATM   13  O4  UNL     1      15.690  16.156  12.328  1.00  0.00    -0.353 OA
HETATM   14  C26 UNL     1      16.778  16.702  13.004  1.00  0.00     0.210 C 
ENDBRANCH   7  13
ENDBRANCH   1   3
BRANCH   1  15
HETATM   15  C17 UNL     1      14.643  21.373   9.264  1.00  0.00     0.158 C 
BRANCH  15  16
HETATM   16  O2  UNL     1      13.823  21.363   8.103  1.00  0.00    -0.390 OA
ATOM     17  H2  UNL     1      12.981  20.960   8.276  1.00  0.00     0.210 HD
ENDBRANCH  15  16
BRANCH  15  18
HETATM   18  C18 UNL     1      13.897  21.917  10.429  1.00  0.00     0.048 C 
HETATM   19  C19 UNL     1      12.420  21.864  10.461  1.00  0.00     0.010 C 
HETATM   20  C20 UNL     1      12.039  22.818  11.615  1.00  0.00     0.003 C 
HETATM   21  C21 UNL     1      13.112  23.858  11.636  1.00  0.00     0.032 C 
HETATM   22  C22 UNL     1      14.202  23.391  10.713  1.00  0.00     0.127 C 
BRANCH  22  23
HETATM   23  O3  UNL     1      14.231  24.150   9.559  1.00  0.00    -0.390 OA
HETATM   24  C23 UNL     1      14.633  25.432   9.879  1.00  0.00     0.202 C 
ENDBRANCH  22  23
ENDBRANCH  15  18
ENDBRANCH   1  15
BRANCH   2  25
HETATM   25  C7  UNL     1      17.479  21.058   8.529  1.00  0.00     0.028 C 
BRANCH  25  26
HETATM   26  C8  UNL     1      17.817  22.191   9.459  1.00  0.00     0.008 C 
BRANCH  26  27
HETATM   27  C9  UNL     1      17.602  23.506   8.750  1.00  0.00    -0.018 C 
HETATM   28  C10 UNL     1      18.651  24.526   8.993  1.00  0.00     0.010 C 
BRANCH  27  29
HETATM   29  C11 UNL     1      17.558  23.231   7.239  1.00  0.00     0.004 C 
BRANCH  29  30
HETATM   30  C12 UNL     1      18.791  23.800   6.579  1.00  0.00     0.001 C 
BRANCH  30  31
HETATM   31  C13 UNL     1      18.416  24.596   5.332  1.00  0.00     0.004 C 
BRANCH  31  32
HETATM   32  C14 UNL     1      18.696  26.067   5.531  1.00  0.00    -0.023 C 
HETATM   33  C15 UNL     1      20.033  26.322   6.147  1.00  0.00     0.009 C 
HETATM   34  C16 UNL     1      18.605  26.843   4.250  1.00  0.00     0.009 C 
ENDBRANCH  31  32
ENDBRANCH  30  31
ENDBRANCH  29  30
ENDBRANCH  27  29
ENDBRANCH  26  27
ENDBRANCH  25  26
ENDBRANCH   2  25
TORSDOF 15
ENDMDL
MODEL 2
REMARK VINA RESULT: -7.953753598      0.747      2.421
REMARK  15 active torsions:
REMARK  status: ('A' for Active; 'I' for Inactive)
REMARK    1  A    between atoms: O1_2  and  C2_3 
REMARK    2  A    between atoms: C4_5  and  C5_6 
REMARK    3  A    between atoms: C5_6  and  C17_18 
REMARK    4  A    between atoms: C6_7  and  C7_8 
REMARK    5  A    between atoms: C7_8  and  C8_9 
REMARK    6  A    between atoms: C8_9  and  C9_10 
REMARK    7  A    between atoms: C9_10  and  C11_12 
REMARK    8  A    between atoms: C11_12  and  C12_13 
REMARK    9  A    between atoms: C12_13  and  C13_14 
REMARK   10  A    between atoms: C13_14  and  C14_15 
REMARK   11  A    between atoms: C17_18  and  O2_19 
REMARK   12  A    between atoms: C17_18  and  C18_21 
REMARK   13  A    between atoms: C22_25  and  O3_26 
REMARK   14  A    between atoms: C25_29  and  O4_30 
REMARK   15  A    between atoms: C27_32  and  O5_33 
ROOT
HETATM    1  C5  UNL     1      15.721  19.869   9.543  1.00  0.00    -0.022 C 
HETATM    2  C6  UNL     1      16.978  19.714   9.164  1.00  0.00    -0.016 C 
ENDROOT
BRANCH   1   3
HETATM    3  C4  UNL     1      15.100  18.745  10.271  1.00  0.00    -0.022 A 
HETATM    4  C3  UNL     1      15.704  18.119  11.331  1.00  0.00     0.052 A 
HETATM    5  C2  UNL     1      15.144  17.029  11.994  1.00  0.00     0.105 A 
HETATM    6  C27 UNL     1      13.927  16.530  11.590  1.00  0.00     0.135 A 
HETATM    7  C25 UNL     1      13.303  17.142  10.529  1.00  0.00     0.105 A 
HETATM    8  C24 UNL     1      13.884  18.235   9.879  1.00  0.00     0.052 A 
BRANCH   5   9
HETATM    9  O1  UNL     1      15.787  16.422  13.063  1.00  0.00    -0.353 OA
HETATM   10  C1  UNL     1      16.011  17.185  14.250  1.00  0.00     0.210 C 
ENDBRANCH   5   9
BRANCH   6  11
HETATM   11  O5  UNL     1      13.338  15.464  12.208  1.00  0.00    -0.351 OA
HETATM   12  C28 UNL     1      12.709  15.461  13.452  1.00  0.00     0.210 C 
ENDBRANCH   6  11
BRANCH   7  13
HETATM   13  O4  UNL     1      12.078  16.644  10.120  1.00  0.00    -0.353 OA
HETATM   14  C26 UNL     1      11.402  17.242   9.061  1.00  0.00     0.210 C 
ENDBRANCH   7  13
ENDBRANCH   1   3
BRANCH   1  15
HETATM   15  C17 UNL     1      15.093  21.159   9.274  1.00  0.00     0.158 C 
BRANCH  15  16
HETATM   16  O2  UNL     1      14.339  21.131   8.069  1.00  0.00    -0.390 OA
ATOM     17  H2  UNL     1      14.357  21.971   7.627  1.00  0.00     0.210 HD
ENDBRANCH  15  16
BRANCH  15  18
HETATM   18  C18 UNL     1      14.305  21.779  10.371  1.00  0.00     0.048 C 
HETATM   19  C19 UNL     1      12.832  21.652  10.397  1.00  0.00     0.010 C 
HETATM   20  C20 UNL     1      12.388  22.697  11.445  1.00  0.00     0.003 C 
HETATM   21  C21 UNL     1      13.406  23.788  11.367  1.00  0.00     0.032 C 
HETATM   22  C22 UNL     1      14.530  23.287  10.505  1.00  0.00     0.127 C 
BRANCH  22  23
HETATM   23  O3  UNL     1      14.534  23.925   9.279  1.00  0.00    -0.390 OA
HETATM   24  C23 UNL     1      14.764  25.272   9.478  1.00  0.00     0.202 C 
ENDBRANCH  22  23
ENDBRANCH  15  18
ENDBRANCH   1  15
BRANCH   2  25
HETATM   25  C7  UNL     1      17.868  20.610   8.448  1.00  0.00     0.028 C 
BRANCH  25  26
HETATM   26  C8  UNL     1      18.000  21.971   9.075  1.00  0.00     0.008 C 
BRANCH  26  27
HETATM   27  C9  UNL     1      18.410  22.972   8.022  1.00  0.00    -0.018 C 
HETATM   28  C10 UNL     1      17.566  22.977   6.802  1.00  0.00     0.010 C 
BRANCH  27  29
HETATM   29  C11 UNL     1      18.342  24.375   8.644  1.00  0.00     0.004 C 
BRANCH  29  30
HETATM   30  C12 UNL     1      19.210  25.327   7.857  1.00  0.00     0.001 C 
BRANCH  30  31
HETATM   31  C13 UNL     1      18.382  26.080   6.820  1.00  0.00     0.004 C 
BRANCH  31  32
HETATM   32  C14 UNL     1      19.276  26.846   5.873  1.00  0.00    -0.023 C 
HETATM   33  C15 UNL     1      20.690  26.366   5.899  1.00  0.00     0.009 C 
HETATM   34  C16 UNL     1      18.780  26.800   4.458  1.00  0.00     0.009 C 
ENDBRANCH  31  32
ENDBRANCH  30  31
ENDBRANCH  29  30
ENDBRANCH  27  29
ENDBRANCH  26  27
ENDBRANCH  25  26
ENDBRANCH   2  25
TORSDOF 15
ENDMDL
MODEL 3
REMARK VINA RESULT: -7.951498587      1.734      5.100
REMARK  15 active torsions:
REMARK  status: ('A' for Active; 'I' for Inactive)
REMARK    1  A    between atoms: O1_2  and  C2_3 
REMARK    2  A    between atoms: C4_5  and  C5_6 
REMARK    3  A    between atoms: C5_6  and  C17_18 
REMARK    4  A    between atoms: C6_7  and  C7_8 
REMARK    5  A    between atoms: C7_8  and  C8_9 
REMARK    6  A    between atoms: C8_9  and  C9_10 
REMARK    7  A    between atoms: C9_10  and  C11_12 
REMARK    8  A    between atoms: C11_12  and  C12_13 
REMARK    9  A    between atoms: C12_13  and  C13_14 
REMARK   10  A    between atoms: C13_14  and  C14_15 
REMARK   11  A    between atoms: C17_18  and  O2_19 
REMARK   12  A    between atoms: C17_18  and  C18_21 
REMARK   13  A    between atoms: C22_25  and  O3_26 
REMARK   14  A    between atoms: C25_29  and  O4_30 
REMARK   15  A    between atoms: C27_32  and  O5_33 
ROOT
HETATM    1  C5  UNL     1      14.862  18.814   9.978  1.00  0.00    -0.022 C 
HETATM    2  C6  UNL     1      15.824  19.615   9.554  1.00  0.00    -0.016 C 
ENDROOT
BRANCH   1   3
HETATM    3  C4  UNL     1      13.488  19.352   9.955  1.00  0.00    -0.022 A 
HETATM    4  C3  UNL     1      12.376  18.555   9.869  1.00  0.00     0.052 A 
HETATM    5  C2  UNL     1      11.078  19.058   9.802  1.00  0.00     0.105 A 
HETATM    6  C27 UNL     1      10.867  20.418   9.819  1.00  0.00     0.135 A 
HETATM    7  C25 UNL     1      11.968  21.237   9.905  1.00  0.00     0.105 A 
HETATM    8  C24 UNL     1      13.261  20.708   9.972  1.00  0.00     0.052 A 
BRANCH   5   9
HETATM    9  O1  UNL     1       9.978  18.218   9.715  1.00  0.00    -0.353 OA
HETATM   10  C1  UNL     1      10.197  16.820   9.520  1.00  0.00     0.210 C 
ENDBRANCH   5   9
BRANCH   6  11
HETATM   11  O5  UNL     1       9.615  20.959   9.755  1.00  0.00    -0.351 OA
HETATM   12  C28 UNL     1       8.759  21.215  10.826  1.00  0.00     0.210 C 
ENDBRANCH   6  11
BRANCH   7  13
HETATM   13  O4  UNL     1      11.759  22.605   9.924  1.00  0.00    -0.353 OA
HETATM   14  C26 UNL     1      12.318  23.407   8.932  1.00  0.00     0.210 C 
ENDBRANCH   7  13
ENDBRANCH   1   3
BRANCH   1  15
HETATM   15  C17 UNL     1      15.237  17.455  10.355  1.00  0.00     0.158 C 
BRANCH  15  16
HETATM   16  O2  UNL     1      15.562  16.668   9.217  1.00  0.00    -0.390 OA
ATOM     17  H2  UNL     1      15.356  15.751   9.357  1.00  0.00     0.210 HD
ENDBRANCH  15  16
BRANCH  15  18
HETATM   18  C18 UNL     1      16.270  17.299  11.413  1.00  0.00     0.048 C 
HETATM   19  C19 UNL     1      17.292  16.236  11.309  1.00  0.00     0.010 C 
HETATM   20  C20 UNL     1      17.918  16.183  12.720  1.00  0.00     0.003 C 
HETATM   21  C21 UNL     1      16.819  16.576  13.652  1.00  0.00     0.032 C 
HETATM   22  C22 UNL     1      15.683  17.086  12.811  1.00  0.00     0.127 C 
BRANCH  22  23
HETATM   23  O3  UNL     1      14.632  16.188  12.804  1.00  0.00    -0.390 OA
HETATM   24  C23 UNL     1      14.333  15.843  14.108  1.00  0.00     0.202 C 
ENDBRANCH  22  23
ENDBRANCH  15  18
ENDBRANCH   1  15
BRANCH   2  25
HETATM   25  C7  UNL     1      17.256  19.398   9.444  1.00  0.00     0.028 C 
BRANCH  25  26
HETATM   26  C8  UNL     1      17.942  20.318   8.472  1.00  0.00     0.008 C 
BRANCH  26  27
HETATM   27  C9  UNL     1      17.340  21.698   8.577  1.00  0.00    -0.018 C 
HETATM   28  C10 UNL     1      18.065  22.629   9.476  1.00  0.00     0.010 C 
BRANCH  27  29
HETATM   29  C11 UNL     1      17.325  22.321   7.173  1.00  0.00     0.004 C 
BRANCH  29  30
HETATM   30  C12 UNL     1      18.488  23.272   7.022  1.00  0.00     0.001 C 
BRANCH  30  31
HETATM   31  C13 UNL     1      18.237  24.254   5.881  1.00  0.00     0.004 C 
BRANCH  31  32
HETATM   32  C14 UNL     1      18.530  25.670   6.318  1.00  0.00    -0.023 C 
HETATM   33  C15 UNL     1      19.705  25.759   7.236  1.00  0.00     0.009 C 
HETATM   34  C16 UNL     1      18.762  26.589   5.155  1.00  0.00     0.009 C 
ENDBRANCH  31  32
ENDBRANCH  30  31
ENDBRANCH  29  30
ENDBRANCH  27  29
ENDBRANCH  26  27
ENDBRANCH  25  26
ENDBRANCH   2  25
TORSDOF 15
ENDMDL
MODEL 4
REMARK VINA RESULT: -7.901285183      2.791      4.621
REMARK  15 active torsions:
REMARK  status: ('A' for Active; 'I' for Inactive)
REMARK    1  A    between atoms: O1_2  and  C2_3 
REMARK    2  A    between atoms: C4_5  and  C5_6 
REMARK    3  A    between atoms: C5_6  and  C17_18 
REMARK    4  A    between atoms: C6_7  and  C7_8 
REMARK    5  A    between atoms: C7_8  and  C8_9 
REMARK    6  A    between atoms: C8_9  and  C9_10 
REMARK    7  A    between atoms: C9_10  and  C11_12 
REMARK    8  A    between atoms: C11_12  and  C12_13 
REMARK    9  A    between atoms: C12_13  and  C13_14 
REMARK   10  A    between atoms: C13_14  and  C14_15 
REMARK   11  A    between atoms: C17_18  and  O2_19 
REMARK   12  A    between atoms: C17_18  and  C18_21 
REMARK   13  A    between atoms: C22_25  and  O3_26 
REMARK   14  A    between atoms: C25_29  and  O4_30 
REMARK   15  A    between atoms: C27_32  and  O5_33 
ROOT
HETATM    1  C5  UNL     1      12.928  22.182   9.782  1.00  0.00    -0.022 C 
HETATM    2  C6  UNL     1      13.912  21.500  10.343  1.00  0.00    -0.016 C 
ENDROOT
BRANCH   1   3
HETATM    3  C4  UNL     1      11.552  21.774  10.126  1.00  0.00    -0.022 A 
HETATM    4  C3  UNL     1      11.073  20.508   9.907  1.00  0.00     0.052 A 
HETATM    5  C2  UNL     1       9.762  20.129  10.188  1.00  0.00     0.105 A 
HETATM    6  C27 UNL     1       8.878  21.046  10.711  1.00  0.00     0.135 A 
HETATM    7  C25 UNL     1       9.337  22.322  10.938  1.00  0.00     0.105 A 
HETATM    8  C24 UNL     1      10.658  22.679  10.648  1.00  0.00     0.052 A 
BRANCH   5   9
HETATM    9  O1  UNL     1       9.314  18.838   9.953  1.00  0.00    -0.353 OA
HETATM   10  C1  UNL     1      10.278  17.813   9.703  1.00  0.00     0.210 C 
ENDBRANCH   5   9
BRANCH   6  11
HETATM   11  O5  UNL     1       7.584  20.723  11.002  1.00  0.00    -0.351 OA
HETATM   12  C28 UNL     1       7.117  20.104  12.161  1.00  0.00     0.210 C 
ENDBRANCH   6  11
BRANCH   7  13
HETATM   13  O4  UNL     1       8.452  23.246  11.464  1.00  0.00    -0.353 OA
HETATM   14  C26 UNL     1       8.741  24.606  11.391  1.00  0.00     0.210 C 
ENDBRANCH   7  13
ENDBRANCH   1   3
BRANCH   1  15
HETATM   15  C17 UNL     1      13.294  23.316   8.938  1.00  0.00     0.158 C 
BRANCH  15  16
HETATM   16  O2  UNL     1      12.321  23.552   7.930  1.00  0.00    -0.390 OA
ATOM     17  H2  UNL     1      11.447  23.615   8.297  1.00  0.00     0.210 HD
ENDBRANCH  15  16
BRANCH  15  18
HETATM   18  C18 UNL     1      13.662  24.585   9.619  1.00  0.00     0.048 C 
HETATM   19  C19 UNL     1      13.636  24.677  11.094  1.00  0.00     0.010 C 
HETATM   20  C20 UNL     1      13.724  26.193  11.373  1.00  0.00     0.003 C 
HETATM   21  C21 UNL     1      13.051  26.846  10.210  1.00  0.00     0.032 C 
HETATM   22  C22 UNL     1      12.815  25.781   9.177  1.00  0.00     0.127 C 
BRANCH  22  23
HETATM   23  O3  UNL     1      11.472  25.465   9.092  1.00  0.00    -0.390 OA
HETATM   24  C23 UNL     1      10.740  26.637   9.070  1.00  0.00     0.202 C 
ENDBRANCH  22  23
ENDBRANCH  15  18
ENDBRANCH   1  15
BRANCH   2  25
HETATM   25  C7  UNL     1      15.352  21.644  10.224  1.00  0.00     0.028 C 
BRANCH  25  26
HETATM   26  C8  UNL     1      15.964  20.798   9.141  1.00  0.00     0.008 C 
BRANCH  26  27
HETATM   27  C9  UNL     1      17.297  21.381   8.741  1.00  0.00    -0.018 C 
HETATM   28  C10 UNL     1      18.276  20.398   8.213  1.00  0.00     0.010 C 
BRANCH  27  29
HETATM   29  C11 UNL     1      17.050  22.429   7.646  1.00  0.00     0.004 C 
BRANCH  29  30
HETATM   30  C12 UNL     1      18.274  23.301   7.485  1.00  0.00     0.001 C 
BRANCH  30  31
HETATM   31  C13 UNL     1      18.200  24.099   6.187  1.00  0.00     0.004 C 
BRANCH  31  32
HETATM   32  C14 UNL     1      18.519  25.555   6.435  1.00  0.00    -0.023 C 
HETATM   33  C15 UNL     1      19.720  25.743   7.302  1.00  0.00     0.009 C 
HETATM   34  C16 UNL     1      18.725  26.319   5.160  1.00  0.00     0.009 C 
ENDBRANCH  31  32
ENDBRANCH  30  31
ENDBRANCH  29  30
ENDBRANCH  27  29
ENDBRANCH  26  27
ENDBRANCH  25  26
ENDBRANCH   2  25
TORSDOF 15
ENDMDL
MODEL 5
REMARK VINA RESULT: -7.784315777      1.450      2.985
REMARK  15 active torsions:
REMARK  status: ('A' for Active; 'I' for Inactive)
REMARK    1  A    between atoms: O1_2  and  C2_3 
REMARK    2  A    between atoms: C4_5  and  C5_6 
REMARK    3  A    between atoms: C5_6  and  C17_18 
REMARK    4  A    between atoms: C6_7  and  C7_8 
REMARK    5  A    between atoms: C7_8  and  C8_9 
REMARK    6  A    between atoms: C8_9  and  C9_10 
REMARK    7  A    between atoms: C9_10  and  C11_12 
REMARK    8  A    between atoms: C11_12  and  C12_13 
REMARK    9  A    between atoms: C12_13  and  C13_14 
REMARK   10  A    between atoms: C13_14  and  C14_15 
REMARK   11  A    between atoms: C17_18  and  O2_19 
REMARK   12  A    between atoms: C17_18  and  C18_21 
REMARK   13  A    between atoms: C22_25  and  O3_26 
REMARK   14  A    between atoms: C25_29  and  O4_30 
REMARK   15  A    between atoms: C27_32  and  O5_33 
ROOT
HETATM    1  C5  UNL     1      13.689  20.726   9.383  1.00  0.00    -0.022 C 
HETATM    2  C6  UNL     1      14.765  20.995   8.664  1.00  0.00    -0.016 C 
ENDROOT
BRANCH   1   3
HETATM    3  C4  UNL     1      13.581  19.362   9.936  1.00  0.00    -0.022 A 
HETATM    4  C3  UNL     1      14.643  18.696  10.490  1.00  0.00     0.052 A 
HETATM    5  C2  UNL     1      14.558  17.391  10.973  1.00  0.00     0.105 A 
HETATM    6  C27 UNL     1      13.365  16.709  10.904  1.00  0.00     0.135 A 
HETATM    7  C25 UNL     1      12.286  17.357  10.352  1.00  0.00     0.105 A 
HETATM    8  C24 UNL     1      12.395  18.667   9.873  1.00  0.00     0.052 A 
BRANCH   5   9
HETATM    9  O1  UNL     1      15.656  16.750  11.528  1.00  0.00    -0.353 OA
HETATM   10  C1  UNL     1      16.923  16.878  10.880  1.00  0.00     0.210 C 
ENDBRANCH   5   9
BRANCH   6  11
HETATM   11  O5  UNL     1      13.232  15.430  11.364  1.00  0.00    -0.351 OA
HETATM   12  C28 UNL     1      12.839  15.037  12.643  1.00  0.00     0.210 C 
ENDBRANCH   6  11
BRANCH   7  13
HETATM   13  O4  UNL     1      11.084  16.675  10.281  1.00  0.00    -0.353 OA
HETATM   14  C26 UNL     1      10.269  16.815   9.161  1.00  0.00     0.210 C 
ENDBRANCH   7  13
ENDBRANCH   1   3
BRANCH   1  15
HETATM   15  C17 UNL     1      12.752  21.819   9.623  1.00  0.00     0.158 C 
BRANCH  15  16
HETATM   16  O2  UNL     1      11.692  21.418  10.481  1.00  0.00    -0.390 OA
ATOM     17  H2  UNL     1      10.850  21.475  10.044  1.00  0.00     0.210 HD
ENDBRANCH  15  16
BRANCH  15  18
HETATM   18  C18 UNL     1      13.318  23.121  10.062  1.00  0.00     0.048 C 
HETATM   19  C19 UNL     1      13.488  23.415  11.501  1.00  0.00     0.010 C 
HETATM   20  C20 UNL     1      13.748  24.937  11.541  1.00  0.00     0.003 C 
HETATM   21  C21 UNL     1      12.995  25.495  10.377  1.00  0.00     0.032 C 
HETATM   22  C22 UNL     1      12.534  24.331   9.546  1.00  0.00     0.127 C 
BRANCH  22  23
HETATM   23  O3  UNL     1      11.168  24.154   9.661  1.00  0.00    -0.390 OA
HETATM   24  C23 UNL     1      10.530  25.255   9.123  1.00  0.00     0.202 C 
ENDBRANCH  22  23
ENDBRANCH  15  18
ENDBRANCH   1  15
BRANCH   2  25
HETATM   25  C7  UNL     1      15.175  22.217   7.994  1.00  0.00     0.028 C 
BRANCH  25  26
HETATM   26  C8  UNL     1      16.612  22.220   7.551  1.00  0.00     0.008 C 
BRANCH  26  27
HETATM   27  C9  UNL     1      17.492  21.789   8.699  1.00  0.00    -0.018 C 
HETATM   28  C10 UNL     1      18.247  20.532   8.470  1.00  0.00     0.010 C 
BRANCH  27  29
HETATM   29  C11 UNL     1      18.513  22.906   8.963  1.00  0.00     0.004 C 
BRANCH  29  30
HETATM   30  C12 UNL     1      17.967  24.226   8.473  1.00  0.00     0.001 C 
BRANCH  30  31
HETATM   31  C13 UNL     1      18.997  24.947   7.609  1.00  0.00     0.004 C 
BRANCH  31  32
HETATM   32  C14 UNL     1      18.372  25.435   6.323  1.00  0.00    -0.023 C 
HETATM   33  C15 UNL     1      19.073  26.625   5.754  1.00  0.00     0.009 C 
HETATM   34  C16 UNL     1      18.318  24.364   5.273  1.00  0.00     0.009 C 
ENDBRANCH  31  32
ENDBRANCH  30  31
ENDBRANCH  29  30
ENDBRANCH  27  29
ENDBRANCH  26  27
ENDBRANCH  25  26
ENDBRANCH   2  25
TORSDOF 15
ENDMDL
