MODEL 1
REMARK VINA RESULT: -6.964792646      0.000      0.000
REMARK  6 active torsions:
REMARK  status: ('A' for Active; 'I' for Inactive)
REMARK    1  A    between atoms: C3_5  and  N2_6 
REMARK    2  A    between atoms: C6_11  and  N3_12 
REMARK    3  A    between atoms: N3_12  and  C7_14 
REMARK    4  A    between atoms: C7_14  and  O1_15 
REMARK    5  A    between atoms: C7_14  and  C8_17 
REMARK    6  A    between atoms: C9_18  and  O2_19 
ROOT
HETATM    1  N3  UNL     1       8.062 -19.547  21.953  1.00  0.00    -0.357 N 
ATOM      2  H3  UNL     1       8.838 -19.096  22.436  1.00  0.00     0.162 HD
ENDROOT
BRANCH   1   3
HETATM    3  C6  UNL     1       8.342 -20.741  21.806  1.00  0.00     0.061 C 
HETATM    4  C5  UNL     1       8.823 -21.206  20.579  1.00  0.00    -0.020 C 
HETATM    5  C4  UNL     1       8.547 -22.462  20.058  1.00  0.00    -0.006 C 
HETATM    6  C15 UNL     1       9.682 -20.436  19.692  1.00  0.00     0.042 C 
HETATM    7  C3  UNL     1       7.980 -23.581  20.629  1.00  0.00     0.106 C 
HETATM    8  C17 UNL     1       8.991 -22.443  18.655  1.00  0.00     0.043 C 
HETATM    9  N1  UNL     1       7.772 -23.795  21.958  1.00  0.00    -0.345 N 
HETATM   10  C2  UNL     1       7.968 -22.953  22.988  1.00  0.00     0.031 C 
ATOM     11  H1  UNL     1       7.419 -24.719  22.205  1.00  0.00     0.167 HD
HETATM   12  C1  UNL     1       8.004 -23.530  24.350  1.00  0.00     0.070 C 
HETATM   13  C14 UNL     1       8.143 -21.589  22.921  1.00  0.00     0.083 C 
HETATM   14 CL1  UNL     1       8.114 -20.760  24.472  1.00  0.00    -0.080 Cl
HETATM   15  C16 UNL     1      10.202 -21.548  18.755  1.00  0.00     0.009 C 
BRANCH   7  16
HETATM   16  N2  UNL     1       7.586 -24.557  19.886  1.00  0.00    -0.385 N 
ATOM     17  H22 UNL     1       6.858 -25.190  20.217  1.00  0.00     0.157 HD
ATOM     18  H21 UNL     1       8.069 -24.603  18.989  1.00  0.00     0.157 HD
ENDBRANCH   7  16
ENDBRANCH   1   3
BRANCH   1  19
HETATM   19  C7  UNL     1       7.104 -18.603  21.714  1.00  0.00     0.274 C 
BRANCH  19  20
HETATM   20  O1  UNL     1       6.967 -18.447  20.334  1.00  0.00    -0.371 OA
ATOM     21  H1  UNL     1       6.298 -19.047  20.024  1.00  0.00     0.212 HD
ENDBRANCH  19  20
BRANCH  19  22
HETATM   22  C8  UNL     1       7.240 -17.246  22.243  1.00  0.00     0.114 A 
HETATM   23  C9  UNL     1       8.395 -16.545  21.985  1.00  0.00     0.172 A 
HETATM   24  N4  UNL     1       8.621 -15.293  22.423  1.00  0.00    -0.293 N 
HETATM   25  C10 UNL     1       9.839 -14.577  22.138  1.00  0.00     0.162 C 
HETATM   26  C11 UNL     1       7.673 -14.692  23.150  1.00  0.00     0.317 A 
HETATM   27  O3  UNL     1       7.814 -13.509  23.598  1.00  0.00    -0.262 OA
HETATM   28  C12 UNL     1       6.517 -15.389  23.411  1.00  0.00     0.316 A 
HETATM   29  O4  UNL     1       5.614 -14.831  24.098  1.00  0.00    -0.262 OA
HETATM   30  N5  UNL     1       6.304 -16.622  22.976  1.00  0.00    -0.310 N 
HETATM   31  C13 UNL     1       5.112 -17.390  23.222  1.00  0.00     0.160 C 
BRANCH  23  32
HETATM   32  O2  UNL     1       9.448 -17.096  21.227  1.00  0.00    -0.344 OA
ATOM     33  H2  UNL     1      10.210 -16.586  20.981  1.00  0.00     0.219 HD
ENDBRANCH  23  32
ENDBRANCH  19  22
ENDBRANCH   1  19
TORSDOF 6
ENDMDL
MODEL 2
REMARK VINA RESULT: -6.957121994      0.973      2.031
REMARK  6 active torsions:
REMARK  status: ('A' for Active; 'I' for Inactive)
REMARK    1  A    between atoms: C3_5  and  N2_6 
REMARK    2  A    between atoms: C6_11  and  N3_12 
REMARK    3  A    between atoms: N3_12  and  C7_14 
REMARK    4  A    between atoms: C7_14  and  O1_15 
REMARK    5  A    between atoms: C7_14  and  C8_17 
REMARK    6  A    between atoms: C9_18  and  O2_19 
ROOT
HETATM    1  N3  UNL     1       8.089 -19.685  21.966  1.00  0.00    -0.357 N 
ATOM      2  H3  UNL     1       8.870 -19.257  22.463  1.00  0.00     0.162 HD
ENDROOT
BRANCH   1   3
HETATM    3  C6  UNL     1       8.354 -20.878  21.788  1.00  0.00     0.061 C 
HETATM    4  C5  UNL     1       8.830 -21.318  20.550  1.00  0.00    -0.020 C 
HETATM    5  C4  UNL     1       8.537 -22.557  19.997  1.00  0.00    -0.006 C 
HETATM    6  C15 UNL     1       9.699 -20.537  19.683  1.00  0.00     0.042 C 
HETATM    7  C3  UNL     1       7.956 -23.682  20.540  1.00  0.00     0.106 C 
HETATM    8  C17 UNL     1       8.982 -22.507  18.595  1.00  0.00     0.043 C 
HETATM    9  N1  UNL     1       7.744 -23.927  21.863  1.00  0.00    -0.345 N 
HETATM   10  C2  UNL     1       7.951 -23.114  22.914  1.00  0.00     0.031 C 
ATOM     11  H1  UNL     1       7.379 -24.853  22.087  1.00  0.00     0.167 HD
HETATM   12  C1  UNL     1       7.979 -23.726  24.261  1.00  0.00     0.070 C 
HETATM   13  C14 UNL     1       8.144 -21.751  22.881  1.00  0.00     0.083 C 
HETATM   14 CL1  UNL     1       8.125 -20.961  24.453  1.00  0.00    -0.080 Cl
HETATM   15  C16 UNL     1      10.204 -21.631  18.718  1.00  0.00     0.009 C 
BRANCH   7  16
HETATM   16  N2  UNL     1       7.549 -24.634  19.773  1.00  0.00    -0.385 N 
ATOM     17  H22 UNL     1       7.027 -24.419  18.923  1.00  0.00     0.157 HD
ATOM     18  H21 UNL     1       7.803 -25.562  20.111  1.00  0.00     0.157 HD
ENDBRANCH   7  16
ENDBRANCH   1   3
BRANCH   1  19
HETATM   19  C7  UNL     1       7.145 -18.722  21.747  1.00  0.00     0.274 C 
BRANCH  19  20
HETATM   20  O1  UNL     1       6.926 -18.615  20.373  1.00  0.00    -0.371 OA
ATOM     21  H1  UNL     1       6.974 -19.482  19.989  1.00  0.00     0.212 HD
ENDBRANCH  19  20
BRANCH  19  22
HETATM   22  C8  UNL     1       7.352 -17.350  22.212  1.00  0.00     0.114 A 
HETATM   23  C9  UNL     1       6.343 -16.725  22.907  1.00  0.00     0.172 A 
HETATM   24  N4  UNL     1       6.431 -15.468  23.377  1.00  0.00    -0.293 N 
HETATM   25  C10 UNL     1       5.360 -14.833  24.105  1.00  0.00     0.162 C 
HETATM   26  C11 UNL     1       7.559 -14.783  23.162  1.00  0.00     0.317 A 
HETATM   27  O3  UNL     1       7.716 -13.591  23.577  1.00  0.00    -0.262 OA
HETATM   28  C12 UNL     1       8.570 -15.404  22.467  1.00  0.00     0.316 A 
HETATM   29  O4  UNL     1       9.642 -14.767  22.256  1.00  0.00    -0.262 OA
HETATM   30  N5  UNL     1       8.475 -16.642  22.007  1.00  0.00    -0.310 N 
HETATM   31  C13 UNL     1       9.505 -17.334  21.277  1.00  0.00     0.160 C 
BRANCH  23  32
HETATM   32  O2  UNL     1       5.119 -17.367  23.182  1.00  0.00    -0.344 OA
ATOM     33  H2  UNL     1       4.299 -16.890  23.217  1.00  0.00     0.219 HD
ENDBRANCH  23  32
ENDBRANCH  19  22
ENDBRANCH   1  19
TORSDOF 6
ENDMDL
MODEL 3
REMARK VINA RESULT: -6.521317328      2.455      7.290
REMARK  6 active torsions:
REMARK  status: ('A' for Active; 'I' for Inactive)
REMARK    1  A    between atoms: C3_5  and  N2_6 
REMARK    2  A    between atoms: C6_11  and  N3_12 
REMARK    3  A    between atoms: N3_12  and  C7_14 
REMARK    4  A    between atoms: C7_14  and  O1_15 
REMARK    5  A    between atoms: C7_14  and  C8_17 
REMARK    6  A    between atoms: C9_18  and  O2_19 
ROOT
HETATM    1  N3  UNL     1       7.953 -18.711  21.963  1.00  0.00    -0.357 N 
ATOM      2  H3  UNL     1       7.110 -19.053  22.423  1.00  0.00     0.162 HD
ENDROOT
BRANCH   1   3
HETATM    3  C6  UNL     1       8.401 -17.772  22.628  1.00  0.00     0.061 C 
HETATM    4  C5  UNL     1       7.582 -16.688  22.959  1.00  0.00    -0.020 C 
HETATM    5  C4  UNL     1       8.025 -15.378  23.063  1.00  0.00    -0.006 C 
HETATM    6  C15 UNL     1       6.159 -16.796  23.244  1.00  0.00     0.042 C 
HETATM    7  C3  UNL     1       9.296 -14.846  23.099  1.00  0.00     0.106 C 
HETATM    8  C17 UNL     1       6.823 -14.532  23.139  1.00  0.00     0.043 C 
HETATM    9  N1  UNL     1      10.456 -15.533  23.291  1.00  0.00    -0.345 N 
HETATM   10  C2  UNL     1      10.643 -16.862  23.385  1.00  0.00     0.031 C 
ATOM     11  H1  UNL     1      11.297 -14.962  23.375  1.00  0.00     0.167 HD
HETATM   12  C1  UNL     1      11.930 -17.337  23.940  1.00  0.00     0.070 C 
HETATM   13  C14 UNL     1       9.759 -17.850  23.018  1.00  0.00     0.083 C 
HETATM   14 CL1  UNL     1      10.420 -19.480  23.030  1.00  0.00    -0.080 Cl
HETATM   15  C16 UNL     1       5.895 -15.431  23.916  1.00  0.00     0.009 C 
BRANCH   7  16
HETATM   16  N2  UNL     1       9.472 -13.580  22.942  1.00  0.00    -0.385 N 
ATOM     17  H22 UNL     1      10.280 -13.235  22.423  1.00  0.00     0.157 HD
ATOM     18  H21 UNL     1       8.744 -13.013  23.379  1.00  0.00     0.157 HD
ENDBRANCH   7  16
ENDBRANCH   1   3
BRANCH   1  19
HETATM   19  C7  UNL     1       8.162 -19.465  20.843  1.00  0.00     0.274 C 
BRANCH  19  20
HETATM   20  O1  UNL     1       7.160 -19.174  19.916  1.00  0.00    -0.371 OA
ATOM     21  H1  UNL     1       6.477 -19.831  19.990  1.00  0.00     0.212 HD
ENDBRANCH  19  20
BRANCH  19  22
HETATM   22  C8  UNL     1       8.202 -20.925  20.920  1.00  0.00     0.114 A 
HETATM   23  C9  UNL     1       7.832 -21.540  22.093  1.00  0.00     0.172 A 
HETATM   24  N4  UNL     1       7.833 -22.873  22.268  1.00  0.00    -0.293 N 
HETATM   25  C10 UNL     1       7.439 -23.496  23.507  1.00  0.00     0.162 C 
HETATM   26  C11 UNL     1       8.214 -23.650  21.248  1.00  0.00     0.317 A 
HETATM   27  O3  UNL     1       8.240 -24.919  21.338  1.00  0.00    -0.262 OA
HETATM   28  C12 UNL     1       8.585 -23.040  20.073  1.00  0.00     0.316 A 
HETATM   29  O4  UNL     1       8.948 -23.764  19.102  1.00  0.00    -0.262 OA
HETATM   30  N5  UNL     1       8.582 -21.726  19.910  1.00  0.00    -0.310 N 
HETATM   31  C13 UNL     1       8.960 -21.042  18.701  1.00  0.00     0.160 C 
BRANCH  23  32
HETATM   32  O2  UNL     1       7.416 -20.804  23.220  1.00  0.00    -0.344 OA
ATOM     33  H2  UNL     1       6.572 -20.949  23.631  1.00  0.00     0.219 HD
ENDBRANCH  23  32
ENDBRANCH  19  22
ENDBRANCH   1  19
TORSDOF 6
ENDMDL
MODEL 4
REMARK VINA RESULT: -5.649998834      1.325      2.178
REMARK  6 active torsions:
REMARK  status: ('A' for Active; 'I' for Inactive)
REMARK    1  A    between atoms: C3_5  and  N2_6 
REMARK    2  A    between atoms: C6_11  and  N3_12 
REMARK    3  A    between atoms: N3_12  and  C7_14 
REMARK    4  A    between atoms: C7_14  and  O1_15 
REMARK    5  A    between atoms: C7_14  and  C8_17 
REMARK    6  A    between atoms: C9_18  and  O2_19 
ROOT
HETATM    1  N3  UNL     1       7.569 -20.072  22.031  1.00  0.00    -0.357 N 
ATOM      2  H3  UNL     1       6.993 -20.103  22.871  1.00  0.00     0.162 HD
ENDROOT
BRANCH   1   3
HETATM    3  C6  UNL     1       8.038 -21.200  21.844  1.00  0.00     0.061 C 
HETATM    4  C5  UNL     1       8.615 -21.529  20.614  1.00  0.00    -0.020 C 
HETATM    5  C4  UNL     1       8.552 -22.788  20.035  1.00  0.00    -0.006 C 
HETATM    6  C15 UNL     1       9.363 -20.596  19.786  1.00  0.00     0.042 C 
HETATM    7  C3  UNL     1       8.155 -24.006  20.543  1.00  0.00     0.106 C 
HETATM    8  C17 UNL     1       9.021 -22.637  18.648  1.00  0.00     0.043 C 
HETATM    9  N1  UNL     1       7.952 -24.309  21.856  1.00  0.00    -0.345 N 
HETATM   10  C2  UNL     1       7.989 -23.493  22.924  1.00  0.00     0.031 C 
ATOM     11  H1  UNL     1       7.743 -25.287  22.055  1.00  0.00     0.167 HD
HETATM   12  C1  UNL     1       8.083 -24.118  24.262  1.00  0.00     0.070 C 
HETATM   13  C14 UNL     1       7.949 -22.117  22.917  1.00  0.00     0.083 C 
HETATM   14 CL1  UNL     1       7.752 -21.373  24.499  1.00  0.00    -0.080 Cl
HETATM   15  C16 UNL     1      10.073 -21.570  18.821  1.00  0.00     0.009 C 
BRANCH   7  16
HETATM   16  N2  UNL     1       7.937 -24.998  19.751  1.00  0.00    -0.385 N 
ATOM     17  H22 UNL     1       7.493 -25.846  20.102  1.00  0.00     0.157 HD
ATOM     18  H21 UNL     1       8.249 -24.827  18.794  1.00  0.00     0.157 HD
ENDBRANCH   7  16
ENDBRANCH   1   3
BRANCH   1  19
HETATM   19  C7  UNL     1       7.532 -18.800  21.536  1.00  0.00     0.274 C 
BRANCH  19  20
HETATM   20  O1  UNL     1       8.253 -18.763  20.342  1.00  0.00    -0.371 OA
ATOM     21  H1  UNL     1       7.640 -18.717  19.617  1.00  0.00     0.212 HD
ENDBRANCH  19  20
BRANCH  19  22
HETATM   22  C8  UNL     1       8.036 -17.674  22.324  1.00  0.00     0.114 A 
HETATM   23  C9  UNL     1       7.140 -16.754  22.815  1.00  0.00     0.172 A 
HETATM   24  N4  UNL     1       7.498 -15.685  23.549  1.00  0.00    -0.293 N 
HETATM   25  C10 UNL     1       6.540 -14.733  24.055  1.00  0.00     0.162 C 
HETATM   26  C11 UNL     1       8.795 -15.502  23.821  1.00  0.00     0.317 A 
HETATM   27  O3  UNL     1       9.209 -14.516  24.509  1.00  0.00    -0.262 OA
HETATM   28  C12 UNL     1       9.694 -16.420  23.331  1.00  0.00     0.316 A 
HETATM   29  O4  UNL     1      10.923 -16.258  23.581  1.00  0.00    -0.262 OA
HETATM   30  N5  UNL     1       9.333 -17.470  22.608  1.00  0.00    -0.310 N 
HETATM   31  C13 UNL     1      10.235 -18.456  22.076  1.00  0.00     0.160 C 
BRANCH  23  32
HETATM   32  O2  UNL     1       5.755 -16.864  22.581  1.00  0.00    -0.344 OA
ATOM     33  H2  UNL     1       5.385 -16.794  21.709  1.00  0.00     0.219 HD
ENDBRANCH  23  32
ENDBRANCH  19  22
ENDBRANCH   1  19
TORSDOF 6
ENDMDL
MODEL 5
REMARK VINA RESULT: -4.884335725      1.040      1.063
REMARK  6 active torsions:
REMARK  status: ('A' for Active; 'I' for Inactive)
REMARK    1  A    between atoms: C3_5  and  N2_6 
REMARK    2  A    between atoms: C6_11  and  N3_12 
REMARK    3  A    between atoms: N3_12  and  C7_14 
REMARK    4  A    between atoms: C7_14  and  O1_15 
REMARK    5  A    between atoms: C7_14  and  C8_17 
REMARK    6  A    between atoms: C9_18  and  O2_19 
ROOT
HETATM    1  N3  UNL     1       8.141 -19.516  21.640  1.00  0.00    -0.357 N 
ATOM      2  H3  UNL     1       7.139 -19.415  21.797  1.00  0.00     0.162 HD
ENDROOT
BRANCH   1   3
HETATM    3  C6  UNL     1       8.403 -20.722  21.594  1.00  0.00     0.061 C 
HETATM    4  C5  UNL     1       8.834 -21.306  20.399  1.00  0.00    -0.020 C 
HETATM    5  C4  UNL     1       8.525 -22.601  20.008  1.00  0.00    -0.006 C 
HETATM    6  C15 UNL     1       9.667 -20.633  19.414  1.00  0.00     0.042 C 
HETATM    7  C3  UNL     1       7.968 -23.654  20.700  1.00  0.00     0.106 C 
HETATM    8  C17 UNL     1       8.917 -22.717  18.594  1.00  0.00     0.043 C 
HETATM    9  N1  UNL     1       7.807 -23.741  22.050  1.00  0.00    -0.345 N 
HETATM   10  C2  UNL     1       8.050 -22.810  22.989  1.00  0.00     0.031 C 
ATOM     11  H1  UNL     1       7.454 -24.634  22.394  1.00  0.00     0.167 HD
HETATM   12  C1  UNL     1       8.130 -23.260  24.397  1.00  0.00     0.070 C 
HETATM   13  C14 UNL     1       8.237 -21.461  22.789  1.00  0.00     0.083 C 
HETATM   14 CL1  UNL     1       8.274 -20.492  24.257  1.00  0.00    -0.080 Cl
HETATM   15  C16 UNL     1      10.140 -21.834  18.567  1.00  0.00     0.009 C 
BRANCH   7  16
HETATM   16  N2  UNL     1       7.536 -24.688  20.066  1.00  0.00    -0.385 N 
ATOM     17  H22 UNL     1       6.936 -25.366  20.539  1.00  0.00     0.157 HD
ATOM     18  H21 UNL     1       7.856 -24.732  19.098  1.00  0.00     0.157 HD
ENDBRANCH   7  16
ENDBRANCH   1   3
BRANCH   1  19
HETATM   19  C7  UNL     1       8.687 -18.267  21.559  1.00  0.00     0.274 C 
BRANCH  19  20
HETATM   20  O1  UNL     1       9.972 -18.305  22.101  1.00  0.00    -0.371 OA
ATOM     21  H1  UNL     1      10.107 -17.521  22.621  1.00  0.00     0.212 HD
ENDBRANCH  19  20
BRANCH  19  22
HETATM   22  C8  UNL     1       8.035 -17.122  22.195  1.00  0.00     0.114 A 
HETATM   23  C9  UNL     1       8.723 -15.935  22.289  1.00  0.00     0.172 A 
HETATM   24  N4  UNL     1       8.217 -14.823  22.853  1.00  0.00    -0.293 N 
HETATM   25  C10 UNL     1       8.957 -13.589  22.939  1.00  0.00     0.162 C 
HETATM   26  C11 UNL     1       6.977 -14.869  23.351  1.00  0.00     0.317 A 
HETATM   27  O3  UNL     1       6.431 -13.858  23.899  1.00  0.00    -0.262 OA
HETATM   28  C12 UNL     1       6.285 -16.054  23.260  1.00  0.00     0.316 A 
HETATM   29  O4  UNL     1       5.112 -16.109  23.728  1.00  0.00    -0.262 OA
HETATM   30  N5  UNL     1       6.792 -17.144  22.703  1.00  0.00    -0.310 N 
HETATM   31  C13 UNL     1       6.108 -18.404  22.583  1.00  0.00     0.160 C 
BRANCH  23  32
HETATM   32  O2  UNL     1      10.034 -15.791  21.792  1.00  0.00    -0.344 OA
ATOM     33  H2  UNL     1      10.366 -16.334  21.087  1.00  0.00     0.219 HD
ENDBRANCH  23  32
ENDBRANCH  19  22
ENDBRANCH   1  19
TORSDOF 6
ENDMDL
