MODEL 1
REMARK VINA RESULT: -9.028796119      0.000      0.000
REMARK  21 active torsions:
REMARK  status: ('A' for Active; 'I' for Inactive)
REMARK    1  A    between atoms: O1_1  and  C1_3 
REMARK    2  A    between atoms: C1_3  and  C2_4 
REMARK    3  A    between atoms: C3_6  and  O3_7 
REMARK    4  A    between atoms: O3_7  and  C4_8 
REMARK    5  A    between atoms: C6_10  and  C7_11 
REMARK    6  A    between atoms: C7_11  and  C8_12 
REMARK    7  A    between atoms: C9_14  and  O4_15 
REMARK    8  A    between atoms: O4_15  and  C10_16 
REMARK    9  A    between atoms: C11_18  and  C12_19 
REMARK   10  A    between atoms: C12_19  and  O6_20 
REMARK   11  A    between atoms: C13_22  and  O7_23 
REMARK   12  A    between atoms: O7_23  and  C14_24 
REMARK   13  A    between atoms: C15_26  and  C16_27 
REMARK   14  A    between atoms: C16_27  and  O9_28 
REMARK   15  A    between atoms: C17_30  and  O10_31 
REMARK   16  A    between atoms: C18_33  and  O11_34 
REMARK   17  A    between atoms: C19_36  and  O12_37 
REMARK   18  A    between atoms: C20_39  and  O13_40 
REMARK   19  A    between atoms: C21_42  and  O14_43 
REMARK   20  A    between atoms: C23_47  and  O16_48 
REMARK   21  A    between atoms: C24_50  and  O17_51 
ROOT
HETATM    1  C10 UNL     1       9.198   1.803  -0.054  1.00  0.00     0.292 C 
HETATM    2  O5  UNL     1       8.707   0.999  -1.045  1.00  0.00    -0.348 OA
HETATM    3  C11 UNL     1       9.210   1.210  -2.321  1.00  0.00     0.180 C 
HETATM    4  C13 UNL     1       9.131   2.626  -2.755  1.00  0.00     0.187 C 
HETATM    5  C20 UNL     1       9.919   3.457  -1.706  1.00  0.00     0.183 C 
HETATM    6  C21 UNL     1       9.092   3.239  -0.431  1.00  0.00     0.204 C 
ENDROOT
BRANCH   1   7
HETATM    7  O4  UNL     1      10.434   1.413   0.433  1.00  0.00    -0.351 OA
BRANCH   7   8
HETATM    8  C9  UNL     1      10.487   0.133   0.944  1.00  0.00     0.153 C 
HETATM    9  C6  UNL     1      10.236  -0.000   2.394  1.00  0.00     0.022 C 
HETATM   10  C5  UNL     1      10.138  -1.491   2.676  1.00  0.00     0.068 C 
HETATM   11  C4  UNL     1      11.378  -2.180   2.150  1.00  0.00     0.263 C 
HETATM   12  O15 UNL     1      11.574  -1.935   0.794  1.00  0.00    -0.359 OA
HETATM   13  C22 UNL     1      11.743  -0.607   0.498  1.00  0.00     0.203 C 
BRANCH   9  14
HETATM   14  C7  UNL     1      11.204   0.586   3.334  1.00  0.00     0.022 C 
BRANCH  14  15
HETATM   15  C8  UNL     1      10.956   1.972   3.814  1.00  0.00     0.115 C 
HETATM   16 CL1  UNL     1      11.944   3.133   2.888  1.00  0.00    -0.130 Cl
ENDBRANCH  14  15
ENDBRANCH   9  14
BRANCH  11  17
HETATM   17  O3  UNL     1      11.210  -3.538   2.308  1.00  0.00    -0.329 OA
BRANCH  17  18
HETATM   18  C3  UNL     1      12.394  -4.254   2.137  1.00  0.00     0.294 C 
HETATM   19  O2  UNL     1      12.468  -4.583   0.782  1.00  0.00    -0.348 OA
HETATM   20  C2  UNL     1      11.349  -5.424   0.657  1.00  0.00     0.179 C 
HETATM   21  C24 UNL     1      11.513  -6.410   1.802  1.00  0.00     0.182 C 
HETATM   22  C23 UNL     1      12.338  -5.627   2.771  1.00  0.00     0.204 C 
BRANCH  20  23
HETATM   23  C1  UNL     1      11.383  -6.186  -0.649  1.00  0.00     0.198 C 
BRANCH  23  24
HETATM   24  O1  UNL     1      10.400  -7.170  -0.697  1.00  0.00    -0.398 OA
ATOM     25  H1  UNL     1      10.151  -7.376  -1.590  1.00  0.00     0.209 HD
ENDBRANCH  23  24
ENDBRANCH  20  23
BRANCH  21  26
HETATM   26  O17 UNL     1      12.168  -7.539   1.318  1.00  0.00    -0.390 OA
ATOM     27  H17 UNL     1      11.561  -8.269   1.340  1.00  0.00     0.210 HD
ENDBRANCH  21  26
BRANCH  22  28
HETATM   28  O16 UNL     1      13.629  -6.121   2.859  1.00  0.00    -0.388 OA
ATOM     29  H16 UNL     1      14.120  -5.815   2.106  1.00  0.00     0.210 HD
ENDBRANCH  22  28
ENDBRANCH  17  18
ENDBRANCH  11  17
ENDBRANCH   7   8
ENDBRANCH   1   7
BRANCH   6  30
HETATM   30  O14 UNL     1       9.423   4.143   0.541  1.00  0.00    -0.388 OA
ATOM     31  H14 UNL     1       8.839   4.886   0.638  1.00  0.00     0.210 HD
ENDBRANCH   6  30
BRANCH   3  32
HETATM   32  C12 UNL     1      10.587   0.612  -2.496  1.00  0.00     0.198 C 
BRANCH  32  33
HETATM   33  O6  UNL     1      10.806   0.395  -3.855  1.00  0.00    -0.398 OA
ATOM     34  H6  UNL     1      11.695   0.657  -4.063  1.00  0.00     0.209 HD
ENDBRANCH  32  33
ENDBRANCH   3  32
BRANCH   5  35
HETATM   35  O13 UNL     1       9.985   4.780  -2.066  1.00  0.00    -0.390 OA
ATOM     36  H13 UNL     1      10.417   5.298  -1.397  1.00  0.00     0.210 HD
ENDBRANCH   5  35
BRANCH   4  37
HETATM   37  O7  UNL     1       9.628   2.865  -3.998  1.00  0.00    -0.348 OA
BRANCH  37  38
HETATM   38  C14 UNL     1       8.647   3.247  -4.915  1.00  0.00     0.292 C 
HETATM   39  O8  UNL     1       7.747   4.088  -4.312  1.00  0.00    -0.348 OA
HETATM   40  C15 UNL     1       7.302   5.180  -4.953  1.00  0.00     0.179 C 
HETATM   41  C17 UNL     1       8.238   5.870  -5.885  1.00  0.00     0.180 C 
HETATM   42  C18 UNL     1       9.590   5.195  -5.980  1.00  0.00     0.183 C 
HETATM   43  C19 UNL     1       9.260   3.706  -6.174  1.00  0.00     0.204 C 
BRANCH  40  44
HETATM   44  C16 UNL     1       6.030   4.840  -5.702  1.00  0.00     0.198 C 
BRANCH  44  45
HETATM   45  O9  UNL     1       5.270   5.993  -5.949  1.00  0.00    -0.398 OA
ATOM     46  H9  UNL     1       5.011   6.040  -6.862  1.00  0.00     0.209 HD
ENDBRANCH  44  45
ENDBRANCH  40  44
BRANCH  41  47
HETATM   47  O10 UNL     1       7.731   5.922  -7.185  1.00  0.00    -0.390 OA
ATOM     48  H10 UNL     1       7.664   5.057  -7.574  1.00  0.00     0.210 HD
ENDBRANCH  41  47
BRANCH  42  49
HETATM   49  O11 UNL     1      10.320   5.415  -4.842  1.00  0.00    -0.390 OA
ATOM     50  H11 UNL     1      11.095   4.866  -4.829  1.00  0.00     0.210 HD
ENDBRANCH  42  49
BRANCH  43  51
HETATM   51  O12 UNL     1      10.404   2.983  -6.455  1.00  0.00    -0.388 OA
ATOM     52  H12 UNL     1      11.142   3.309  -5.955  1.00  0.00     0.210 HD
ENDBRANCH  43  51
ENDBRANCH  37  38
ENDBRANCH   4  37
TORSDOF 21
ENDMDL
MODEL 2
REMARK VINA RESULT: -8.758668861      3.094     10.710
REMARK  21 active torsions:
REMARK  status: ('A' for Active; 'I' for Inactive)
REMARK    1  A    between atoms: O1_1  and  C1_3 
REMARK    2  A    between atoms: C1_3  and  C2_4 
REMARK    3  A    between atoms: C3_6  and  O3_7 
REMARK    4  A    between atoms: O3_7  and  C4_8 
REMARK    5  A    between atoms: C6_10  and  C7_11 
REMARK    6  A    between atoms: C7_11  and  C8_12 
REMARK    7  A    between atoms: C9_14  and  O4_15 
REMARK    8  A    between atoms: O4_15  and  C10_16 
REMARK    9  A    between atoms: C11_18  and  C12_19 
REMARK   10  A    between atoms: C12_19  and  O6_20 
REMARK   11  A    between atoms: C13_22  and  O7_23 
REMARK   12  A    between atoms: O7_23  and  C14_24 
REMARK   13  A    between atoms: C15_26  and  C16_27 
REMARK   14  A    between atoms: C16_27  and  O9_28 
REMARK   15  A    between atoms: C17_30  and  O10_31 
REMARK   16  A    between atoms: C18_33  and  O11_34 
REMARK   17  A    between atoms: C19_36  and  O12_37 
REMARK   18  A    between atoms: C20_39  and  O13_40 
REMARK   19  A    between atoms: C21_42  and  O14_43 
REMARK   20  A    between atoms: C23_47  and  O16_48 
REMARK   21  A    between atoms: C24_50  and  O17_51 
ROOT
HETATM    1  C10 UNL     1      10.695   0.656   1.104  1.00  0.00     0.292 C 
HETATM    2  O5  UNL     1       9.725   0.006   1.816  1.00  0.00    -0.348 OA
HETATM    3  C11 UNL     1      10.150  -1.019   2.650  1.00  0.00     0.180 C 
HETATM    4  C13 UNL     1      11.005  -2.017   1.962  1.00  0.00     0.187 C 
HETATM    5  C20 UNL     1      12.217  -1.239   1.382  1.00  0.00     0.183 C 
HETATM    6  C21 UNL     1      11.547  -0.311   0.359  1.00  0.00     0.204 C 
ENDROOT
BRANCH   1   7
HETATM    7  O4  UNL     1      11.386   1.612   1.829  1.00  0.00    -0.351 OA
BRANCH   7   8
HETATM    8  C9  UNL     1      11.098   2.919   1.500  1.00  0.00     0.153 C 
HETATM    9  C6  UNL     1      10.238   3.656   2.450  1.00  0.00     0.022 C 
HETATM   10  C5  UNL     1      10.238   5.105   1.991  1.00  0.00     0.068 C 
HETATM   11  C4  UNL     1       9.826   5.167   0.537  1.00  0.00     0.263 C 
HETATM   12  O15 UNL     1      10.645   4.383  -0.270  1.00  0.00    -0.359 OA
HETATM   13  C22 UNL     1      10.622   3.052   0.058  1.00  0.00     0.203 C 
BRANCH   9  14
HETATM   14  C7  UNL     1       8.842   3.223   2.619  1.00  0.00     0.022 C 
BRANCH  14  15
HETATM   15  C8  UNL     1       8.469   2.562   3.898  1.00  0.00     0.115 C 
HETATM   16 CL1  UNL     1       7.181   3.483   4.719  1.00  0.00    -0.130 Cl
ENDBRANCH  14  15
ENDBRANCH   9  14
BRANCH  11  17
HETATM   17  O3  UNL     1       9.950   6.472   0.114  1.00  0.00    -0.329 OA
BRANCH  17  18
HETATM   18  C3  UNL     1      10.780   6.605  -0.997  1.00  0.00     0.294 C 
HETATM   19  O2  UNL     1      11.706   7.603  -0.686  1.00  0.00    -0.348 OA
HETATM   20  C2  UNL     1      10.855   8.714  -0.558  1.00  0.00     0.179 C 
HETATM   21  C24 UNL     1      10.016   8.670  -1.824  1.00  0.00     0.182 C 
HETATM   22  C23 UNL     1      10.069   7.221  -2.183  1.00  0.00     0.204 C 
BRANCH  20  23
HETATM   23  C1  UNL     1      11.643  10.005  -0.543  1.00  0.00     0.198 C 
BRANCH  23  24
HETATM   24  O1  UNL     1      10.846  11.093  -0.198  1.00  0.00    -0.398 OA
ATOM     25  H1  UNL     1      11.115  11.884  -0.650  1.00  0.00     0.209 HD
ENDBRANCH  23  24
ENDBRANCH  20  23
BRANCH  21  26
HETATM   26  O17 UNL     1      10.616   9.489  -2.778  1.00  0.00    -0.390 OA
ATOM     27  H17 UNL     1      10.368   9.176  -3.639  1.00  0.00     0.210 HD
ENDBRANCH  21  26
BRANCH  22  28
HETATM   28  O16 UNL     1      10.835   7.003  -3.315  1.00  0.00    -0.388 OA
ATOM     29  H16 UNL     1      10.674   6.118  -3.622  1.00  0.00     0.210 HD
ENDBRANCH  22  28
ENDBRANCH  17  18
ENDBRANCH  11  17
ENDBRANCH   7   8
ENDBRANCH   1   7
BRANCH   6  30
HETATM   30  O14 UNL     1      12.464   0.231  -0.500  1.00  0.00    -0.388 OA
ATOM     31  H14 UNL     1      12.582  -0.222  -1.327  1.00  0.00     0.210 HD
ENDBRANCH   6  30
BRANCH   3  32
HETATM   32  C12 UNL     1      10.761  -0.496   3.929  1.00  0.00     0.198 C 
BRANCH  32  33
HETATM   33  O6  UNL     1       9.786  -0.507   4.924  1.00  0.00    -0.398 OA
ATOM     34  H6  UNL     1       9.682   0.376   5.256  1.00  0.00     0.209 HD
ENDBRANCH  32  33
ENDBRANCH   3  32
BRANCH   5  35
HETATM   35  O13 UNL     1      13.123  -2.091   0.799  1.00  0.00    -0.390 OA
ATOM     36  H13 UNL     1      13.861  -1.615   0.440  1.00  0.00     0.210 HD
ENDBRANCH   5  35
BRANCH   4  37
HETATM   37  O7  UNL     1      11.446  -3.027   2.759  1.00  0.00    -0.348 OA
BRANCH  37  38
HETATM   38  C14 UNL     1      11.035  -4.289   2.321  1.00  0.00     0.292 C 
HETATM   39  O8  UNL     1      11.097  -4.350   0.953  1.00  0.00    -0.348 OA
HETATM   40  C15 UNL     1      11.585  -5.440   0.343  1.00  0.00     0.179 C 
HETATM   41  C17 UNL     1      12.673  -6.193   1.028  1.00  0.00     0.180 C 
HETATM   42  C18 UNL     1      13.061  -5.595   2.364  1.00  0.00     0.183 C 
HETATM   43  C19 UNL     1      11.721  -5.351   3.076  1.00  0.00     0.204 C 
BRANCH  40  44
HETATM   44  C16 UNL     1      10.449  -6.396   0.037  1.00  0.00     0.198 C 
BRANCH  44  45
HETATM   45  O9  UNL     1      10.776  -7.234  -1.040  1.00  0.00    -0.398 OA
ATOM     46  H9  UNL     1      11.059  -8.087  -0.733  1.00  0.00     0.209 HD
ENDBRANCH  44  45
ENDBRANCH  40  44
BRANCH  41  47
HETATM   47  O10 UNL     1      12.311  -7.518   1.279  1.00  0.00    -0.390 OA
ATOM     48  H10 UNL     1      11.381  -7.662   1.147  1.00  0.00     0.210 HD
ENDBRANCH  41  47
BRANCH  42  49
HETATM   49  O11 UNL     1      13.767  -4.434   2.187  1.00  0.00    -0.390 OA
ATOM     50  H11 UNL     1      13.602  -4.069   1.326  1.00  0.00     0.210 HD
ENDBRANCH  42  49
BRANCH  43  51
HETATM   51  O12 UNL     1      11.924  -4.969   4.389  1.00  0.00    -0.388 OA
ATOM     52  H12 UNL     1      11.933  -5.725   4.963  1.00  0.00     0.210 HD
ENDBRANCH  43  51
ENDBRANCH  37  38
ENDBRANCH   4  37
TORSDOF 21
ENDMDL
MODEL 3
REMARK VINA RESULT: -8.709969721      4.605     10.423
REMARK  21 active torsions:
REMARK  status: ('A' for Active; 'I' for Inactive)
REMARK    1  A    between atoms: O1_1  and  C1_3 
REMARK    2  A    between atoms: C1_3  and  C2_4 
REMARK    3  A    between atoms: C3_6  and  O3_7 
REMARK    4  A    between atoms: O3_7  and  C4_8 
REMARK    5  A    between atoms: C6_10  and  C7_11 
REMARK    6  A    between atoms: C7_11  and  C8_12 
REMARK    7  A    between atoms: C9_14  and  O4_15 
REMARK    8  A    between atoms: O4_15  and  C10_16 
REMARK    9  A    between atoms: C11_18  and  C12_19 
REMARK   10  A    between atoms: C12_19  and  O6_20 
REMARK   11  A    between atoms: C13_22  and  O7_23 
REMARK   12  A    between atoms: O7_23  and  C14_24 
REMARK   13  A    between atoms: C15_26  and  C16_27 
REMARK   14  A    between atoms: C16_27  and  O9_28 
REMARK   15  A    between atoms: C17_30  and  O10_31 
REMARK   16  A    between atoms: C18_33  and  O11_34 
REMARK   17  A    between atoms: C19_36  and  O12_37 
REMARK   18  A    between atoms: C20_39  and  O13_40 
REMARK   19  A    between atoms: C21_42  and  O14_43 
REMARK   20  A    between atoms: C23_47  and  O16_48 
REMARK   21  A    between atoms: C24_50  and  O17_51 
ROOT
HETATM    1  C10 UNL     1       9.104   1.264   1.334  1.00  0.00     0.292 C 
HETATM    2  O5  UNL     1       8.805   0.190   2.125  1.00  0.00    -0.348 OA
HETATM    3  C11 UNL     1       9.880  -0.503   2.662  1.00  0.00     0.180 C 
HETATM    4  C13 UNL     1      10.883  -0.907   1.648  1.00  0.00     0.187 C 
HETATM    5  C20 UNL     1      11.360   0.397   0.951  1.00  0.00     0.183 C 
HETATM    6  C21 UNL     1      10.075   0.888   0.270  1.00  0.00     0.204 C 
ENDROOT
BRANCH   1   7
HETATM    7  O4  UNL     1       9.419   2.416   2.036  1.00  0.00    -0.351 OA
BRANCH   7   8
HETATM    8  C9  UNL     1       8.377   2.975   2.744  1.00  0.00     0.153 C 
HETATM    9  C6  UNL     1       7.913   4.301   2.284  1.00  0.00     0.022 C 
HETATM   10  C5  UNL     1       6.647   4.606   3.069  1.00  0.00     0.068 C 
HETATM   11  C4  UNL     1       6.935   4.480   4.549  1.00  0.00     0.263 C 
HETATM   12  O15 UNL     1       7.440   3.226   4.876  1.00  0.00    -0.359 OA
HETATM   13  C22 UNL     1       8.624   2.932   4.249  1.00  0.00     0.203 C 
BRANCH   9  14
HETATM   14  C7  UNL     1       8.824   5.449   2.409  1.00  0.00     0.022 C 
BRANCH  14  15
HETATM   15  C8  UNL     1       9.817   5.671   1.324  1.00  0.00     0.115 C 
HETATM   16 CL1  UNL     1       9.155   5.127  -0.241  1.00  0.00    -0.130 Cl
ENDBRANCH  14  15
ENDBRANCH   9  14
BRANCH  11  17
HETATM   17  O3  UNL     1       5.749   4.642   5.229  1.00  0.00    -0.329 OA
BRANCH  17  18
HETATM   18  C3  UNL     1       4.864   3.584   5.034  1.00  0.00     0.294 C 
HETATM   19  O2  UNL     1       3.634   4.151   4.695  1.00  0.00    -0.348 OA
HETATM   20  C2  UNL     1       3.334   4.846   5.879  1.00  0.00     0.179 C 
HETATM   21  C24 UNL     1       3.542   3.805   6.967  1.00  0.00     0.182 C 
HETATM   22  C23 UNL     1       4.516   2.872   6.324  1.00  0.00     0.204 C 
BRANCH  20  23
HETATM   23  C1  UNL     1       1.887   5.287   5.901  1.00  0.00     0.198 C 
BRANCH  23  24
HETATM   24  O1  UNL     1       1.635   6.178   6.941  1.00  0.00    -0.398 OA
ATOM     25  H1  UNL     1       2.277   6.099   7.636  1.00  0.00     0.209 HD
ENDBRANCH  23  24
ENDBRANCH  20  23
BRANCH  21  26
HETATM   26  O17 UNL     1       2.315   3.206   7.242  1.00  0.00    -0.390 OA
ATOM     27  H17 UNL     1       1.733   3.867   7.597  1.00  0.00     0.210 HD
ENDBRANCH  21  26
BRANCH  22  28
HETATM   28  O16 UNL     1       3.929   1.658   6.010  1.00  0.00    -0.388 OA
ATOM     29  H16 UNL     1       3.015   1.811   5.800  1.00  0.00     0.210 HD
ENDBRANCH  22  28
ENDBRANCH  17  18
ENDBRANCH  11  17
ENDBRANCH   7   8
ENDBRANCH   1   7
BRANCH   6  30
HETATM   30  O14 UNL     1      10.342   1.847  -0.669  1.00  0.00    -0.388 OA
ATOM     31  H14 UNL     1       9.906   1.746  -1.507  1.00  0.00     0.210 HD
ENDBRANCH   6  30
BRANCH   3  32
HETATM   32  C12 UNL     1      10.488   0.217   3.844  1.00  0.00     0.198 C 
BRANCH  32  33
HETATM   33  O6  UNL     1      10.195  -0.501   5.001  1.00  0.00    -0.398 OA
ATOM     34  H6  UNL     1       9.650   0.037   5.561  1.00  0.00     0.209 HD
ENDBRANCH  32  33
ENDBRANCH   3  32
BRANCH   5  35
HETATM   35  O13 UNL     1      12.364   0.141   0.050  1.00  0.00    -0.390 OA
ATOM     36  H13 UNL     1      12.179   0.538  -0.793  1.00  0.00     0.210 HD
ENDBRANCH   5  35
BRANCH   4  37
HETATM   37  O7  UNL     1      11.955  -1.578   2.150  1.00  0.00    -0.348 OA
BRANCH  37  38
HETATM   38  C14 UNL     1      11.662  -2.902   2.485  1.00  0.00     0.292 C 
HETATM   39  O8  UNL     1      11.749  -3.695   1.370  1.00  0.00    -0.348 OA
HETATM   40  C15 UNL     1      12.339  -4.898   1.436  1.00  0.00     0.179 C 
HETATM   41  C17 UNL     1      13.480  -5.063   2.380  1.00  0.00     0.180 C 
HETATM   42  C18 UNL     1      13.795  -3.803   3.159  1.00  0.00     0.183 C 
HETATM   43  C19 UNL     1      12.429  -3.320   3.671  1.00  0.00     0.204 C 
BRANCH  40  44
HETATM   44  C16 UNL     1      11.296  -5.954   1.742  1.00  0.00     0.198 C 
BRANCH  44  45
HETATM   45  O9  UNL     1      11.745  -7.228   1.360  1.00  0.00    -0.398 OA
ATOM     46  H9  UNL     1      12.513  -7.481   1.859  1.00  0.00     0.209 HD
ENDBRANCH  44  45
ENDBRANCH  40  44
BRANCH  41  47
HETATM   47  O10 UNL     1      13.232  -6.060   3.326  1.00  0.00    -0.390 OA
ATOM     48  H10 UNL     1      12.612  -5.774   3.987  1.00  0.00     0.210 HD
ENDBRANCH  41  47
BRANCH  42  49
HETATM   49  O11 UNL     1      14.399  -2.875   2.353  1.00  0.00    -0.390 OA
ATOM     50  H11 UNL     1      14.052  -2.921   1.470  1.00  0.00     0.210 HD
ENDBRANCH  42  49
BRANCH  43  51
HETATM   51  O12 UNL     1      12.580  -2.268   4.555  1.00  0.00    -0.388 OA
ATOM     52  H12 UNL     1      13.334  -2.403   5.116  1.00  0.00     0.210 HD
ENDBRANCH  43  51
ENDBRANCH  37  38
ENDBRANCH   4  37
TORSDOF 21
ENDMDL
MODEL 4
REMARK VINA RESULT: -8.549886998      1.393      1.650
REMARK  21 active torsions:
REMARK  status: ('A' for Active; 'I' for Inactive)
REMARK    1  A    between atoms: O1_1  and  C1_3 
REMARK    2  A    between atoms: C1_3  and  C2_4 
REMARK    3  A    between atoms: C3_6  and  O3_7 
REMARK    4  A    between atoms: O3_7  and  C4_8 
REMARK    5  A    between atoms: C6_10  and  C7_11 
REMARK    6  A    between atoms: C7_11  and  C8_12 
REMARK    7  A    between atoms: C9_14  and  O4_15 
REMARK    8  A    between atoms: O4_15  and  C10_16 
REMARK    9  A    between atoms: C11_18  and  C12_19 
REMARK   10  A    between atoms: C12_19  and  O6_20 
REMARK   11  A    between atoms: C13_22  and  O7_23 
REMARK   12  A    between atoms: O7_23  and  C14_24 
REMARK   13  A    between atoms: C15_26  and  C16_27 
REMARK   14  A    between atoms: C16_27  and  O9_28 
REMARK   15  A    between atoms: C17_30  and  O10_31 
REMARK   16  A    between atoms: C18_33  and  O11_34 
REMARK   17  A    between atoms: C19_36  and  O12_37 
REMARK   18  A    between atoms: C20_39  and  O13_40 
REMARK   19  A    between atoms: C21_42  and  O14_43 
REMARK   20  A    between atoms: C23_47  and  O16_48 
REMARK   21  A    between atoms: C24_50  and  O17_51 
ROOT
HETATM    1  C10 UNL     1       8.943   2.633  -0.407  1.00  0.00     0.292 C 
HETATM    2  O5  UNL     1       8.468   1.857  -1.428  1.00  0.00    -0.348 OA
HETATM    3  C11 UNL     1       8.818   2.242  -2.714  1.00  0.00     0.180 C 
HETATM    4  C13 UNL     1       8.516   3.666  -3.001  1.00  0.00     0.187 C 
HETATM    5  C20 UNL     1       9.287   4.504  -1.946  1.00  0.00     0.183 C 
HETATM    6  C21 UNL     1       8.619   4.068  -0.634  1.00  0.00     0.204 C 
ENDROOT
BRANCH   1   7
HETATM    7  O4  UNL     1      10.260   2.376  -0.063  1.00  0.00    -0.351 OA
BRANCH   7   8
HETATM    8  C9  UNL     1      10.521   1.081   0.330  1.00  0.00     0.153 C 
HETATM    9  C6  UNL     1      10.270   0.769   1.753  1.00  0.00     0.022 C 
HETATM   10  C5  UNL     1      10.423  -0.737   1.894  1.00  0.00     0.068 C 
HETATM   11  C4  UNL     1      11.773  -1.153   1.352  1.00  0.00     0.263 C 
HETATM   12  O15 UNL     1      11.950  -0.750   0.032  1.00  0.00    -0.359 OA
HETATM   13  C22 UNL     1      11.894   0.609  -0.137  1.00  0.00     0.203 C 
BRANCH   9  14
HETATM   14  C7  UNL     1      11.106   1.418   2.776  1.00  0.00     0.022 C 
BRANCH  14  15
HETATM   15  C8  UNL     1      10.452   1.839   4.044  1.00  0.00     0.115 C 
HETATM   16 CL1  UNL     1       8.727   2.196   3.762  1.00  0.00    -0.130 Cl
ENDBRANCH  14  15
ENDBRANCH   9  14
BRANCH  11  17
HETATM   17  O3  UNL     1      11.838  -2.528   1.380  1.00  0.00    -0.329 OA
BRANCH  17  18
HETATM   18  C3  UNL     1      13.062  -3.004   1.844  1.00  0.00     0.294 C 
HETATM   19  O2  UNL     1      13.348  -4.155   1.107  1.00  0.00    -0.348 OA
HETATM   20  C2  UNL     1      12.295  -4.992   1.515  1.00  0.00     0.179 C 
HETATM   21  C24 UNL     1      12.333  -4.899   3.032  1.00  0.00     0.182 C 
HETATM   22  C23 UNL     1      12.974  -3.566   3.246  1.00  0.00     0.204 C 
BRANCH  20  23
HETATM   23  C1  UNL     1      12.552  -6.427   1.111  1.00  0.00     0.198 C 
BRANCH  23  24
HETATM   24  O1  UNL     1      11.604  -7.292   1.651  1.00  0.00    -0.398 OA
ATOM     25  H1  UNL     1      11.675  -7.347   2.596  1.00  0.00     0.209 HD
ENDBRANCH  23  24
ENDBRANCH  20  23
BRANCH  21  26
HETATM   26  O17 UNL     1      13.099  -5.955   3.518  1.00  0.00    -0.390 OA
ATOM     27  H17 UNL     1      13.710  -6.218   2.841  1.00  0.00     0.210 HD
ENDBRANCH  21  26
BRANCH  22  28
HETATM   28  O16 UNL     1      14.257  -3.692   3.750  1.00  0.00    -0.388 OA
ATOM     29  H16 UNL     1      14.297  -4.482   4.278  1.00  0.00     0.210 HD
ENDBRANCH  22  28
ENDBRANCH  17  18
ENDBRANCH  11  17
ENDBRANCH   7   8
ENDBRANCH   1   7
BRANCH   6  30
HETATM   30  O14 UNL     1       8.921   4.924   0.390  1.00  0.00    -0.388 OA
ATOM     31  H14 UNL     1       9.819   5.233   0.426  1.00  0.00     0.210 HD
ENDBRANCH   6  30
BRANCH   3  32
HETATM   32  C12 UNL     1      10.237   1.855  -3.059  1.00  0.00     0.198 C 
BRANCH  32  33
HETATM   33  O6  UNL     1      10.347   1.758  -4.444  1.00  0.00    -0.398 OA
ATOM     34  H6  UNL     1      10.580   0.864  -4.667  1.00  0.00     0.209 HD
ENDBRANCH  32  33
ENDBRANCH   3  32
BRANCH   5  35
HETATM   35  O13 UNL     1       9.148   5.850  -2.180  1.00  0.00    -0.390 OA
ATOM     36  H13 UNL     1       9.892   6.337  -1.847  1.00  0.00     0.210 HD
ENDBRANCH   5  35
BRANCH   4  37
HETATM   37  O7  UNL     1       8.860   4.074  -4.252  1.00  0.00    -0.348 OA
BRANCH  37  38
HETATM   38  C14 UNL     1       7.754   4.375  -5.052  1.00  0.00     0.292 C 
HETATM   39  O8  UNL     1       6.816   5.050  -4.315  1.00  0.00    -0.348 OA
HETATM   40  C15 UNL     1       6.175   6.107  -4.835  1.00  0.00     0.179 C 
HETATM   41  C17 UNL     1       6.921   6.970  -5.794  1.00  0.00     0.180 C 
HETATM   42  C18 UNL     1       8.333   6.491  -6.053  1.00  0.00     0.183 C 
HETATM   43  C19 UNL     1       8.181   4.985  -6.323  1.00  0.00     0.204 C 
BRANCH  40  44
HETATM   44  C16 UNL     1       4.892   5.643  -5.494  1.00  0.00     0.198 C 
BRANCH  44  45
HETATM   45  O9  UNL     1       3.772   6.038  -4.745  1.00  0.00    -0.398 OA
ATOM     46  H9  UNL     1       3.223   5.291  -4.537  1.00  0.00     0.209 HD
ENDBRANCH  44  45
ENDBRANCH  40  44
BRANCH  41  47
HETATM   47  O10 UNL     1       6.290   7.031  -7.038  1.00  0.00    -0.390 OA
ATOM     48  H10 UNL     1       5.539   7.612  -7.026  1.00  0.00     0.210 HD
ENDBRANCH  41  47
BRANCH  42  49
HETATM   49  O11 UNL     1       9.135   6.740  -4.969  1.00  0.00    -0.390 OA
ATOM     50  H11 UNL     1       9.926   6.216  -5.010  1.00  0.00     0.210 HD
ENDBRANCH  42  49
BRANCH  43  51
HETATM   51  O12 UNL     1       9.377   4.440  -6.753  1.00  0.00    -0.388 OA
ATOM     52  H12 UNL     1      10.106   5.005  -6.526  1.00  0.00     0.210 HD
ENDBRANCH  43  51
ENDBRANCH  37  38
ENDBRANCH   4  37
TORSDOF 21
ENDMDL
MODEL 5
REMARK VINA RESULT: -8.540575630      2.079      3.441
REMARK  21 active torsions:
REMARK  status: ('A' for Active; 'I' for Inactive)
REMARK    1  A    between atoms: O1_1  and  C1_3 
REMARK    2  A    between atoms: C1_3  and  C2_4 
REMARK    3  A    between atoms: C3_6  and  O3_7 
REMARK    4  A    between atoms: O3_7  and  C4_8 
REMARK    5  A    between atoms: C6_10  and  C7_11 
REMARK    6  A    between atoms: C7_11  and  C8_12 
REMARK    7  A    between atoms: C9_14  and  O4_15 
REMARK    8  A    between atoms: O4_15  and  C10_16 
REMARK    9  A    between atoms: C11_18  and  C12_19 
REMARK   10  A    between atoms: C12_19  and  O6_20 
REMARK   11  A    between atoms: C13_22  and  O7_23 
REMARK   12  A    between atoms: O7_23  and  C14_24 
REMARK   13  A    between atoms: C15_26  and  C16_27 
REMARK   14  A    between atoms: C16_27  and  O9_28 
REMARK   15  A    between atoms: C17_30  and  O10_31 
REMARK   16  A    between atoms: C18_33  and  O11_34 
REMARK   17  A    between atoms: C19_36  and  O12_37 
REMARK   18  A    between atoms: C20_39  and  O13_40 
REMARK   19  A    between atoms: C21_42  and  O14_43 
REMARK   20  A    between atoms: C23_47  and  O16_48 
REMARK   21  A    between atoms: C24_50  and  O17_51 
ROOT
HETATM    1  C10 UNL     1      11.069   2.281  -1.958  1.00  0.00     0.292 C 
HETATM    2  O5  UNL     1      12.039   3.215  -1.718  1.00  0.00    -0.348 OA
HETATM    3  C11 UNL     1      11.661   4.545  -1.835  1.00  0.00     0.180 C 
HETATM    4  C13 UNL     1      10.992   4.853  -3.122  1.00  0.00     0.187 C 
HETATM    5  C20 UNL     1       9.756   3.918  -3.215  1.00  0.00     0.183 C 
HETATM    6  C21 UNL     1      10.404   2.527  -3.266  1.00  0.00     0.204 C 
ENDROOT
BRANCH   1   7
HETATM    7  O4  UNL     1      10.209   2.070  -0.893  1.00  0.00    -0.351 OA
BRANCH   7   8
HETATM    8  C9  UNL     1      10.429   0.909  -0.183  1.00  0.00     0.153 C 
HETATM    9  C6  UNL     1      10.340   1.017   1.289  1.00  0.00     0.022 C 
HETATM   10  C5  UNL     1      10.406  -0.404   1.827  1.00  0.00     0.068 C 
HETATM   11  C4  UNL     1      11.645  -1.083   1.286  1.00  0.00     0.263 C 
HETATM   12  O15 UNL     1      11.681  -1.069  -0.105  1.00  0.00    -0.359 OA
HETATM   13  C22 UNL     1      11.697   0.194  -0.639  1.00  0.00     0.203 C 
BRANCH   9  14
HETATM   14  C7  UNL     1      11.339   1.829   1.999  1.00  0.00     0.022 C 
BRANCH  14  15
HETATM   15  C8  UNL     1      11.051   2.212   3.407  1.00  0.00     0.115 C 
HETATM   16 CL1  UNL     1       9.296   2.426   3.644  1.00  0.00    -0.130 Cl
ENDBRANCH  14  15
ENDBRANCH   9  14
BRANCH  11  17
HETATM   17  O3  UNL     1      11.619  -2.399   1.688  1.00  0.00    -0.329 OA
BRANCH  17  18
HETATM   18  C3  UNL     1      12.878  -2.886   2.036  1.00  0.00     0.294 C 
HETATM   19  O2  UNL     1      13.133  -3.968   1.193  1.00  0.00    -0.348 OA
HETATM   20  C2  UNL     1      12.122  -4.857   1.598  1.00  0.00     0.179 C 
HETATM   21  C24 UNL     1      12.254  -4.883   3.112  1.00  0.00     0.182 C 
HETATM   22  C23 UNL     1      12.887  -3.558   3.392  1.00  0.00     0.204 C 
BRANCH  20  23
HETATM   23  C1  UNL     1      12.374  -6.250   1.065  1.00  0.00     0.198 C 
BRANCH  23  24
HETATM   24  O1  UNL     1      11.502  -7.181   1.621  1.00  0.00    -0.398 OA
ATOM     25  H1  UNL     1      11.154  -6.884   2.453  1.00  0.00     0.209 HD
ENDBRANCH  23  24
ENDBRANCH  20  23
BRANCH  21  26
HETATM   26  O17 UNL     1      13.066  -5.958   3.463  1.00  0.00    -0.390 OA
ATOM     27  H17 UNL     1      13.861  -5.617   3.855  1.00  0.00     0.210 HD
ENDBRANCH  21  26
BRANCH  22  28
HETATM   28  O16 UNL     1      14.202  -3.697   3.803  1.00  0.00    -0.388 OA
ATOM     29  H16 UNL     1      14.325  -3.186   4.595  1.00  0.00     0.210 HD
ENDBRANCH  22  28
ENDBRANCH  17  18
ENDBRANCH  11  17
ENDBRANCH   7   8
ENDBRANCH   1   7
BRANCH   6  30
HETATM   30  O14 UNL     1       9.512   1.575  -3.678  1.00  0.00    -0.388 OA
ATOM     31  H14 UNL     1       8.969   1.804  -4.423  1.00  0.00     0.210 HD
ENDBRANCH   6  30
BRANCH   3  32
HETATM   32  C12 UNL     1      10.881   5.024  -0.632  1.00  0.00     0.198 C 
BRANCH  32  33
HETATM   33  O6  UNL     1      11.768   5.214   0.425  1.00  0.00    -0.398 OA
ATOM     34  H6  UNL     1      11.701   4.471   1.014  1.00  0.00     0.209 HD
ENDBRANCH  32  33
ENDBRANCH   3  32
BRANCH   5  35
HETATM   35  O13 UNL     1       9.010   4.188  -4.337  1.00  0.00    -0.390 OA
ATOM     36  H13 UNL     1       8.189   3.712  -4.327  1.00  0.00     0.210 HD
ENDBRANCH   5  35
BRANCH   4  37
HETATM   37  O7  UNL     1      10.600   6.149  -3.259  1.00  0.00    -0.348 OA
BRANCH  37  38
HETATM   38  C14 UNL     1      11.216   6.795  -4.333  1.00  0.00     0.292 C 
HETATM   39  O8  UNL     1      11.277   5.952  -5.413  1.00  0.00    -0.348 OA
HETATM   40  C15 UNL     1      10.996   6.404  -6.644  1.00  0.00     0.179 C 
HETATM   41  C17 UNL     1       9.969   7.476  -6.776  1.00  0.00     0.180 C 
HETATM   42  C18 UNL     1       9.393   7.915  -5.446  1.00  0.00     0.183 C 
HETATM   43  C19 UNL     1      10.623   8.127  -4.549  1.00  0.00     0.204 C 
BRANCH  40  44
HETATM   44  C16 UNL     1      12.274   6.870  -7.313  1.00  0.00     0.198 C 
BRANCH  44  45
HETATM   45  O9  UNL     1      12.338   6.419  -8.640  1.00  0.00    -0.398 OA
ATOM     46  H9  UNL     1      13.049   6.842  -9.108  1.00  0.00     0.209 HD
ENDBRANCH  44  45
ENDBRANCH  40  44
BRANCH  41  47
HETATM   47  O10 UNL     1      10.488   8.623  -7.379  1.00  0.00    -0.390 OA
ATOM     48  H10 UNL     1      10.370   8.611  -8.322  1.00  0.00     0.210 HD
ENDBRANCH  41  47
BRANCH  42  49
HETATM   49  O11 UNL     1       8.550   6.958  -4.945  1.00  0.00    -0.390 OA
ATOM     50  H11 UNL     1       8.844   6.666  -4.090  1.00  0.00     0.210 HD
ENDBRANCH  42  49
BRANCH  43  51
HETATM   51  O12 UNL     1      10.260   8.704  -3.347  1.00  0.00    -0.388 OA
ATOM     52  H12 UNL     1       9.545   9.317  -3.468  1.00  0.00     0.210 HD
ENDBRANCH  43  51
ENDBRANCH  37  38
ENDBRANCH   4  37
TORSDOF 21
ENDMDL
