MODEL 1
REMARK VINA RESULT: -4.870574422      0.000      0.000
REMARK  3 active torsions:
REMARK  status: ('A' for Active; 'I' for Inactive)
REMARK    1  A    between atoms: C4_4  and  N1_5 
REMARK    2  A    between atoms: N1_5  and  C5_7 
REMARK    3  A    between atoms: C5_7  and  N2_9 
ROOT
HETATM    1  N2  UNL     1      24.273   1.920   4.288  1.00  0.00    -0.351 N 
HETATM    2  C6  UNL     1      23.636   1.642   2.986  1.00  0.00     0.151 C 
HETATM    3  C7  UNL     1      24.771   1.021   2.161  1.00  0.00     0.191 C 
HETATM    4  O1  UNL     1      25.949   1.696   2.463  1.00  0.00    -0.352 OA
HETATM    5  C8  UNL     1      26.531   1.233   3.658  1.00  0.00     0.180 C 
HETATM    6  C9  UNL     1      27.254  -0.038   3.354  1.00  0.00     0.070 C 
HETATM    7  C10 UNL     1      28.642   0.247   2.839  1.00  0.00     0.007 C 
HETATM    8  C11 UNL     1      29.424   0.899   3.959  1.00  0.00     0.026 C 
HETATM    9  C12 UNL     1      28.471   1.635   4.843  1.00  0.00     0.171 C 
HETATM   10  O2  UNL     1      27.387   2.174   4.171  1.00  0.00    -0.353 OA
HETATM   11  C13 UNL     1      25.362   1.042   4.613  1.00  0.00     0.193 C 
ENDROOT
BRANCH   1  12
HETATM   12  C5  UNL     1      23.778   2.985   5.075  1.00  0.00     0.170 C 
HETATM   13  S1  UNL     1      23.324   2.672   6.642  1.00  0.00    -0.041 SA
BRANCH  12  14
HETATM   14  N1  UNL     1      23.633   4.320   4.630  1.00  0.00    -0.362 N 
ATOM     15  H1  UNL     1      22.687   4.637   4.420  1.00  0.00     0.162 HD
BRANCH  14  16
HETATM   16  C4  UNL     1      24.684   5.261   4.447  1.00  0.00     0.088 C 
HETATM   17  C3  UNL     1      25.739   4.867   3.445  1.00  0.00     0.056 C 
HETATM   18  C2  UNL     1      26.987   5.664   3.832  1.00  0.00     0.119 C 
HETATM   19  C1  UNL     1      28.097   5.491   2.839  1.00  0.00     0.039 C 
HETATM   20  O3  UNL     1      26.647   6.980   4.070  1.00  0.00    -0.386 OA
HETATM   21  C15 UNL     1      25.449   7.390   3.530  1.00  0.00     0.170 C 
HETATM   22  C14 UNL     1      24.257   6.653   4.111  1.00  0.00     0.051 C 
ENDBRANCH  14  16
ENDBRANCH  12  14
ENDBRANCH   1  12
TORSDOF 3
ENDMDL
MODEL 2
REMARK VINA RESULT: -4.846411584      2.082      5.718
REMARK  3 active torsions:
REMARK  status: ('A' for Active; 'I' for Inactive)
REMARK    1  A    between atoms: C4_4  and  N1_5 
REMARK    2  A    between atoms: N1_5  and  C5_7 
REMARK    3  A    between atoms: C5_7  and  N2_9 
ROOT
HETATM    1  N2  UNL     1      24.502   2.401   3.959  1.00  0.00    -0.351 N 
HETATM    2  C6  UNL     1      23.571   2.126   5.071  1.00  0.00     0.151 C 
HETATM    3  C7  UNL     1      23.266   3.522   5.632  1.00  0.00     0.191 C 
HETATM    4  O1  UNL     1      24.438   4.269   5.601  1.00  0.00    -0.352 OA
HETATM    5  C8  UNL     1      24.687   4.810   4.325  1.00  0.00     0.180 C 
HETATM    6  C9  UNL     1      23.827   6.019   4.163  1.00  0.00     0.070 C 
HETATM    7  C10 UNL     1      24.494   7.233   4.760  1.00  0.00     0.007 C 
HETATM    8  C11 UNL     1      25.743   7.514   3.953  1.00  0.00     0.026 C 
HETATM    9  C12 UNL     1      26.243   6.229   3.379  1.00  0.00     0.171 C 
HETATM   10  O2  UNL     1      26.013   5.129   4.188  1.00  0.00    -0.353 OA
HETATM   11  C13 UNL     1      24.335   3.693   3.353  1.00  0.00     0.193 C 
ENDROOT
BRANCH   1  12
HETATM   12  C5  UNL     1      25.443   1.410   3.597  1.00  0.00     0.170 C 
HETATM   13  S1  UNL     1      25.727   1.132   1.985  1.00  0.00    -0.041 SA
BRANCH  12  14
HETATM   14  N1  UNL     1      26.177   0.620   4.513  1.00  0.00    -0.362 N 
ATOM     15  H1  UNL     1      25.647   0.157   5.252  1.00  0.00     0.162 HD
BRANCH  14  16
HETATM   16  C4  UNL     1      27.584   0.410   4.501  1.00  0.00     0.088 C 
HETATM   17  C3  UNL     1      28.069  -0.671   3.571  1.00  0.00     0.056 C 
HETATM   18  C2  UNL     1      29.424  -1.113   4.130  1.00  0.00     0.119 C 
HETATM   19  C1  UNL     1      30.111  -2.096   3.230  1.00  0.00     0.039 C 
HETATM   20  O3  UNL     1      30.187  -0.005   4.439  1.00  0.00    -0.386 OA
HETATM   21  C15 UNL     1      29.805   1.167   3.826  1.00  0.00     0.170 C 
HETATM   22  C14 UNL     1      28.418   1.623   4.238  1.00  0.00     0.051 C 
ENDBRANCH  14  16
ENDBRANCH  12  14
ENDBRANCH   1  12
TORSDOF 3
ENDMDL
MODEL 3
REMARK VINA RESULT: -4.832120504      2.205      3.401
REMARK  3 active torsions:
REMARK  status: ('A' for Active; 'I' for Inactive)
REMARK    1  A    between atoms: C4_4  and  N1_5 
REMARK    2  A    between atoms: N1_5  and  C5_7 
REMARK    3  A    between atoms: C5_7  and  N2_9 
ROOT
HETATM    1  N2  UNL     1      27.370   1.799   4.357  1.00  0.00    -0.351 N 
HETATM    2  C6  UNL     1      27.856   2.355   5.634  1.00  0.00     0.151 C 
HETATM    3  C7  UNL     1      29.072   1.478   5.963  1.00  0.00     0.191 C 
HETATM    4  O1  UNL     1      28.773   0.168   5.606  1.00  0.00    -0.352 OA
HETATM    5  C8  UNL     1      28.953  -0.057   4.227  1.00  0.00     0.180 C 
HETATM    6  C9  UNL     1      30.413  -0.247   3.980  1.00  0.00     0.070 C 
HETATM    7  C10 UNL     1      30.815  -1.680   4.222  1.00  0.00     0.007 C 
HETATM    8  C11 UNL     1      30.115  -2.535   3.188  1.00  0.00     0.026 C 
HETATM    9  C12 UNL     1      28.839  -1.864   2.795  1.00  0.00     0.171 C 
HETATM   10  O2  UNL     1      28.240  -1.157   3.823  1.00  0.00    -0.353 OA
HETATM   11  C13 UNL     1      28.389   1.184   3.553  1.00  0.00     0.193 C 
ENDROOT
BRANCH   1  12
HETATM   12  C5  UNL     1      25.996   1.912   4.043  1.00  0.00     0.170 C 
HETATM   13  S1  UNL     1      25.450   1.266   2.614  1.00  0.00    -0.041 SA
BRANCH  12  14
HETATM   14  N1  UNL     1      25.029   2.544   4.861  1.00  0.00    -0.362 N 
ATOM     15  H1  UNL     1      24.589   1.971   5.581  1.00  0.00     0.162 HD
BRANCH  14  16
HETATM   16  C4  UNL     1      24.615   3.902   4.774  1.00  0.00     0.088 C 
HETATM   17  C3  UNL     1      25.483   4.789   3.919  1.00  0.00     0.056 C 
HETATM   18  C2  UNL     1      25.235   6.213   4.426  1.00  0.00     0.119 C 
HETATM   19  C1  UNL     1      25.923   7.240   3.578  1.00  0.00     0.039 C 
HETATM   20  O3  UNL     1      23.880   6.426   4.577  1.00  0.00    -0.386 OA
HETATM   21  C15 UNL     1      23.062   5.562   3.884  1.00  0.00     0.170 C 
HETATM   22  C14 UNL     1      23.201   4.123   4.344  1.00  0.00     0.051 C 
ENDBRANCH  14  16
ENDBRANCH  12  14
ENDBRANCH   1  12
TORSDOF 3
ENDMDL
MODEL 4
REMARK VINA RESULT: -4.801101803      2.042      6.057
REMARK  3 active torsions:
REMARK  status: ('A' for Active; 'I' for Inactive)
REMARK    1  A    between atoms: C4_4  and  N1_5 
REMARK    2  A    between atoms: N1_5  and  C5_7 
REMARK    3  A    between atoms: C5_7  and  N2_9 
ROOT
HETATM    1  N2  UNL     1      26.375   3.163   3.654  1.00  0.00    -0.351 N 
HETATM    2  C6  UNL     1      27.633   3.350   2.905  1.00  0.00     0.151 C 
HETATM    3  C7  UNL     1      27.785   4.876   2.842  1.00  0.00     0.191 C 
HETATM    4  O1  UNL     1      26.526   5.432   2.644  1.00  0.00    -0.352 OA
HETATM    5  C8  UNL     1      25.796   5.529   3.844  1.00  0.00     0.180 C 
HETATM    6  C9  UNL     1      26.288   6.729   4.584  1.00  0.00     0.070 C 
HETATM    7  C10 UNL     1      25.586   7.975   4.107  1.00  0.00     0.007 C 
HETATM    8  C11 UNL     1      24.122   7.847   4.471  1.00  0.00     0.026 C 
HETATM    9  C12 UNL     1      23.762   6.398   4.504  1.00  0.00     0.171 C 
HETATM   10  O2  UNL     1      24.454   5.629   3.583  1.00  0.00    -0.353 OA
HETATM   11  C13 UNL     1      26.071   4.223   4.575  1.00  0.00     0.193 C 
ENDROOT
BRANCH   1  12
HETATM   12  C5  UNL     1      25.604   2.003   3.413  1.00  0.00     0.170 C 
HETATM   13  S1  UNL     1      23.958   2.084   3.616  1.00  0.00    -0.041 SA
BRANCH  12  14
HETATM   14  N1  UNL     1      26.130   0.753   3.006  1.00  0.00    -0.362 N 
ATOM     15  H1  UNL     1      25.506   0.138   2.484  1.00  0.00     0.162 HD
BRANCH  14  16
HETATM   16  C4  UNL     1      27.447   0.276   3.256  1.00  0.00     0.088 C 
HETATM   17  C3  UNL     1      27.840   0.193   4.708  1.00  0.00     0.056 C 
HETATM   18  C2  UNL     1      29.370   0.248   4.721  1.00  0.00     0.119 C 
HETATM   19  C1  UNL     1      29.930   0.031   6.095  1.00  0.00     0.039 C 
HETATM   20  O3  UNL     1      29.877  -0.611   3.766  1.00  0.00    -0.386 OA
HETATM   21  C15 UNL     1      29.014  -1.594   3.335  1.00  0.00     0.170 C 
HETATM   22  C14 UNL     1      27.791  -1.037   2.631  1.00  0.00     0.051 C 
ENDBRANCH  14  16
ENDBRANCH  12  14
ENDBRANCH   1  12
TORSDOF 3
ENDMDL
MODEL 5
REMARK VINA RESULT: -4.622194574      2.346      6.315
REMARK  3 active torsions:
REMARK  status: ('A' for Active; 'I' for Inactive)
REMARK    1  A    between atoms: C4_4  and  N1_5 
REMARK    2  A    between atoms: N1_5  and  C5_7 
REMARK    3  A    between atoms: C5_7  and  N2_9 
ROOT
HETATM    1  N2  UNL     1      26.137   3.004   3.832  1.00  0.00    -0.351 N 
HETATM    2  C6  UNL     1      25.011   2.228   4.389  1.00  0.00     0.151 C 
HETATM    3  C7  UNL     1      23.975   3.305   4.736  1.00  0.00     0.191 C 
HETATM    4  O1  UNL     1      24.647   4.409   5.246  1.00  0.00    -0.352 OA
HETATM    5  C8  UNL     1      25.183   5.219   4.226  1.00  0.00     0.180 C 
HETATM    6  C9  UNL     1      24.076   6.057   3.677  1.00  0.00     0.070 C 
HETATM    7  C10 UNL     1      23.887   7.302   4.506  1.00  0.00     0.007 C 
HETATM    8  C11 UNL     1      25.138   8.142   4.367  1.00  0.00     0.026 C 
HETATM    9  C12 UNL     1      26.296   7.237   4.098  1.00  0.00     0.171 C 
HETATM   10  O2  UNL     1      26.196   6.002   4.717  1.00  0.00    -0.353 OA
HETATM   11  C13 UNL     1      25.752   4.240   3.210  1.00  0.00     0.193 C 
ENDROOT
BRANCH   1  12
HETATM   12  C5  UNL     1      27.447   2.487   3.954  1.00  0.00     0.170 C 
HETATM   13  S1  UNL     1      28.308   2.819   5.334  1.00  0.00    -0.041 SA
BRANCH  12  14
HETATM   14  N1  UNL     1      28.098   1.697   2.977  1.00  0.00    -0.362 N 
ATOM     15  H1  UNL     1      28.536   2.192   2.200  1.00  0.00     0.162 HD
BRANCH  14  16
HETATM   16  C4  UNL     1      28.199   0.278   2.978  1.00  0.00     0.088 C 
HETATM   17  C3  UNL     1      29.439  -0.282   3.626  1.00  0.00     0.056 C 
HETATM   18  C2  UNL     1      29.627  -1.672   3.013  1.00  0.00     0.119 C 
HETATM   19  C1  UNL     1      30.748  -2.427   3.662  1.00  0.00     0.039 C 
HETATM   20  O3  UNL     1      28.423  -2.349   3.010  1.00  0.00    -0.386 OA
HETATM   21  C15 UNL     1      27.472  -1.869   3.882  1.00  0.00     0.170 C 
HETATM   22  C14 UNL     1      27.032  -0.455   3.555  1.00  0.00     0.051 C 
ENDBRANCH  14  16
ENDBRANCH  12  14
ENDBRANCH   1  12
TORSDOF 3
ENDMDL
