MODEL 1
REMARK VINA RESULT: -9.915562048      0.000      0.000
REMARK  10 active torsions:
REMARK  status: ('A' for Active; 'I' for Inactive)
REMARK       I    between atoms: C1_4  and  N3_6 
REMARK    1  A    between atoms: N3_6  and  C2_8 
REMARK    2  A    between atoms: C5_11  and  C6_12 
REMARK    3  A    between atoms: C6_12  and  C7_13 
REMARK    4  A    between atoms: C7_13  and  N4_14 
REMARK    5  A    between atoms: C7_13  and  N8_25 
REMARK       I    between atoms: N8_25  and  C12_27 
REMARK    6  A    between atoms: C12_27  and  C13_29 
REMARK    7  A    between atoms: C13_29  and  S1_30 
REMARK    8  A    between atoms: S1_30  and  C14_31 
REMARK    9  A    between atoms: N11_36  and  C15_37 
REMARK   10  A    between atoms: C20_46  and  O3_47 
ROOT
HETATM    1  C7  UNL     1     223.069 -64.627  -5.187  1.00  0.00     0.189 C 
ENDROOT
BRANCH   1   2
HETATM    2  C6  UNL     1     224.038 -65.555  -5.908  1.00  0.00     0.085 C 
BRANCH   2   3
HETATM    3  C5  UNL     1     223.370 -66.795  -6.369  1.00  0.00    -0.052 A 
HETATM    4  C4  UNL     1     222.061 -66.863  -6.790  1.00  0.00     0.010 A 
HETATM    5  C3  UNL     1     221.445 -68.022  -7.226  1.00  0.00     0.033 A 
HETATM    6  C2  UNL     1     222.162 -69.201  -7.254  1.00  0.00     0.068 A 
HETATM    7  C20 UNL     1     223.489 -69.143  -6.830  1.00  0.00     0.092 A 
HETATM    8  C19 UNL     1     224.088 -67.984  -6.398  1.00  0.00     0.046 A 
BRANCH   6   9
HETATM    9  N3  UNL     1     221.584 -70.411  -7.698  1.00  0.00    -0.329 N 
HETATM   10  C1  UNL     1     221.618 -70.758  -9.075  1.00  0.00     0.186 C 
HETATM   11  N1  UNL     1     222.725 -71.125  -9.664  1.00  0.00    -0.373 N 
HETATM   12  N2  UNL     1     220.460 -70.723  -9.880  1.00  0.00    -0.064 NA
ATOM     13  H12 UNL     1     222.749 -71.374 -10.652  1.00  0.00     0.158 HD
ATOM     14  H11 UNL     1     223.562 -71.149  -9.081  1.00  0.00     0.158 HD
ATOM     15  H3  UNL     1     221.141 -71.039  -7.027  1.00  0.00     0.168 HD
ENDBRANCH   6   9
BRANCH   7  16
HETATM   16  O3  UNL     1     224.199 -70.343  -6.863  1.00  0.00    -0.358 OA
ATOM     17  H3  UNL     1     224.429 -70.671  -7.725  1.00  0.00     0.217 HD
ENDBRANCH   7  16
ENDBRANCH   2   3
ENDBRANCH   1   2
BRANCH   1  18
HETATM   18  N4  UNL     1     223.649 -63.546  -4.540  1.00  0.00    -0.357 N 
HETATM   19  C8  UNL     1     224.352 -63.302  -3.544  1.00  0.00     0.104 C 
HETATM   20  N5  UNL     1     224.756 -61.947  -3.211  1.00  0.00    -0.314 N 
HETATM   21  C11 UNL     1     224.911 -64.192  -2.524  1.00  0.00     0.192 C 
HETATM   22  C9  UNL     1     225.551 -61.959  -2.051  1.00  0.00     0.245 C 
ATOM     23  H5  UNL     1     224.502 -61.113  -3.739  1.00  0.00     0.170 HD
HETATM   24  O1  UNL     1     225.919 -60.962  -1.360  1.00  0.00    -0.271 OA
HETATM   25  C10 UNL     1     225.908 -63.344  -1.746  1.00  0.00     0.215 C 
HETATM   26  N6  UNL     1     226.883 -63.933  -2.605  1.00  0.00    -0.131 NA
HETATM   27  N7  UNL     1     226.026 -65.014  -2.836  1.00  0.00    -0.133 NA
ATOM     28  H4  UNL     1     223.431 -62.681  -5.036  1.00  0.00     0.163 HD
ENDBRANCH   1  18
BRANCH   1  29
HETATM   29  N8  UNL     1     222.219 -65.386  -4.292  1.00  0.00    -0.339 N 
HETATM   30  C12 UNL     1     220.855 -65.037  -4.020  1.00  0.00     0.228 C 
HETATM   31  O2  UNL     1     220.415 -64.027  -4.609  1.00  0.00    -0.273 OA
ATOM     32  H8  UNL     1     222.611 -66.209  -3.833  1.00  0.00     0.164 HD
BRANCH  30  33
HETATM   33  C13 UNL     1     220.029 -65.843  -3.092  1.00  0.00     0.185 C 
BRANCH  33  34
HETATM   34  S1  UNL     1     220.491 -65.668  -1.359  1.00  0.00    -0.082 SA
BRANCH  34  35
HETATM   35  C14 UNL     1     221.126 -64.020  -1.090  1.00  0.00     0.176 A 
HETATM   36  N9  UNL     1     220.853 -62.916  -1.808  1.00  0.00    -0.263 N 
HETATM   37  N10 UNL     1     221.481 -61.898  -1.298  1.00  0.00    -0.222 N 
ATOM     38  H9  UNL     1     220.247 -62.883  -2.627  1.00  0.00     0.190 HD
HETATM   39  N11 UNL     1     222.178 -62.319  -0.233  1.00  0.00    -0.194 N 
ATOM     40  H10 UNL     1     221.448 -60.940  -1.648  1.00  0.00     0.210 HD
HETATM   41  N13 UNL     1     221.964 -63.611  -0.107  1.00  0.00    -0.259 N 
ATOM     42  H13 UNL     1     222.365 -64.209   0.616  1.00  0.00     0.191 HD
BRANCH  39  43
HETATM   43  C15 UNL     1     222.966 -61.389   0.547  1.00  0.00     0.225 C 
HETATM   44  C16 UNL     1     222.257 -60.884   1.780  1.00  0.00     0.055 C 
HETATM   45  C17 UNL     1     222.929 -59.512   1.951  1.00  0.00     0.048 C 
HETATM   46  C18 UNL     1     223.180 -59.152   0.527  1.00  0.00     0.058 C 
HETATM   47  N12 UNL     1     223.194 -60.184  -0.200  1.00  0.00    -0.379 N 
ATOM     48  H12 UNL     1     223.350 -60.163  -1.208  1.00  0.00     0.160 HD
ENDBRANCH  39  43
ENDBRANCH  34  35
ENDBRANCH  33  34
ENDBRANCH  30  33
ENDBRANCH   1  29
TORSDOF 10
ENDMDL
MODEL 2
REMARK VINA RESULT: -9.684826905      2.047      3.878
REMARK  10 active torsions:
REMARK  status: ('A' for Active; 'I' for Inactive)
REMARK       I    between atoms: C1_4  and  N3_6 
REMARK    1  A    between atoms: N3_6  and  C2_8 
REMARK    2  A    between atoms: C5_11  and  C6_12 
REMARK    3  A    between atoms: C6_12  and  C7_13 
REMARK    4  A    between atoms: C7_13  and  N4_14 
REMARK    5  A    between atoms: C7_13  and  N8_25 
REMARK       I    between atoms: N8_25  and  C12_27 
REMARK    6  A    between atoms: C12_27  and  C13_29 
REMARK    7  A    between atoms: C13_29  and  S1_30 
REMARK    8  A    between atoms: S1_30  and  C14_31 
REMARK    9  A    between atoms: N11_36  and  C15_37 
REMARK   10  A    between atoms: C20_46  and  O3_47 
ROOT
HETATM    1  C7  UNL     1     224.257 -65.023  -4.486  1.00  0.00     0.189 C 
ENDROOT
BRANCH   1   2
HETATM    2  C6  UNL     1     224.865 -65.328  -5.848  1.00  0.00     0.085 C 
BRANCH   2   3
HETATM    3  C5  UNL     1     224.474 -66.672  -6.335  1.00  0.00    -0.052 A 
HETATM    4  C4  UNL     1     223.447 -67.422  -5.808  1.00  0.00     0.010 A 
HETATM    5  C3  UNL     1     223.082 -68.673  -6.273  1.00  0.00     0.033 A 
HETATM    6  C2  UNL     1     223.771 -69.231  -7.330  1.00  0.00     0.068 A 
HETATM    7  C20 UNL     1     224.813 -68.480  -7.871  1.00  0.00     0.092 A 
HETATM    8  C19 UNL     1     225.166 -67.238  -7.399  1.00  0.00     0.046 A 
BRANCH   6   9
HETATM    9  N3  UNL     1     223.434 -70.501  -7.848  1.00  0.00    -0.329 N 
HETATM   10  C1  UNL     1     222.676 -70.608  -9.044  1.00  0.00     0.186 C 
HETATM   11  N1  UNL     1     223.188 -70.321 -10.210  1.00  0.00    -0.373 N 
HETATM   12  N2  UNL     1     221.329 -71.030  -9.037  1.00  0.00    -0.064 NA
ATOM     13  H12 UNL     1     222.644 -70.399 -11.069  1.00  0.00     0.158 HD
ATOM     14  H11 UNL     1     224.162 -70.016 -10.215  1.00  0.00     0.158 HD
ATOM     15  H3  UNL     1     223.737 -71.345  -7.361  1.00  0.00     0.168 HD
ENDBRANCH   6   9
BRANCH   7  16
HETATM   16  O3  UNL     1     225.500 -69.058  -8.938  1.00  0.00    -0.358 OA
ATOM     17  H3  UNL     1     225.410 -69.999  -9.034  1.00  0.00     0.217 HD
ENDBRANCH   7  16
ENDBRANCH   2   3
ENDBRANCH   1   2
BRANCH   1  18
HETATM   18  N4  UNL     1     222.875 -64.903  -4.463  1.00  0.00    -0.357 N 
HETATM   19  C8  UNL     1     221.927 -65.011  -3.665  1.00  0.00     0.104 C 
HETATM   20  N5  UNL     1     220.554 -64.786  -4.081  1.00  0.00    -0.314 N 
HETATM   21  C11 UNL     1     221.906 -65.360  -2.243  1.00  0.00     0.192 C 
HETATM   22  C9  UNL     1     219.690 -64.960  -2.985  1.00  0.00     0.245 C 
ATOM     23  H5  UNL     1     220.260 -64.539  -5.026  1.00  0.00     0.170 HD
HETATM   24  O1  UNL     1     218.424 -65.036  -3.007  1.00  0.00    -0.271 OA
HETATM   25  C10 UNL     1     220.495 -65.041  -1.767  1.00  0.00     0.215 C 
HETATM   26  N6  UNL     1     221.063 -63.811  -1.320  1.00  0.00    -0.131 NA
HETATM   27  N7  UNL     1     222.326 -64.410  -1.274  1.00  0.00    -0.133 NA
ATOM     28  H4  UNL     1     222.529 -64.648  -5.387  1.00  0.00     0.163 HD
ENDBRANCH   1  18
BRANCH   1  29
HETATM   29  N8  UNL     1     224.898 -63.864  -3.898  1.00  0.00    -0.339 N 
HETATM   30  C12 UNL     1     225.675 -63.923  -2.694  1.00  0.00     0.228 C 
HETATM   31  O2  UNL     1     225.784 -65.048  -2.161  1.00  0.00    -0.273 OA
ATOM     32  H8  UNL     1     224.792 -62.963  -4.363  1.00  0.00     0.164 HD
BRANCH  30  33
HETATM   33  C13 UNL     1     226.307 -62.708  -2.130  1.00  0.00     0.185 C 
BRANCH  33  34
HETATM   34  S1  UNL     1     225.314 -61.215  -2.308  1.00  0.00    -0.082 SA
BRANCH  34  35
HETATM   35  C14 UNL     1     223.927 -61.301  -1.184  1.00  0.00     0.176 A 
HETATM   36  N9  UNL     1     222.647 -60.987  -1.447  1.00  0.00    -0.263 N 
HETATM   37  N10 UNL     1     221.920 -61.199  -0.389  1.00  0.00    -0.222 N 
ATOM     38  H9  UNL     1     222.300 -60.635  -2.338  1.00  0.00     0.190 HD
HETATM   39  N11 UNL     1     222.715 -61.658   0.587  1.00  0.00    -0.194 N 
ATOM     40  H10 UNL     1     220.914 -61.044  -0.316  1.00  0.00     0.210 HD
HETATM   41  N13 UNL     1     223.937 -61.720   0.105  1.00  0.00    -0.259 N 
ATOM     42  H13 UNL     1     224.761 -62.032   0.620  1.00  0.00     0.191 HD
BRANCH  39  43
HETATM   43  C15 UNL     1     222.169 -61.999   1.883  1.00  0.00     0.225 C 
HETATM   44  C16 UNL     1     223.211 -62.101   2.970  1.00  0.00     0.055 C 
HETATM   45  C17 UNL     1     222.535 -63.106   3.917  1.00  0.00     0.048 C 
HETATM   46  C18 UNL     1     221.793 -63.948   2.937  1.00  0.00     0.058 C 
HETATM   47  N12 UNL     1     221.613 -63.322   1.856  1.00  0.00    -0.379 N 
ATOM     48  H12 UNL     1     221.126 -63.715   1.050  1.00  0.00     0.160 HD
ENDBRANCH  39  43
ENDBRANCH  34  35
ENDBRANCH  33  34
ENDBRANCH  30  33
ENDBRANCH   1  29
TORSDOF 10
ENDMDL
MODEL 3
REMARK VINA RESULT: -9.598050160      2.075      3.915
REMARK  10 active torsions:
REMARK  status: ('A' for Active; 'I' for Inactive)
REMARK       I    between atoms: C1_4  and  N3_6 
REMARK    1  A    between atoms: N3_6  and  C2_8 
REMARK    2  A    between atoms: C5_11  and  C6_12 
REMARK    3  A    between atoms: C6_12  and  C7_13 
REMARK    4  A    between atoms: C7_13  and  N4_14 
REMARK    5  A    between atoms: C7_13  and  N8_25 
REMARK       I    between atoms: N8_25  and  C12_27 
REMARK    6  A    between atoms: C12_27  and  C13_29 
REMARK    7  A    between atoms: C13_29  and  S1_30 
REMARK    8  A    between atoms: S1_30  and  C14_31 
REMARK    9  A    between atoms: N11_36  and  C15_37 
REMARK   10  A    between atoms: C20_46  and  O3_47 
ROOT
HETATM    1  C7  UNL     1     224.013 -65.459  -4.251  1.00  0.00     0.189 C 
ENDROOT
BRANCH   1   2
HETATM    2  C6  UNL     1     223.516 -65.342  -5.686  1.00  0.00     0.085 C 
BRANCH   2   3
HETATM    3  C5  UNL     1     223.033 -66.643  -6.207  1.00  0.00    -0.052 A 
HETATM    4  C4  UNL     1     221.718 -66.923  -6.502  1.00  0.00     0.010 A 
HETATM    5  C3  UNL     1     221.275 -68.137  -6.996  1.00  0.00     0.033 A 
HETATM    6  C2  UNL     1     222.185 -69.151  -7.219  1.00  0.00     0.068 A 
HETATM    7  C20 UNL     1     223.519 -68.877  -6.924  1.00  0.00     0.092 A 
HETATM    8  C19 UNL     1     223.946 -67.666  -6.432  1.00  0.00     0.046 A 
BRANCH   6   9
HETATM    9  N3  UNL     1     221.787 -70.406  -7.729  1.00  0.00    -0.329 N 
HETATM   10  C1  UNL     1     221.782 -70.640  -9.130  1.00  0.00     0.186 C 
HETATM   11  N1  UNL     1     222.891 -70.769  -9.808  1.00  0.00    -0.373 N 
HETATM   12  N2  UNL     1     220.582 -70.746  -9.863  1.00  0.00    -0.064 NA
ATOM     13  H12 UNL     1     222.888 -70.938 -10.814  1.00  0.00     0.158 HD
ATOM     14  H11 UNL     1     223.759 -70.692  -9.277  1.00  0.00     0.158 HD
ATOM     15  H3  UNL     1     221.502 -71.147  -7.089  1.00  0.00     0.168 HD
ENDBRANCH   6   9
BRANCH   7  16
HETATM   16  O3  UNL     1     224.426 -69.912  -7.153  1.00  0.00    -0.358 OA
ATOM     17  H3  UNL     1     224.196 -70.759  -6.789  1.00  0.00     0.217 HD
ENDBRANCH   7  16
ENDBRANCH   2   3
ENDBRANCH   1   2
BRANCH   1  18
HETATM   18  N4  UNL     1     223.116 -66.015  -3.352  1.00  0.00    -0.357 N 
HETATM   19  C8  UNL     1     222.031 -65.747  -2.806  1.00  0.00     0.104 C 
HETATM   20  N5  UNL     1     221.403 -66.664  -1.872  1.00  0.00    -0.314 N 
HETATM   21  C11 UNL     1     221.167 -64.569  -2.916  1.00  0.00     0.192 C 
HETATM   22  C9  UNL     1     220.188 -66.122  -1.417  1.00  0.00     0.245 C 
ATOM     23  H5  UNL     1     221.785 -67.566  -1.589  1.00  0.00     0.170 HD
HETATM   24  O1  UNL     1     219.468 -66.541  -0.460  1.00  0.00    -0.271 OA
HETATM   25  C10 UNL     1     219.860 -64.959  -2.240  1.00  0.00     0.215 C 
HETATM   26  N6  UNL     1     219.412 -65.248  -3.564  1.00  0.00    -0.131 NA
HETATM   27  N7  UNL     1     220.377 -64.378  -4.081  1.00  0.00    -0.133 NA
ATOM     28  H4  UNL     1     223.448 -66.928  -3.042  1.00  0.00     0.163 HD
ENDBRANCH   1  18
BRANCH   1  29
HETATM   29  N8  UNL     1     224.505 -64.178  -3.785  1.00  0.00    -0.339 N 
HETATM   30  C12 UNL     1     225.457 -64.042  -2.722  1.00  0.00     0.228 C 
HETATM   31  O2  UNL     1     225.863 -65.106  -2.204  1.00  0.00    -0.273 OA
ATOM     32  H8  UNL     1     224.156 -63.332  -4.235  1.00  0.00     0.164 HD
BRANCH  30  33
HETATM   33  C13 UNL     1     225.926 -62.709  -2.277  1.00  0.00     0.185 C 
BRANCH  33  34
HETATM   34  S1  UNL     1     224.717 -61.394  -2.509  1.00  0.00    -0.082 SA
BRANCH  34  35
HETATM   35  C14 UNL     1     223.599 -61.378  -1.115  1.00  0.00     0.176 A 
HETATM   36  N9  UNL     1     222.265 -61.536  -1.141  1.00  0.00    -0.263 N 
HETATM   37  N10 UNL     1     221.796 -61.489   0.071  1.00  0.00    -0.222 N 
ATOM     38  H9  UNL     1     221.705 -61.673  -1.983  1.00  0.00     0.190 HD
HETATM   39  N11 UNL     1     222.820 -61.297   0.915  1.00  0.00    -0.194 N 
ATOM     40  H10 UNL     1     220.815 -61.582   0.336  1.00  0.00     0.210 HD
HETATM   41  N13 UNL     1     223.918 -61.228   0.194  1.00  0.00    -0.259 N 
ATOM     42  H13 UNL     1     224.859 -61.085   0.561  1.00  0.00     0.191 HD
BRANCH  39  43
HETATM   43  C15 UNL     1     222.594 -61.220   2.342  1.00  0.00     0.225 C 
HETATM   44  C16 UNL     1     223.287 -62.311   3.122  1.00  0.00     0.055 C 
HETATM   45  C17 UNL     1     222.354 -62.423   4.339  1.00  0.00     0.048 C 
HETATM   46  C18 UNL     1     221.043 -62.100   3.710  1.00  0.00     0.058 C 
HETATM   47  N12 UNL     1     221.209 -61.453   2.639  1.00  0.00    -0.379 N 
ATOM     48  H12 UNL     1     220.442 -61.130   2.048  1.00  0.00     0.160 HD
ENDBRANCH  39  43
ENDBRANCH  34  35
ENDBRANCH  33  34
ENDBRANCH  30  33
ENDBRANCH   1  29
TORSDOF 10
ENDMDL
MODEL 4
REMARK VINA RESULT: -9.394356084      2.268      6.432
REMARK  10 active torsions:
REMARK  status: ('A' for Active; 'I' for Inactive)
REMARK       I    between atoms: C1_4  and  N3_6 
REMARK    1  A    between atoms: N3_6  and  C2_8 
REMARK    2  A    between atoms: C5_11  and  C6_12 
REMARK    3  A    between atoms: C6_12  and  C7_13 
REMARK    4  A    between atoms: C7_13  and  N4_14 
REMARK    5  A    between atoms: C7_13  and  N8_25 
REMARK       I    between atoms: N8_25  and  C12_27 
REMARK    6  A    between atoms: C12_27  and  C13_29 
REMARK    7  A    between atoms: C13_29  and  S1_30 
REMARK    8  A    between atoms: S1_30  and  C14_31 
REMARK    9  A    between atoms: N11_36  and  C15_37 
REMARK   10  A    between atoms: C20_46  and  O3_47 
ROOT
HETATM    1  C7  UNL     1     221.389 -67.499  -5.326  1.00  0.00     0.189 C 
ENDROOT
BRANCH   1   2
HETATM    2  C6  UNL     1     221.661 -66.062  -5.752  1.00  0.00     0.085 C 
BRANCH   2   3
HETATM    3  C5  UNL     1     222.927 -65.550  -5.176  1.00  0.00    -0.052 A 
HETATM    4  C4  UNL     1     223.187 -65.458  -3.827  1.00  0.00     0.010 A 
HETATM    5  C3  UNL     1     224.373 -64.986  -3.296  1.00  0.00     0.033 A 
HETATM    6  C2  UNL     1     225.380 -64.574  -4.145  1.00  0.00     0.068 A 
HETATM    7  C20 UNL     1     225.127 -64.663  -5.513  1.00  0.00     0.092 A 
HETATM    8  C19 UNL     1     223.942 -65.133  -6.027  1.00  0.00     0.046 A 
BRANCH   6   9
HETATM    9  N3  UNL     1     226.613 -64.091  -3.655  1.00  0.00    -0.329 N 
HETATM   10  C1  UNL     1     227.525 -64.973  -3.017  1.00  0.00     0.186 C 
HETATM   11  N1  UNL     1     228.197 -65.870  -3.689  1.00  0.00    -0.373 N 
HETATM   12  N2  UNL     1     227.754 -64.930  -1.625  1.00  0.00    -0.064 NA
ATOM     13  H12 UNL     1     228.852 -66.503  -3.231  1.00  0.00     0.158 HD
ATOM     14  H11 UNL     1     228.031 -65.901  -4.695  1.00  0.00     0.158 HD
ATOM     15  H3  UNL     1     226.850 -63.104  -3.759  1.00  0.00     0.168 HD
ENDBRANCH   6   9
BRANCH   7  16
HETATM   16  O3  UNL     1     226.154 -64.241  -6.358  1.00  0.00    -0.358 OA
ATOM     17  H3  UNL     1     225.885 -63.822  -7.167  1.00  0.00     0.217 HD
ENDBRANCH   7  16
ENDBRANCH   2   3
ENDBRANCH   1   2
BRANCH   1  18
HETATM   18  N4  UNL     1     221.056 -68.372  -6.351  1.00  0.00    -0.357 N 
HETATM   19  C8  UNL     1     221.608 -69.056  -7.230  1.00  0.00     0.104 C 
HETATM   20  N5  UNL     1     220.838 -69.876  -8.151  1.00  0.00    -0.314 N 
HETATM   21  C11 UNL     1     223.023 -69.220  -7.571  1.00  0.00     0.192 C 
HETATM   22  C9  UNL     1     221.707 -70.550  -9.027  1.00  0.00     0.245 C 
ATOM     23  H5  UNL     1     219.822 -69.951  -8.159  1.00  0.00     0.170 HD
HETATM   24  O1  UNL     1     221.396 -71.194 -10.075  1.00  0.00    -0.271 OA
HETATM   25  C10 UNL     1     223.076 -70.398  -8.535  1.00  0.00     0.215 C 
HETATM   26  N6  UNL     1     223.402 -71.164  -7.376  1.00  0.00    -0.131 NA
HETATM   27  N7  UNL     1     223.864 -70.007  -6.741  1.00  0.00    -0.133 NA
ATOM     28  H4  UNL     1     220.044 -68.489  -6.398  1.00  0.00     0.163 HD
ENDBRANCH   1  18
BRANCH   1  29
HETATM   29  N8  UNL     1     220.404 -67.529  -4.264  1.00  0.00    -0.339 N 
HETATM   30  C12 UNL     1     220.656 -68.107  -2.975  1.00  0.00     0.228 C 
HETATM   31  O2  UNL     1     221.795 -68.590  -2.800  1.00  0.00    -0.273 OA
ATOM     32  H8  UNL     1     219.487 -67.120  -4.441  1.00  0.00     0.164 HD
BRANCH  30  33
HETATM   33  C13 UNL     1     219.613 -68.117  -1.923  1.00  0.00     0.185 C 
BRANCH  33  34
HETATM   34  S1  UNL     1     219.964 -67.025  -0.534  1.00  0.00    -0.082 SA
BRANCH  34  35
HETATM   35  C14 UNL     1     220.426 -65.417  -1.160  1.00  0.00     0.176 A 
HETATM   36  N9  UNL     1     219.870 -64.755  -2.189  1.00  0.00    -0.263 N 
HETATM   37  N10 UNL     1     220.457 -63.603  -2.334  1.00  0.00    -0.222 N 
ATOM     38  H9  UNL     1     219.106 -65.102  -2.767  1.00  0.00     0.190 HD
HETATM   39  N11 UNL     1     221.412 -63.492  -1.400  1.00  0.00    -0.194 N 
ATOM     40  H10 UNL     1     220.230 -62.902  -3.040  1.00  0.00     0.210 HD
HETATM   41  N13 UNL     1     221.395 -64.596  -0.685  1.00  0.00    -0.259 N 
ATOM     42  H13 UNL     1     222.012 -64.801   0.101  1.00  0.00     0.191 HD
BRANCH  39  43
HETATM   43  C15 UNL     1     222.221 -62.296  -1.312  1.00  0.00     0.225 C 
HETATM   44  C16 UNL     1     223.255 -62.346  -0.213  1.00  0.00     0.055 C 
HETATM   45  C17 UNL     1     223.403 -60.849   0.103  1.00  0.00     0.048 C 
HETATM   46  C18 UNL     1     222.018 -60.373  -0.167  1.00  0.00     0.058 C 
HETATM   47  N12 UNL     1     221.411 -61.174  -0.931  1.00  0.00    -0.379 N 
ATOM     48  H12 UNL     1     220.449 -61.039  -1.243  1.00  0.00     0.160 HD
ENDBRANCH  39  43
ENDBRANCH  34  35
ENDBRANCH  33  34
ENDBRANCH  30  33
ENDBRANCH   1  29
TORSDOF 10
ENDMDL
MODEL 5
REMARK VINA RESULT: -9.276658824      1.260      1.453
REMARK  10 active torsions:
REMARK  status: ('A' for Active; 'I' for Inactive)
REMARK       I    between atoms: C1_4  and  N3_6 
REMARK    1  A    between atoms: N3_6  and  C2_8 
REMARK    2  A    between atoms: C5_11  and  C6_12 
REMARK    3  A    between atoms: C6_12  and  C7_13 
REMARK    4  A    between atoms: C7_13  and  N4_14 
REMARK    5  A    between atoms: C7_13  and  N8_25 
REMARK       I    between atoms: N8_25  and  C12_27 
REMARK    6  A    between atoms: C12_27  and  C13_29 
REMARK    7  A    between atoms: C13_29  and  S1_30 
REMARK    8  A    between atoms: S1_30  and  C14_31 
REMARK    9  A    between atoms: N11_36  and  C15_37 
REMARK   10  A    between atoms: C20_46  and  O3_47 
ROOT
HETATM    1  C7  UNL     1     223.198 -64.412  -4.962  1.00  0.00     0.189 C 
ENDROOT
BRANCH   1   2
HETATM    2  C6  UNL     1     222.704 -64.609  -6.388  1.00  0.00     0.085 C 
BRANCH   2   3
HETATM    3  C5  UNL     1     222.558 -66.045  -6.726  1.00  0.00    -0.052 A 
HETATM    4  C4  UNL     1     221.353 -66.683  -6.906  1.00  0.00     0.010 A 
HETATM    5  C3  UNL     1     221.224 -68.022  -7.229  1.00  0.00     0.033 A 
HETATM    6  C2  UNL     1     222.358 -68.793  -7.387  1.00  0.00     0.068 A 
HETATM    7  C20 UNL     1     223.584 -68.156  -7.207  1.00  0.00     0.092 A 
HETATM    8  C19 UNL     1     223.697 -66.824  -6.885  1.00  0.00     0.046 A 
BRANCH   6   9
HETATM    9  N3  UNL     1     222.282 -70.163  -7.724  1.00  0.00    -0.329 N 
HETATM   10  C1  UNL     1     222.394 -70.574  -9.079  1.00  0.00     0.186 C 
HETATM   11  N1  UNL     1     223.531 -70.527  -9.719  1.00  0.00    -0.373 N 
HETATM   12  N2  UNL     1     221.284 -71.054  -9.805  1.00  0.00    -0.064 NA
ATOM     13  H12 UNL     1     223.611 -70.823 -10.692  1.00  0.00     0.158 HD
ATOM     14  H11 UNL     1     224.334 -70.180  -9.194  1.00  0.00     0.158 HD
ATOM     15  H3  UNL     1     222.148 -70.860  -6.991  1.00  0.00     0.168 HD
ENDBRANCH   6   9
BRANCH   7  16
HETATM   16  O3  UNL     1     224.720 -68.949  -7.369  1.00  0.00    -0.358 OA
ATOM     17  H3  UNL     1     225.036 -69.393  -6.591  1.00  0.00     0.217 HD
ENDBRANCH   7  16
ENDBRANCH   2   3
ENDBRANCH   1   2
BRANCH   1  18
HETATM   18  N4  UNL     1     224.546 -64.664  -4.757  1.00  0.00    -0.357 N 
HETATM   19  C8  UNL     1     225.452 -64.383  -3.953  1.00  0.00     0.104 C 
HETATM   20  N5  UNL     1     226.803 -64.889  -4.123  1.00  0.00    -0.314 N 
HETATM   21  C11 UNL     1     225.440 -63.554  -2.746  1.00  0.00     0.192 C 
HETATM   22  C9  UNL     1     227.618 -64.431  -3.073  1.00  0.00     0.245 C 
ATOM     23  H5  UNL     1     227.114 -65.487  -4.888  1.00  0.00     0.170 HD
HETATM   24  O1  UNL     1     228.882 -64.505  -2.990  1.00  0.00    -0.271 OA
HETATM   25  C10 UNL     1     226.764 -63.833  -2.047  1.00  0.00     0.215 C 
HETATM   26  N6  UNL     1     226.007 -64.754  -1.263  1.00  0.00    -0.131 NA
HETATM   27  N7  UNL     1     224.838 -64.045  -1.557  1.00  0.00    -0.133 NA
ATOM     28  H4  UNL     1     224.907 -65.269  -5.495  1.00  0.00     0.163 HD
ENDBRANCH   1  18
BRANCH   1  29
HETATM   29  N8  UNL     1     222.372 -65.161  -4.036  1.00  0.00    -0.339 N 
HETATM   30  C12 UNL     1     220.989 -64.868  -3.803  1.00  0.00     0.228 C 
HETATM   31  O2  UNL     1     220.508 -63.915  -4.454  1.00  0.00    -0.273 OA
ATOM     32  H8  UNL     1     222.797 -65.936  -3.526  1.00  0.00     0.164 HD
BRANCH  30  33
HETATM   33  C13 UNL     1     220.188 -65.661  -2.841  1.00  0.00     0.185 C 
BRANCH  33  34
HETATM   34  S1  UNL     1     220.692 -65.455  -1.124  1.00  0.00    -0.082 SA
BRANCH  34  35
HETATM   35  C14 UNL     1     221.283 -63.786  -0.887  1.00  0.00     0.176 A 
HETATM   36  N9  UNL     1     220.951 -62.697  -1.601  1.00  0.00    -0.263 N 
HETATM   37  N10 UNL     1     221.564 -61.656  -1.119  1.00  0.00    -0.222 N 
ATOM     38  H9  UNL     1     220.317 -62.689  -2.399  1.00  0.00     0.190 HD
HETATM   39  N11 UNL     1     222.310 -62.047  -0.077  1.00  0.00    -0.194 N 
ATOM     40  H10 UNL     1     221.489 -60.702  -1.473  1.00  0.00     0.210 HD
HETATM   41  N13 UNL     1     222.141 -63.344   0.065  1.00  0.00    -0.259 N 
ATOM     42  H13 UNL     1     222.586 -63.924   0.777  1.00  0.00     0.191 HD
BRANCH  39  43
HETATM   43  C15 UNL     1     223.094 -61.087   0.670  1.00  0.00     0.225 C 
HETATM   44  C16 UNL     1     222.349 -60.470   1.829  1.00  0.00     0.055 C 
HETATM   45  C17 UNL     1     223.061 -59.111   1.930  1.00  0.00     0.048 C 
HETATM   46  C18 UNL     1     223.388 -58.866   0.498  1.00  0.00     0.058 C 
HETATM   47  N12 UNL     1     223.398 -59.949  -0.150  1.00  0.00    -0.379 N 
ATOM     48  H12 UNL     1     223.600 -60.008  -1.149  1.00  0.00     0.160 HD
ENDBRANCH  39  43
ENDBRANCH  34  35
ENDBRANCH  33  34
ENDBRANCH  30  33
ENDBRANCH   1  29
TORSDOF 10
ENDMDL
