MODEL 1
REMARK VINA RESULT: -8.282926782      0.000      0.000
REMARK  6 active torsions:
REMARK  status: ('A' for Active; 'I' for Inactive)
REMARK    1  A    between atoms: N1_1  and  C1_4 
REMARK    2  A    between atoms: N3_10  and  C5_12 
REMARK    3  A    between atoms: C5_12  and  C6_13 
REMARK    4  A    between atoms: C8_17  and  C9_18 
REMARK    5  A    between atoms: C9_18  and  N5_19 
REMARK    6  A    between atoms: N5_19  and  C10_21 
ROOT
HETATM    1  C1  UNL     1      -1.069  -6.275  30.314  1.00  0.00     0.677 A 
HETATM    2  N2  UNL     1       0.185  -6.721  30.127  1.00  0.00    -0.195 N 
ATOM      3  H2  UNL     1       0.587  -6.678  29.190  1.00  0.00     0.184 HD
HETATM    4  C2  UNL     1       0.942  -7.229  31.142  1.00  0.00     0.038 A 
HETATM    5  C3  UNL     1       0.423  -7.295  32.400  1.00  0.00     0.011 A 
HETATM    6  C4  UNL     1      -0.872  -6.836  32.594  1.00  0.00     0.125 A 
HETATM    7  N3  UNL     1      -1.347  -6.907  33.792  1.00  0.00    -0.369 N 
ATOM      8  H3  UNL     1      -0.791  -7.284  34.559  1.00  0.00     0.161 HD
HETATM    9  N8  UNL     1      -1.578  -6.343  31.557  1.00  0.00    -0.177 N 
ATOM     10  H8  UNL     1      -2.528  -6.010  31.721  1.00  0.00     0.186 HD
HETATM   11  C14 UNL     1       1.010  -7.788  33.648  1.00  0.00     0.072 C 
HETATM   12  C15 UNL     1       2.496  -7.730  33.716  1.00  0.00     0.237 C 
HETATM   13  N9  UNL     1       2.983  -6.728  32.778  1.00  0.00    -0.074 N 
ATOM     14  H91 UNL     1       3.724  -6.140  33.162  1.00  0.00     0.277 HD
ATOM     15  H92 UNL     1       2.310  -5.982  32.598  1.00  0.00     0.277 HD
HETATM   16  C16 UNL     1       3.381  -7.443  31.580  1.00  0.00     0.238 C 
HETATM   17  C17 UNL     1       2.253  -7.624  30.614  1.00  0.00     0.085 C 
ENDROOT
BRANCH   7  18
HETATM   18  C5  UNL     1      -2.686  -6.434  34.006  1.00  0.00     0.187 C 
BRANCH  18  19
HETATM   19  C6  UNL     1      -3.655  -7.533  34.209  1.00  0.00     0.088 A 
HETATM   20  C7  UNL     1      -4.474  -8.158  33.306  1.00  0.00     0.124 A 
HETATM   21  N4  UNL     1      -5.161  -9.090  33.986  1.00  0.00    -0.346 N 
HETATM   22  C8  UNL     1      -4.769  -9.025  35.249  1.00  0.00     0.142 A 
ATOM     23  H4  UNL     1      -5.857  -9.728  33.601  1.00  0.00     0.167 HD
HETATM   24  O1  UNL     1      -3.868  -8.092  35.374  1.00  0.00    -0.297 OA
BRANCH  22  25
HETATM   25  C9  UNL     1      -5.256  -9.867  36.371  1.00  0.00     0.222 C 
BRANCH  25  26
HETATM   26  N5  UNL     1      -4.168 -10.480  37.087  1.00  0.00    -0.218 N 
ATOM     27  H5  UNL     1      -3.656 -11.264  36.682  1.00  0.00     0.178 HD
BRANCH  26  28
HETATM   28  C10 UNL     1      -3.851 -10.018  38.259  1.00  0.00     0.678 A 
HETATM   29  N6  UNL     1      -4.077 -10.703  39.396  1.00  0.00    -0.202 N 
HETATM   30  C11 UNL     1      -3.748 -10.224  40.608  1.00  0.00     0.107 A 
ATOM     31  H6  UNL     1      -4.516 -11.622  39.335  1.00  0.00     0.183 HD
HETATM   32  C12 UNL     1      -3.154  -8.977  40.692  1.00  0.00     0.035 A 
HETATM   33  C13 UNL     1      -2.922  -8.275  39.539  1.00  0.00     0.107 A 
HETATM   34  N7  UNL     1      -3.279  -8.815  38.341  1.00  0.00    -0.202 N 
ATOM     35  H7  UNL     1      -3.104  -8.288  37.486  1.00  0.00     0.183 HD
ENDBRANCH  26  28
ENDBRANCH  25  26
ENDBRANCH  22  25
ENDBRANCH  18  19
ENDBRANCH   7  18
BRANCH   1  36
HETATM   36  N1  UNL     1      -1.782  -5.793  29.340  1.00  0.00    -0.234 N 
ATOM     37  H12 UNL     1      -2.472  -5.063  29.519  1.00  0.00     0.174 HD
ATOM     38  H11 UNL     1      -1.678  -6.121  28.380  1.00  0.00     0.174 HD
ENDBRANCH   1  36
TORSDOF 6
ENDMDL
MODEL 2
REMARK VINA RESULT: -8.041050150      1.455      1.688
REMARK  6 active torsions:
REMARK  status: ('A' for Active; 'I' for Inactive)
REMARK    1  A    between atoms: N1_1  and  C1_4 
REMARK    2  A    between atoms: N3_10  and  C5_12 
REMARK    3  A    between atoms: C5_12  and  C6_13 
REMARK    4  A    between atoms: C8_17  and  C9_18 
REMARK    5  A    between atoms: C9_18  and  N5_19 
REMARK    6  A    between atoms: N5_19  and  C10_21 
ROOT
HETATM    1  C1  UNL     1      -1.340  -6.416  29.965  1.00  0.00     0.677 A 
HETATM    2  N2  UNL     1      -0.050  -6.791  29.976  1.00  0.00    -0.195 N 
ATOM      3  H2  UNL     1       0.463  -6.813  29.094  1.00  0.00     0.184 HD
HETATM    4  C2  UNL     1       0.601  -7.146  31.122  1.00  0.00     0.038 A 
HETATM    5  C3  UNL     1      -0.066  -7.125  32.309  1.00  0.00     0.011 A 
HETATM    6  C4  UNL     1      -1.399  -6.738  32.299  1.00  0.00     0.125 A 
HETATM    7  N3  UNL     1      -2.015  -6.723  33.433  1.00  0.00    -0.369 N 
ATOM      8  H3  UNL     1      -1.539  -6.986  34.296  1.00  0.00     0.161 HD
HETATM    9  N8  UNL     1      -1.995  -6.396  31.140  1.00  0.00    -0.177 N 
ATOM     10  H8  UNL     1      -2.976  -6.114  31.154  1.00  0.00     0.186 HD
HETATM   11  C14 UNL     1       0.387  -7.452  33.663  1.00  0.00     0.072 C 
HETATM   12  C15 UNL     1       1.848  -7.288  33.900  1.00  0.00     0.237 C 
HETATM   13  N9  UNL     1       2.391  -6.351  32.926  1.00  0.00    -0.074 N 
ATOM     14  H91 UNL     1       3.045  -5.680  33.332  1.00  0.00     0.277 HD
ATOM     15  H92 UNL     1       1.706  -5.674  32.591  1.00  0.00     0.277 HD
HETATM   16  C16 UNL     1       2.975  -7.151  31.866  1.00  0.00     0.238 C 
HETATM   17  C17 UNL     1       1.988  -7.501  30.798  1.00  0.00     0.085 C 
ENDROOT
BRANCH   7  18
HETATM   18  C5  UNL     1      -3.394  -6.324  33.435  1.00  0.00     0.187 C 
BRANCH  18  19
HETATM   19  C6  UNL     1      -4.013  -6.415  34.775  1.00  0.00     0.088 A 
HETATM   20  C7  UNL     1      -5.246  -5.997  35.203  1.00  0.00     0.124 A 
HETATM   21  N4  UNL     1      -5.331  -6.308  36.506  1.00  0.00    -0.346 N 
HETATM   22  C8  UNL     1      -4.192  -6.891  36.847  1.00  0.00     0.142 A 
ATOM     23  H4  UNL     1      -6.126  -6.129  37.120  1.00  0.00     0.167 HD
HETATM   24  O1  UNL     1      -3.409  -6.951  35.807  1.00  0.00    -0.297 OA
BRANCH  22  25
HETATM   25  C9  UNL     1      -3.829  -7.407  38.192  1.00  0.00     0.222 C 
BRANCH  25  26
HETATM   26  N5  UNL     1      -3.227  -8.712  38.116  1.00  0.00    -0.218 N 
ATOM     27  H5  UNL     1      -2.726  -9.005  37.277  1.00  0.00     0.178 HD
BRANCH  26  28
HETATM   28  C10 UNL     1      -3.334  -9.510  39.135  1.00  0.00     0.678 A 
HETATM   29  N6  UNL     1      -3.005 -10.814  39.075  1.00  0.00    -0.202 N 
HETATM   30  C11 UNL     1      -3.115 -11.639  40.131  1.00  0.00     0.107 A 
ATOM     31  H6  UNL     1      -2.658 -11.191  38.193  1.00  0.00     0.183 HD
HETATM   32  C12 UNL     1      -3.586 -11.129  41.328  1.00  0.00     0.035 A 
HETATM   33  C13 UNL     1      -3.924  -9.803  41.395  1.00  0.00     0.107 A 
HETATM   34  N7  UNL     1      -3.789  -9.019  40.290  1.00  0.00    -0.202 N 
ATOM     35  H7  UNL     1      -4.043  -8.032  40.346  1.00  0.00     0.183 HD
ENDBRANCH  26  28
ENDBRANCH  25  26
ENDBRANCH  22  25
ENDBRANCH  18  19
ENDBRANCH   7  18
BRANCH   1  36
HETATM   36  N1  UNL     1      -1.951  -6.080  28.868  1.00  0.00    -0.234 N 
ATOM     37  H12 UNL     1      -2.644  -5.332  28.874  1.00  0.00     0.174 HD
ATOM     38  H11 UNL     1      -1.762  -6.544  27.980  1.00  0.00     0.174 HD
ENDBRANCH   1  36
TORSDOF 6
ENDMDL
MODEL 3
REMARK VINA RESULT: -8.038775430      4.716      8.014
REMARK  6 active torsions:
REMARK  status: ('A' for Active; 'I' for Inactive)
REMARK    1  A    between atoms: N1_1  and  C1_4 
REMARK    2  A    between atoms: N3_10  and  C5_12 
REMARK    3  A    between atoms: C5_12  and  C6_13 
REMARK    4  A    between atoms: C8_17  and  C9_18 
REMARK    5  A    between atoms: C9_18  and  N5_19 
REMARK    6  A    between atoms: N5_19  and  C10_21 
ROOT
HETATM    1  C1  UNL     1      -4.104 -10.523  30.367  1.00  0.00     0.677 A 
HETATM    2  N2  UNL     1      -3.977 -11.179  29.200  1.00  0.00    -0.195 N 
ATOM      3  H2  UNL     1      -4.054 -12.196  29.198  1.00  0.00     0.184 HD
HETATM    4  C2  UNL     1      -3.748 -10.535  28.019  1.00  0.00     0.038 A 
HETATM    5  C3  UNL     1      -3.641  -9.178  28.002  1.00  0.00     0.011 A 
HETATM    6  C4  UNL     1      -3.772  -8.500  29.206  1.00  0.00     0.125 A 
HETATM    7  N3  UNL     1      -3.668  -7.214  29.171  1.00  0.00    -0.369 N 
ATOM      8  H3  UNL     1      -3.497  -6.722  28.294  1.00  0.00     0.161 HD
HETATM    9  N8  UNL     1      -3.998  -9.183  30.346  1.00  0.00    -0.177 N 
ATOM     10  H8  UNL     1      -4.092  -8.666  31.220  1.00  0.00     0.186 HD
HETATM   11  C14 UNL     1      -3.400  -8.254  26.891  1.00  0.00     0.072 C 
HETATM   12  C15 UNL     1      -3.834  -8.746  25.554  1.00  0.00     0.237 C 
HETATM   13  N9  UNL     1      -4.859  -9.766  25.724  1.00  0.00    -0.074 N 
ATOM     14  H91 UNL     1      -5.639  -9.669  25.074  1.00  0.00     0.277 HD
ATOM     15  H92 UNL     1      -5.397  -9.659  26.585  1.00  0.00     0.277 HD
HETATM   16  C16 UNL     1      -4.185 -11.047  25.625  1.00  0.00     0.238 C 
HETATM   17  C17 UNL     1      -3.659 -11.527  26.940  1.00  0.00     0.085 C 
ENDROOT
BRANCH   7  18
HETATM   18  C5  UNL     1      -3.802  -6.501  30.410  1.00  0.00     0.187 C 
BRANCH  18  19
HETATM   19  C6  UNL     1      -2.500  -6.092  30.978  1.00  0.00     0.088 A 
HETATM   20  C7  UNL     1      -2.003  -6.261  32.244  1.00  0.00     0.124 A 
HETATM   21  N4  UNL     1      -0.777  -5.714  32.256  1.00  0.00    -0.346 N 
HETATM   22  C8  UNL     1      -0.547  -5.235  31.043  1.00  0.00     0.142 A 
ATOM     23  H4  UNL     1      -0.141  -5.673  33.052  1.00  0.00     0.167 HD
HETATM   24  O1  UNL     1      -1.582  -5.465  30.284  1.00  0.00    -0.297 OA
BRANCH  22  25
HETATM   25  C9  UNL     1       0.682  -4.541  30.583  1.00  0.00     0.222 C 
BRANCH  25  26
HETATM   26  N5  UNL     1       1.626  -5.459  30.000  1.00  0.00    -0.218 N 
ATOM     27  H5  UNL     1       1.921  -5.354  29.030  1.00  0.00     0.178 HD
BRANCH  26  28
HETATM   28  C10 UNL     1       2.094  -6.424  30.733  1.00  0.00     0.678 A 
HETATM   29  N6  UNL     1       2.659  -6.215  31.936  1.00  0.00    -0.202 N 
HETATM   30  C11 UNL     1       3.143  -7.215  32.693  1.00  0.00     0.107 A 
ATOM     31  H6  UNL     1       2.722  -5.260  32.288  1.00  0.00     0.183 HD
HETATM   32  C12 UNL     1       3.059  -8.511  32.217  1.00  0.00     0.035 A 
HETATM   33  C13 UNL     1       2.486  -8.730  30.992  1.00  0.00     0.107 A 
HETATM   34  N7  UNL     1       2.014  -7.675  30.273  1.00  0.00    -0.202 N 
ATOM     35  H7  UNL     1       1.589  -7.844  29.361  1.00  0.00     0.183 HD
ENDBRANCH  26  28
ENDBRANCH  25  26
ENDBRANCH  22  25
ENDBRANCH  18  19
ENDBRANCH   7  18
BRANCH   1  36
HETATM   36  N1  UNL     1      -4.323 -11.146  31.487  1.00  0.00    -0.234 N 
ATOM     37  H12 UNL     1      -4.222 -12.159  31.541  1.00  0.00     0.174 HD
ATOM     38  H11 UNL     1      -4.597 -10.652  32.336  1.00  0.00     0.174 HD
ENDBRANCH   1  36
TORSDOF 6
ENDMDL
MODEL 4
REMARK VINA RESULT: -8.002094204      4.686      8.009
REMARK  6 active torsions:
REMARK  status: ('A' for Active; 'I' for Inactive)
REMARK    1  A    between atoms: N1_1  and  C1_4 
REMARK    2  A    between atoms: N3_10  and  C5_12 
REMARK    3  A    between atoms: C5_12  and  C6_13 
REMARK    4  A    between atoms: C8_17  and  C9_18 
REMARK    5  A    between atoms: C9_18  and  N5_19 
REMARK    6  A    between atoms: N5_19  and  C10_21 
ROOT
HETATM    1  C1  UNL     1      -1.628  -7.284  33.500  1.00  0.00     0.677 A 
HETATM    2  N2  UNL     1      -0.373  -7.567  33.890  1.00  0.00    -0.195 N 
ATOM      3  H2  UNL     1      -0.215  -7.871  34.852  1.00  0.00     0.184 HD
HETATM    4  C2  UNL     1       0.697  -7.464  33.051  1.00  0.00     0.038 A 
HETATM    5  C3  UNL     1       0.507  -7.060  31.764  1.00  0.00     0.011 A 
HETATM    6  C4  UNL     1      -0.788  -6.767  31.360  1.00  0.00     0.125 A 
HETATM    7  N3  UNL     1      -0.949  -6.386  30.137  1.00  0.00    -0.369 N 
ATOM      8  H3  UNL     1      -0.157  -6.305  29.500  1.00  0.00     0.161 HD
HETATM    9  N8  UNL     1      -1.811  -6.886  32.228  1.00  0.00    -0.177 N 
ATOM     10  H8  UNL     1      -2.756  -6.666  31.911  1.00  0.00     0.186 HD
HETATM   11  C14 UNL     1       1.466  -6.867  30.674  1.00  0.00     0.072 C 
HETATM   12  C15 UNL     1       2.708  -7.684  30.771  1.00  0.00     0.237 C 
HETATM   13  N9  UNL     1       2.454  -8.849  31.607  1.00  0.00    -0.074 N 
ATOM     14  H91 UNL     1       2.852  -9.711  31.231  1.00  0.00     0.277 HD
ATOM     15  H92 UNL     1       1.479  -9.147  31.601  1.00  0.00     0.277 HD
HETATM   16  C16 UNL     1       2.946  -8.520  32.931  1.00  0.00     0.238 C 
HETATM   17  C17 UNL     1       1.916  -7.840  33.777  1.00  0.00     0.085 C 
ENDROOT
BRANCH   7  18
HETATM   18  C5  UNL     1      -2.285  -6.081  29.706  1.00  0.00     0.187 C 
BRANCH  18  19
HETATM   19  C6  UNL     1      -2.854  -7.124  28.826  1.00  0.00     0.088 A 
HETATM   20  C7  UNL     1      -3.246  -7.048  27.515  1.00  0.00     0.124 A 
HETATM   21  N4  UNL     1      -3.695  -8.267  27.174  1.00  0.00    -0.346 N 
HETATM   22  C8  UNL     1      -3.576  -9.044  28.239  1.00  0.00     0.142 A 
ATOM     23  H4  UNL     1      -4.060  -8.543  26.262  1.00  0.00     0.167 HD
HETATM   24  O1  UNL     1      -3.072  -8.354  29.223  1.00  0.00    -0.297 OA
BRANCH  22  25
HETATM   25  C9  UNL     1      -3.947 -10.479  28.335  1.00  0.00     0.222 C 
BRANCH  25  26
HETATM   26  N5  UNL     1      -4.551 -10.954  27.118  1.00  0.00    -0.218 N 
ATOM     27  H5  UNL     1      -5.459 -10.600  26.816  1.00  0.00     0.178 HD
BRANCH  26  28
HETATM   28  C10 UNL     1      -3.920 -11.842  26.411  1.00  0.00     0.678 A 
HETATM   29  N6  UNL     1      -3.898 -13.148  26.736  1.00  0.00    -0.202 N 
HETATM   30  C11 UNL     1      -3.244 -14.066  26.003  1.00  0.00     0.107 A 
ATOM     31  H6  UNL     1      -4.397 -13.453  27.572  1.00  0.00     0.183 HD
HETATM   32  C12 UNL     1      -2.567 -13.654  24.870  1.00  0.00     0.035 A 
HETATM   33  C13 UNL     1      -2.585 -12.326  24.534  1.00  0.00     0.107 A 
HETATM   34  N7  UNL     1      -3.265 -11.445  25.318  1.00  0.00    -0.202 N 
ATOM     35  H7  UNL     1      -3.274 -10.457  25.064  1.00  0.00     0.183 HD
ENDBRANCH  26  28
ENDBRANCH  25  26
ENDBRANCH  22  25
ENDBRANCH  18  19
ENDBRANCH   7  18
BRANCH   1  36
HETATM   36  N1  UNL     1      -2.641  -7.386  34.307  1.00  0.00    -0.234 N 
ATOM     37  H12 UNL     1      -2.526  -7.197  35.303  1.00  0.00     0.174 HD
ATOM     38  H11 UNL     1      -3.569  -7.653  33.980  1.00  0.00     0.174 HD
ENDBRANCH   1  36
TORSDOF 6
ENDMDL
MODEL 5
REMARK VINA RESULT: -7.983186507      1.908      8.669
REMARK  6 active torsions:
REMARK  status: ('A' for Active; 'I' for Inactive)
REMARK    1  A    between atoms: N1_1  and  C1_4 
REMARK    2  A    between atoms: N3_10  and  C5_12 
REMARK    3  A    between atoms: C5_12  and  C6_13 
REMARK    4  A    between atoms: C8_17  and  C9_18 
REMARK    5  A    between atoms: C9_18  and  N5_19 
REMARK    6  A    between atoms: N5_19  and  C10_21 
ROOT
HETATM    1  C1  UNL     1      -2.579  -8.444  40.210  1.00  0.00     0.677 A 
HETATM    2  N2  UNL     1      -3.022  -9.636  40.646  1.00  0.00    -0.195 N 
ATOM      3  H2  UNL     1      -2.531 -10.089  41.417  1.00  0.00     0.184 HD
HETATM    4  C2  UNL     1      -4.102 -10.263  40.097  1.00  0.00     0.038 A 
HETATM    5  C3  UNL     1      -4.769  -9.675  39.066  1.00  0.00     0.011 A 
HETATM    6  C4  UNL     1      -4.313  -8.444  38.614  1.00  0.00     0.125 A 
HETATM    7  N3  UNL     1      -4.957  -7.901  37.637  1.00  0.00    -0.369 N 
ATOM      8  H3  UNL     1      -5.766  -8.360  37.218  1.00  0.00     0.161 HD
HETATM    9  N8  UNL     1      -3.241  -7.866  39.191  1.00  0.00    -0.177 N 
ATOM     10  H8  UNL     1      -2.921  -6.962  38.845  1.00  0.00     0.186 HD
HETATM   11  C14 UNL     1      -5.939 -10.123  38.307  1.00  0.00     0.072 C 
HETATM   12  C15 UNL     1      -6.848 -11.051  39.036  1.00  0.00     0.237 C 
HETATM   13  N9  UNL     1      -6.666 -10.878  40.470  1.00  0.00    -0.074 N 
ATOM     14  H91 UNL     1      -7.544 -10.861  40.990  1.00  0.00     0.277 HD
ATOM     15  H92 UNL     1      -6.348  -9.943  40.727  1.00  0.00     0.277 HD
HETATM   16  C16 UNL     1      -5.764 -11.930  40.900  1.00  0.00     0.238 C 
HETATM   17  C17 UNL     1      -4.325 -11.536  40.793  1.00  0.00     0.085 C 
ENDROOT
BRANCH   7  18
HETATM   18  C5  UNL     1      -4.495  -6.628  37.160  1.00  0.00     0.187 C 
BRANCH  18  19
HETATM   19  C6  UNL     1      -4.152  -6.646  35.722  1.00  0.00     0.088 A 
HETATM   20  C7  UNL     1      -4.969  -6.580  34.624  1.00  0.00     0.124 A 
HETATM   21  N4  UNL     1      -4.173  -6.634  33.544  1.00  0.00    -0.346 N 
HETATM   22  C8  UNL     1      -2.925  -6.727  33.979  1.00  0.00     0.142 A 
ATOM     23  H4  UNL     1      -4.474  -6.608  32.570  1.00  0.00     0.167 HD
HETATM   24  O1  UNL     1      -2.921  -6.734  35.282  1.00  0.00    -0.297 OA
BRANCH  22  25
HETATM   25  C9  UNL     1      -1.701  -6.813  33.142  1.00  0.00     0.222 C 
BRANCH  25  26
HETATM   26  N5  UNL     1      -0.614  -7.432  33.854  1.00  0.00    -0.218 N 
ATOM     27  H5  UNL     1      -0.781  -7.929  34.729  1.00  0.00     0.178 HD
BRANCH  26  28
HETATM   28  C10 UNL     1       0.585  -7.347  33.361  1.00  0.00     0.678 A 
HETATM   29  N6  UNL     1       0.919  -6.453  32.412  1.00  0.00    -0.202 N 
HETATM   30  C11 UNL     1       2.161  -6.366  31.904  1.00  0.00     0.107 A 
ATOM     31  H6  UNL     1       0.202  -5.816  32.065  1.00  0.00     0.183 HD
HETATM   32  C12 UNL     1       3.135  -7.229  32.373  1.00  0.00     0.035 A 
HETATM   33  C13 UNL     1       2.801  -8.141  33.339  1.00  0.00     0.107 A 
HETATM   34  N7  UNL     1       1.525  -8.180  33.813  1.00  0.00    -0.202 N 
ATOM     35  H7  UNL     1       1.282  -8.863  34.531  1.00  0.00     0.183 HD
ENDBRANCH  26  28
ENDBRANCH  25  26
ENDBRANCH  22  25
ENDBRANCH  18  19
ENDBRANCH   7  18
BRANCH   1  36
HETATM   36  N1  UNL     1      -1.549  -7.855  40.740  1.00  0.00    -0.234 N 
ATOM     37  H12 UNL     1      -1.658  -6.964  41.223  1.00  0.00     0.174 HD
ATOM     38  H11 UNL     1      -0.612  -8.257  40.692  1.00  0.00     0.174 HD
ENDBRANCH   1  36
TORSDOF 6
ENDMDL
