MODEL 1
REMARK VINA RESULT: -7.744487278      0.000      0.000
REMARK  9 active torsions:
REMARK  status: ('A' for Active; 'I' for Inactive)
REMARK    1  A    between atoms: O1_2  and  C2_3 
REMARK    2  A    between atoms: C5_6  and  C6_7 
REMARK    3  A    between atoms: C6_7  and  C7_8 
REMARK    4  A    between atoms: C10_11  and  O2_12 
REMARK    5  A    between atoms: C12_20  and  C13_21 
REMARK    6  A    between atoms: C13_21  and  N3_22 
REMARK    7  A    between atoms: N3_22  and  C14_24 
REMARK    8  A    between atoms: C16_29  and  O4_30 
REMARK    9  A    between atoms: C18_32  and  O5_33 
ROOT
HETATM    1  C2  UNL     1      35.968  35.955  12.818  1.00  0.00     0.105 A 
HETATM    2  C3  UNL     1      35.518  36.862  13.780  1.00  0.00     0.053 A 
HETATM    3  C4  UNL     1      35.955  38.169  13.746  1.00  0.00    -0.002 A 
HETATM    4  C5  UNL     1      35.524  39.104  14.683  1.00  0.00     0.045 A 
HETATM    5  C11 UNL     1      35.953  40.409  14.641  1.00  0.00     0.257 A 
HETATM    6  O3  UNL     1      35.561  41.250  15.495  1.00  0.00    -0.267 OA
HETATM    7  N2  UNL     1      36.798  40.756  13.665  1.00  0.00    -0.321 N 
ATOM      8  H2  UNL     1      37.116  41.724  13.632  1.00  0.00     0.169 HD
HETATM    9  C12 UNL     1      37.265  39.896  12.709  1.00  0.00     0.064 A 
HETATM   10  C15 UNL     1      36.857  38.593  12.740  1.00  0.00     0.040 A 
HETATM   11  C16 UNL     1      37.267  37.659  11.827  1.00  0.00     0.117 A 
HETATM   12  C18 UNL     1      36.835  36.334  11.843  1.00  0.00     0.136 A 
ENDROOT
BRANCH   4  13
HETATM   13  C6  UNL     1      34.696  38.710  15.617  1.00  0.00     0.047 C 
BRANCH  13  14
HETATM   14  C7  UNL     1      33.394  39.350  15.919  1.00  0.00     0.035 A 
HETATM   15  C8  UNL     1      32.295  38.752  16.547  1.00  0.00     0.034 A 
HETATM   16  C9  UNL     1      31.271  39.667  16.609  1.00  0.00     0.058 A 
HETATM   17  C10 UNL     1      31.730  40.822  16.023  1.00  0.00     0.140 A 
HETATM   18  N1  UNL     1      32.989  40.597  15.628  1.00  0.00    -0.337 N 
ATOM     19  H1  UNL     1      33.572  41.291  15.160  1.00  0.00     0.168 HD
BRANCH  17  20
HETATM   20  O2  UNL     1      31.008  42.025  15.868  1.00  0.00    -0.346 OA
ATOM     21  H2  UNL     1      31.373  42.902  15.842  1.00  0.00     0.219 HD
ENDBRANCH  17  20
ENDBRANCH  13  14
ENDBRANCH   4  13
BRANCH   1  22
HETATM   22  O1  UNL     1      35.523  34.674  12.869  1.00  0.00    -0.353 OA
HETATM   23  C1  UNL     1      35.080  33.983  14.004  1.00  0.00     0.210 C 
ENDBRANCH   1  22
BRANCH   9  24
HETATM   24  C13 UNL     1      38.013  40.406  11.772  1.00  0.00     0.119 C 
BRANCH  24  25
HETATM   25  N3  UNL     1      37.582  41.697  11.237  1.00  0.00    -0.360 N 
ATOM     26  H3  UNL     1      37.687  42.560  11.772  1.00  0.00     0.166 HD
BRANCH  25  27
HETATM   27  C14 UNL     1      37.016  41.695   9.951  1.00  0.00     0.173 C 
HETATM   28  N4  UNL     1      36.153  42.567   9.567  1.00  0.00    -0.395 N 
ATOM     29  H42 UNL     1      35.878  43.285  10.236  1.00  0.00     0.156 HD
ATOM     30  H41 UNL     1      35.742  42.565   8.633  1.00  0.00     0.156 HD
ENDBRANCH  25  27
ENDBRANCH  24  25
ENDBRANCH   9  24
BRANCH  11  31
HETATM   31  O4  UNL     1      38.180  37.945  10.806  1.00  0.00    -0.352 OA
HETATM   32  C17 UNL     1      37.575  38.157   9.490  1.00  0.00     0.210 C 
ENDBRANCH  11  31
BRANCH  12  33
HETATM   33  O5  UNL     1      37.268  35.453  10.913  1.00  0.00    -0.351 OA
HETATM   34  C19 UNL     1      36.697  34.229  10.562  1.00  0.00     0.210 C 
ENDBRANCH  12  33
TORSDOF 9
ENDMDL
MODEL 2
REMARK VINA RESULT: -7.208507326      1.574      1.867
REMARK  9 active torsions:
REMARK  status: ('A' for Active; 'I' for Inactive)
REMARK    1  A    between atoms: O1_2  and  C2_3 
REMARK    2  A    between atoms: C5_6  and  C6_7 
REMARK    3  A    between atoms: C6_7  and  C7_8 
REMARK    4  A    between atoms: C10_11  and  O2_12 
REMARK    5  A    between atoms: C12_20  and  C13_21 
REMARK    6  A    between atoms: C13_21  and  N3_22 
REMARK    7  A    between atoms: N3_22  and  C14_24 
REMARK    8  A    between atoms: C16_29  and  O4_30 
REMARK    9  A    between atoms: C18_32  and  O5_33 
ROOT
HETATM    1  C2  UNL     1      35.550  36.811  13.602  1.00  0.00     0.105 A 
HETATM    2  C3  UNL     1      34.684  37.672  14.278  1.00  0.00     0.053 A 
HETATM    3  C4  UNL     1      34.798  39.035  14.100  1.00  0.00    -0.002 A 
HETATM    4  C5  UNL     1      33.948  39.925  14.753  1.00  0.00     0.045 A 
HETATM    5  C11 UNL     1      34.057  41.283  14.565  1.00  0.00     0.257 A 
HETATM    6  O3  UNL     1      33.287  42.084  15.161  1.00  0.00    -0.267 OA
HETATM    7  N2  UNL     1      35.004  41.723  13.731  1.00  0.00    -0.321 N 
ATOM      8  H2  UNL     1      35.083  42.730  13.590  1.00  0.00     0.169 HD
HETATM    9  C12 UNL     1      35.873  40.912  13.055  1.00  0.00     0.064 A 
HETATM   10  C15 UNL     1      35.787  39.561  13.235  1.00  0.00     0.040 A 
HETATM   11  C16 UNL     1      36.610  38.668  12.602  1.00  0.00     0.117 A 
HETATM   12  C18 UNL     1      36.510  37.288  12.767  1.00  0.00     0.136 A 
ENDROOT
BRANCH   4  13
HETATM   13  C6  UNL     1      33.039  39.439  15.557  1.00  0.00     0.047 C 
BRANCH  13  14
HETATM   14  C7  UNL     1      31.950  40.228  16.180  1.00  0.00     0.035 A 
HETATM   15  C8  UNL     1      30.691  40.493  15.630  1.00  0.00     0.034 A 
HETATM   16  C9  UNL     1      29.986  41.288  16.504  1.00  0.00     0.058 A 
HETATM   17  C10 UNL     1      30.802  41.515  17.586  1.00  0.00     0.140 A 
HETATM   18  N1  UNL     1      31.955  40.872  17.359  1.00  0.00    -0.337 N 
ATOM     19  H1  UNL     1      32.744  40.872  18.006  1.00  0.00     0.168 HD
BRANCH  17  20
HETATM   20  O2  UNL     1      30.485  42.282  18.727  1.00  0.00    -0.346 OA
ATOM     21  H2  UNL     1      31.034  42.409  19.492  1.00  0.00     0.219 HD
ENDBRANCH  17  20
ENDBRANCH  13  14
ENDBRANCH   4  13
BRANCH   1  22
HETATM   22  O1  UNL     1      35.419  35.473  13.789  1.00  0.00    -0.353 OA
HETATM   23  C1  UNL     1      34.330  34.808  14.369  1.00  0.00     0.210 C 
ENDBRANCH   1  22
BRANCH   9  24
HETATM   24  C13 UNL     1      36.680  41.488  12.211  1.00  0.00     0.119 C 
BRANCH  24  25
HETATM   25  N3  UNL     1      36.048  42.234  11.122  1.00  0.00    -0.360 N 
ATOM     26  H3  UNL     1      35.386  42.988  11.306  1.00  0.00     0.166 HD
BRANCH  25  27
HETATM   27  C14 UNL     1      36.396  41.865   9.813  1.00  0.00     0.173 C 
HETATM   28  N4  UNL     1      36.726  40.665   9.490  1.00  0.00    -0.395 N 
ATOM     29  H42 UNL     1      36.729  39.962  10.229  1.00  0.00     0.156 HD
ATOM     30  H41 UNL     1      36.978  40.397   8.538  1.00  0.00     0.156 HD
ENDBRANCH  25  27
ENDBRANCH  24  25
ENDBRANCH   9  24
BRANCH  11  31
HETATM   31  O4  UNL     1      37.645  39.064  11.749  1.00  0.00    -0.352 OA
HETATM   32  C17 UNL     1      38.966  39.119  12.378  1.00  0.00     0.210 C 
ENDBRANCH  11  31
BRANCH  12  33
HETATM   33  O5  UNL     1      37.345  36.450  12.113  1.00  0.00    -0.351 OA
HETATM   34  C19 UNL     1      37.127  35.796  10.900  1.00  0.00     0.210 C 
ENDBRANCH  12  33
TORSDOF 9
ENDMDL
MODEL 3
REMARK VINA RESULT: -7.201114877      2.921      4.987
REMARK  9 active torsions:
REMARK  status: ('A' for Active; 'I' for Inactive)
REMARK    1  A    between atoms: O1_2  and  C2_3 
REMARK    2  A    between atoms: C5_6  and  C6_7 
REMARK    3  A    between atoms: C6_7  and  C7_8 
REMARK    4  A    between atoms: C10_11  and  O2_12 
REMARK    5  A    between atoms: C12_20  and  C13_21 
REMARK    6  A    between atoms: C13_21  and  N3_22 
REMARK    7  A    between atoms: N3_22  and  C14_24 
REMARK    8  A    between atoms: C16_29  and  O4_30 
REMARK    9  A    between atoms: C18_32  and  O5_33 
ROOT
HETATM    1  C2  UNL     1      35.867  40.894  12.831  1.00  0.00     0.105 A 
HETATM    2  C3  UNL     1      34.795  40.953  13.726  1.00  0.00     0.053 A 
HETATM    3  C4  UNL     1      34.376  39.807  14.367  1.00  0.00    -0.002 A 
HETATM    4  C5  UNL     1      33.316  39.827  15.270  1.00  0.00     0.045 A 
HETATM    5  C11 UNL     1      32.907  38.685  15.917  1.00  0.00     0.257 A 
HETATM    6  O3  UNL     1      31.944  38.709  16.731  1.00  0.00    -0.267 OA
HETATM    7  N2  UNL     1      33.563  37.551  15.653  1.00  0.00    -0.321 N 
ATOM      8  H2  UNL     1      33.261  36.703  16.134  1.00  0.00     0.169 HD
HETATM    9  C12 UNL     1      34.612  37.452  14.781  1.00  0.00     0.064 A 
HETATM   10  C15 UNL     1      35.028  38.574  14.123  1.00  0.00     0.040 A 
HETATM   11  C16 UNL     1      36.068  38.577  13.233  1.00  0.00     0.117 A 
HETATM   12  C18 UNL     1      36.508  39.724  12.576  1.00  0.00     0.136 A 
ENDROOT
BRANCH   4  13
HETATM   13  C6  UNL     1      32.710  40.965  15.491  1.00  0.00     0.047 C 
BRANCH  13  14
HETATM   14  C7  UNL     1      31.248  41.124  15.677  1.00  0.00     0.035 A 
HETATM   15  C8  UNL     1      30.608  42.060  16.498  1.00  0.00     0.034 A 
HETATM   16  C9  UNL     1      29.250  41.858  16.420  1.00  0.00     0.058 A 
HETATM   17  C10 UNL     1      29.050  40.806  15.559  1.00  0.00     0.140 A 
HETATM   18  N1  UNL     1      30.255  40.398  15.139  1.00  0.00    -0.337 N 
ATOM     19  H1  UNL     1      30.400  39.626  14.488  1.00  0.00     0.168 HD
BRANCH  17  20
HETATM   20  O2  UNL     1      27.805  40.256  15.184  1.00  0.00    -0.346 OA
ATOM     21  H2  UNL     1      27.650  39.647  14.471  1.00  0.00     0.219 HD
ENDBRANCH  17  20
ENDBRANCH  13  14
ENDBRANCH   4  13
BRANCH   1  22
HETATM   22  O1  UNL     1      36.264  42.035  12.213  1.00  0.00    -0.353 OA
HETATM   23  C1  UNL     1      36.101  42.359  10.860  1.00  0.00     0.210 C 
ENDBRANCH   1  22
BRANCH   9  24
HETATM   24  C13 UNL     1      35.204  36.295  14.700  1.00  0.00     0.119 C 
BRANCH  24  25
HETATM   25  N3  UNL     1      34.613  35.335  13.767  1.00  0.00    -0.360 N 
ATOM     26  H3  UNL     1      34.908  35.287  12.792  1.00  0.00     0.166 HD
BRANCH  25  27
HETATM   27  C14 UNL     1      33.622  34.481  14.277  1.00  0.00     0.173 C 
HETATM   28  N4  UNL     1      32.404  34.501  13.866  1.00  0.00    -0.395 N 
ATOM     29  H42 UNL     1      32.164  35.173  13.137  1.00  0.00     0.156 HD
ATOM     30  H41 UNL     1      31.684  33.880  14.236  1.00  0.00     0.156 HD
ENDBRANCH  25  27
ENDBRANCH  24  25
ENDBRANCH   9  24
BRANCH  11  31
HETATM   31  O4  UNL     1      36.770  37.419  12.882  1.00  0.00    -0.352 OA
HETATM   32  C17 UNL     1      36.624  37.017  11.482  1.00  0.00     0.210 C 
ENDBRANCH  11  31
BRANCH  12  33
HETATM   33  O5  UNL     1      37.545  39.672  11.711  1.00  0.00    -0.351 OA
HETATM   34  C19 UNL     1      38.886  39.970  11.960  1.00  0.00     0.210 C 
ENDBRANCH  12  33
TORSDOF 9
ENDMDL
MODEL 4
REMARK VINA RESULT: -7.025939844      1.494      1.759
REMARK  9 active torsions:
REMARK  status: ('A' for Active; 'I' for Inactive)
REMARK    1  A    between atoms: O1_2  and  C2_3 
REMARK    2  A    between atoms: C5_6  and  C6_7 
REMARK    3  A    between atoms: C6_7  and  C7_8 
REMARK    4  A    between atoms: C10_11  and  O2_12 
REMARK    5  A    between atoms: C12_20  and  C13_21 
REMARK    6  A    between atoms: C13_21  and  N3_22 
REMARK    7  A    between atoms: N3_22  and  C14_24 
REMARK    8  A    between atoms: C16_29  and  O4_30 
REMARK    9  A    between atoms: C18_32  and  O5_33 
ROOT
HETATM    1  C2  UNL     1      35.669  36.729  13.467  1.00  0.00     0.105 A 
HETATM    2  C3  UNL     1      34.788  37.515  14.213  1.00  0.00     0.053 A 
HETATM    3  C4  UNL     1      34.848  38.889  14.115  1.00  0.00    -0.002 A 
HETATM    4  C5  UNL     1      33.982  39.707  14.838  1.00  0.00     0.045 A 
HETATM    5  C11 UNL     1      34.037  41.076  14.731  1.00  0.00     0.257 A 
HETATM    6  O3  UNL     1      33.253  41.811  15.390  1.00  0.00    -0.267 OA
HETATM    7  N2  UNL     1      34.948  41.601  13.905  1.00  0.00    -0.321 N 
ATOM      8  H2  UNL     1      34.988  42.617  13.823  1.00  0.00     0.169 HD
HETATM    9  C12 UNL     1      35.829  40.864  13.163  1.00  0.00     0.064 A 
HETATM   10  C15 UNL     1      35.797  39.502  13.262  1.00  0.00     0.040 A 
HETATM   11  C16 UNL     1      36.637  38.681  12.560  1.00  0.00     0.117 A 
HETATM   12  C18 UNL     1      36.591  37.291  12.643  1.00  0.00     0.136 A 
ENDROOT
BRANCH   4  13
HETATM   13  C6  UNL     1      33.110  39.140  15.631  1.00  0.00     0.047 C 
BRANCH  13  14
HETATM   14  C7  UNL     1      31.840  39.761  16.075  1.00  0.00     0.035 A 
HETATM   15  C8  UNL     1      31.393  39.896  17.394  1.00  0.00     0.034 A 
HETATM   16  C9  UNL     1      30.154  40.492  17.381  1.00  0.00     0.058 A 
HETATM   17  C10 UNL     1      29.835  40.724  16.065  1.00  0.00     0.140 A 
HETATM   18  N1  UNL     1      30.856  40.278  15.321  1.00  0.00    -0.337 N 
ATOM     19  H1  UNL     1      30.883  40.327  14.303  1.00  0.00     0.168 HD
BRANCH  17  20
HETATM   20  O2  UNL     1      28.650  41.322  15.583  1.00  0.00    -0.346 OA
ATOM     21  H2  UNL     1      27.984  41.753  16.105  1.00  0.00     0.219 HD
ENDBRANCH  17  20
ENDBRANCH  13  14
ENDBRANCH   4  13
BRANCH   1  22
HETATM   22  O1  UNL     1      35.590  35.378  13.577  1.00  0.00    -0.353 OA
HETATM   23  C1  UNL     1      34.550  34.641  14.157  1.00  0.00     0.210 C 
ENDBRANCH   1  22
BRANCH   9  24
HETATM   24  C13 UNL     1      36.596  41.519  12.338  1.00  0.00     0.119 C 
BRANCH  24  25
HETATM   25  N3  UNL     1      35.914  42.266  11.281  1.00  0.00    -0.360 N 
ATOM     26  H3  UNL     1      35.198  42.960  11.494  1.00  0.00     0.166 HD
BRANCH  25  27
HETATM   27  C14 UNL     1      36.290  41.982   9.958  1.00  0.00     0.173 C 
HETATM   28  N4  UNL     1      36.351  40.787   9.490  1.00  0.00    -0.395 N 
ATOM     29  H42 UNL     1      36.111  40.021  10.120  1.00  0.00     0.156 HD
ATOM     30  H41 UNL     1      36.624  40.581   8.528  1.00  0.00     0.156 HD
ENDBRANCH  25  27
ENDBRANCH  24  25
ENDBRANCH   9  24
BRANCH  11  31
HETATM   31  O4  UNL     1      37.637  39.165  11.710  1.00  0.00    -0.352 OA
HETATM   32  C17 UNL     1      38.964  39.257  12.322  1.00  0.00     0.210 C 
ENDBRANCH  11  31
BRANCH  12  33
HETATM   33  O5  UNL     1      37.441  36.525  11.922  1.00  0.00    -0.351 OA
HETATM   34  C19 UNL     1      37.238  35.983  10.652  1.00  0.00     0.210 C 
ENDBRANCH  12  33
TORSDOF 9
ENDMDL
MODEL 5
REMARK VINA RESULT: -7.010108393      3.023      5.315
REMARK  9 active torsions:
REMARK  status: ('A' for Active; 'I' for Inactive)
REMARK    1  A    between atoms: O1_2  and  C2_3 
REMARK    2  A    between atoms: C5_6  and  C6_7 
REMARK    3  A    between atoms: C6_7  and  C7_8 
REMARK    4  A    between atoms: C10_11  and  O2_12 
REMARK    5  A    between atoms: C12_20  and  C13_21 
REMARK    6  A    between atoms: C13_21  and  N3_22 
REMARK    7  A    between atoms: N3_22  and  C14_24 
REMARK    8  A    between atoms: C16_29  and  O4_30 
REMARK    9  A    between atoms: C18_32  and  O5_33 
ROOT
HETATM    1  C2  UNL     1      35.556  41.364  13.526  1.00  0.00     0.105 A 
HETATM    2  C3  UNL     1      34.399  41.209  14.292  1.00  0.00     0.053 A 
HETATM    3  C4  UNL     1      34.042  39.956  14.745  1.00  0.00    -0.002 A 
HETATM    4  C5  UNL     1      32.899  39.763  15.517  1.00  0.00     0.045 A 
HETATM    5  C11 UNL     1      32.551  38.515  15.977  1.00  0.00     0.257 A 
HETATM    6  O3  UNL     1      31.513  38.344  16.673  1.00  0.00    -0.267 OA
HETATM    7  N2  UNL     1      33.349  37.489  15.662  1.00  0.00    -0.321 N 
ATOM      8  H2  UNL     1      33.093  36.564  16.005  1.00  0.00     0.169 HD
HETATM    9  C12 UNL     1      34.487  37.601  14.911  1.00  0.00     0.064 A 
HETATM   10  C15 UNL     1      34.844  38.832  14.438  1.00  0.00     0.040 A 
HETATM   11  C16 UNL     1      35.964  39.044  13.680  1.00  0.00     0.117 A 
HETATM   12  C18 UNL     1      36.344  40.302  13.214  1.00  0.00     0.136 A 
ENDROOT
BRANCH   4  13
HETATM   13  C6  UNL     1      32.154  40.801  15.796  1.00  0.00     0.047 C 
BRANCH  13  14
HETATM   14  C7  UNL     1      31.536  41.071  17.115  1.00  0.00     0.035 A 
HETATM   15  C8  UNL     1      30.234  41.527  17.350  1.00  0.00     0.034 A 
HETATM   16  C9  UNL     1      30.060  41.686  18.705  1.00  0.00     0.058 A 
HETATM   17  C10 UNL     1      31.244  41.332  19.305  1.00  0.00     0.140 A 
HETATM   18  N1  UNL     1      32.094  40.974  18.333  1.00  0.00    -0.337 N 
ATOM     19  H1  UNL     1      33.052  40.664  18.499  1.00  0.00     0.168 HD
BRANCH  17  20
HETATM   20  O2  UNL     1      31.517  41.343  20.690  1.00  0.00    -0.346 OA
ATOM     21  H2  UNL     1      32.364  41.209  21.099  1.00  0.00     0.219 HD
ENDBRANCH  17  20
ENDBRANCH  13  14
ENDBRANCH   4  13
BRANCH   1  22
HETATM   22  O1  UNL     1      35.890  42.607  13.093  1.00  0.00    -0.353 OA
HETATM   23  C1  UNL     1      35.232  43.360  12.112  1.00  0.00     0.210 C 
ENDBRANCH   1  22
BRANCH   9  24
HETATM   24  C13 UNL     1      35.205  36.524  14.766  1.00  0.00     0.119 C 
BRANCH  24  25
HETATM   25  N3  UNL     1      34.684  35.524  13.835  1.00  0.00    -0.360 N 
ATOM     26  H3  UNL     1      34.424  35.768  12.879  1.00  0.00     0.166 HD
BRANCH  25  27
HETATM   27  C14 UNL     1      34.558  34.211  14.318  1.00  0.00     0.173 C 
HETATM   28  N4  UNL     1      34.232  33.941  15.531  1.00  0.00    -0.395 N 
ATOM     29  H42 UNL     1      34.060  34.727  16.159  1.00  0.00     0.156 HD
ATOM     30  H41 UNL     1      34.141  32.987  15.881  1.00  0.00     0.156 HD
ENDBRANCH  25  27
ENDBRANCH  24  25
ENDBRANCH   9  24
BRANCH  11  31
HETATM   31  O4  UNL     1      36.819  38.011  13.282  1.00  0.00    -0.352 OA
HETATM   32  C17 UNL     1      36.626  37.556  11.904  1.00  0.00     0.210 C 
ENDBRANCH  11  31
BRANCH  12  33
HETATM   33  O5  UNL     1      37.463  40.457  12.473  1.00  0.00    -0.351 OA
HETATM   34  C19 UNL     1      37.555  40.733  11.108  1.00  0.00     0.210 C 
ENDBRANCH  12  33
TORSDOF 9
ENDMDL
