MODEL 1
REMARK VINA RESULT: -7.355737621      0.000      0.000
REMARK  6 active torsions:
REMARK  status: ('A' for Active; 'I' for Inactive)
REMARK    1  A    between atoms: C3_5  and  N2_6 
REMARK    2  A    between atoms: C4_9  and  N3_10 
REMARK    3  A    between atoms: N3_10  and  C5_12 
REMARK    4  A    between atoms: C5_12  and  C6_13 
REMARK    5  A    between atoms: C6_13  and  N4_14 
REMARK    6  A    between atoms: C7_20  and  C8_21 
ROOT
HETATM    1  C1  UNL     1       0.583   7.182   8.756  1.00  0.00     0.070 C 
HETATM    2  C2  UNL     1       0.166   7.718  10.076  1.00  0.00     0.036 A 
HETATM    3  N1  UNL     1       0.192   6.834  11.134  1.00  0.00    -0.342 N 
ATOM      4  H1  UNL     1       0.481   5.873  10.953  1.00  0.00     0.167 HD
HETATM    5  C3  UNL     1      -0.142   7.172  12.387  1.00  0.00     0.144 A 
HETATM    6  C4  UNL     1      -0.535   8.456  12.661  1.00  0.00     0.146 A 
HETATM    7  N5  UNL     1      -0.562   9.308  11.650  1.00  0.00    -0.336 N 
ATOM      8  H5  UNL     1      -0.853  10.266  11.846  1.00  0.00     0.168 HD
HETATM    9  C7  UNL     1      -0.223   8.994  10.336  1.00  0.00     0.091 A 
ENDROOT
BRANCH   6  10
HETATM   10  N3  UNL     1      -0.868   8.839  13.849  1.00  0.00    -0.372 N 
ATOM     11  H3  UNL     1      -0.122   8.893  14.541  1.00  0.00     0.161 HD
BRANCH  10  12
HETATM   12  C5  UNL     1      -2.174   9.192  14.284  1.00  0.00     0.148 C 
BRANCH  12  13
HETATM   13  C6  UNL     1      -2.511   8.328  15.507  1.00  0.00     0.249 C 
BRANCH  13  14
HETATM   14  N4  UNL     1      -3.479   9.072  16.318  1.00  0.00    -0.078 N 
ATOM     15  H43 UNL     1      -3.482   8.785  17.296  1.00  0.00     0.274 HD
ATOM     16  H42 UNL     1      -3.210  10.045  16.465  1.00  0.00     0.274 HD
ATOM     17  H41 UNL     1      -4.392   8.974  15.872  1.00  0.00     0.274 HD
ENDBRANCH  13  14
ENDBRANCH  12  13
ENDBRANCH  10  12
ENDBRANCH   6  10
BRANCH   5  18
HETATM   18  N2  UNL     1      -0.110   6.328  13.365  1.00  0.00    -0.382 N 
ATOM     19  H22 UNL     1      -0.886   5.670  13.453  1.00  0.00     0.157 HD
ATOM     20  H21 UNL     1       0.654   6.300  14.040  1.00  0.00     0.157 HD
ENDBRANCH   5  18
BRANCH   9  21
HETATM   21  C8  UNL     1      -0.315  10.062   9.378  1.00  0.00     0.154 A 
HETATM   22  N6  UNL     1      -1.048   9.877   8.205  1.00  0.00    -0.234 N 
HETATM   23  O1  UNL     1      -0.998  10.930   7.484  1.00  0.00    -0.153 OA
ATOM     24  H6  UNL     1      -1.552   9.024   7.959  1.00  0.00     0.197 HD
HETATM   25  N7  UNL     1      -0.296  11.831   8.050  1.00  0.00    -0.204 N 
HETATM   26  C9  UNL     1       0.152  11.303   9.259  1.00  0.00     0.297 A 
ATOM     27  H7  UNL     1      -0.099  12.763   7.686  1.00  0.00     0.200 HD
HETATM   28  O2  UNL     1       0.855  12.037   9.953  1.00  0.00    -0.264 OA
ENDBRANCH   9  21
TORSDOF 6
ENDMDL
MODEL 2
REMARK VINA RESULT: -7.337208420      0.998      1.002
REMARK  6 active torsions:
REMARK  status: ('A' for Active; 'I' for Inactive)
REMARK    1  A    between atoms: C3_5  and  N2_6 
REMARK    2  A    between atoms: C4_9  and  N3_10 
REMARK    3  A    between atoms: N3_10  and  C5_12 
REMARK    4  A    between atoms: C5_12  and  C6_13 
REMARK    5  A    between atoms: C6_13  and  N4_14 
REMARK    6  A    between atoms: C7_20  and  C8_21 
ROOT
HETATM    1  C1  UNL     1       0.203   7.742   9.147  1.00  0.00     0.070 C 
HETATM    2  C2  UNL     1      -0.229   8.120  10.517  1.00  0.00     0.036 A 
HETATM    3  N1  UNL     1      -0.063   7.164  11.497  1.00  0.00    -0.342 N 
ATOM      4  H1  UNL     1       0.329   6.261  11.231  1.00  0.00     0.167 HD
HETATM    5  C3  UNL     1      -0.391   7.360  12.782  1.00  0.00     0.144 A 
HETATM    6  C4  UNL     1      -0.921   8.562  13.171  1.00  0.00     0.146 A 
HETATM    7  N5  UNL     1      -1.081   9.483  12.234  1.00  0.00    -0.336 N 
ATOM      8  H5  UNL     1      -1.474  10.381  12.516  1.00  0.00     0.168 HD
HETATM    9  C7  UNL     1      -0.753   9.315  10.891  1.00  0.00     0.091 A 
ENDROOT
BRANCH   6  10
HETATM   10  N3  UNL     1      -1.255   8.808  14.394  1.00  0.00    -0.372 N 
ATOM     11  H3  UNL     1      -0.503   9.055  15.036  1.00  0.00     0.161 HD
BRANCH  10  12
HETATM   12  C5  UNL     1      -2.570   8.768  14.932  1.00  0.00     0.148 C 
BRANCH  12  13
HETATM   13  C6  UNL     1      -2.550   7.840  16.154  1.00  0.00     0.249 C 
BRANCH  13  14
HETATM   14  N4  UNL     1      -3.941   7.538  16.501  1.00  0.00    -0.078 N 
ATOM     15  H43 UNL     1      -4.442   7.059  15.753  1.00  0.00     0.274 HD
ATOM     16  H42 UNL     1      -4.025   6.808  17.208  1.00  0.00     0.274 HD
ATOM     17  H41 UNL     1      -4.385   8.414  16.779  1.00  0.00     0.274 HD
ENDBRANCH  13  14
ENDBRANCH  12  13
ENDBRANCH  10  12
ENDBRANCH   6  10
BRANCH   5  18
HETATM   18  N2  UNL     1      -0.228   6.451  13.686  1.00  0.00    -0.382 N 
ATOM     19  H22 UNL     1      -0.413   5.481  13.427  1.00  0.00     0.157 HD
ATOM     20  H21 UNL     1       0.075   6.670  14.636  1.00  0.00     0.157 HD
ENDBRANCH   5  18
BRANCH   9  21
HETATM   21  C8  UNL     1      -1.002  10.437  10.027  1.00  0.00     0.154 A 
HETATM   22  N6  UNL     1      -2.265  10.605   9.458  1.00  0.00    -0.234 N 
HETATM   23  O1  UNL     1      -2.280  11.645   8.718  1.00  0.00    -0.153 OA
ATOM     24  H6  UNL     1      -3.062   9.986   9.612  1.00  0.00     0.197 HD
HETATM   25  N7  UNL     1      -1.141  12.217   8.720  1.00  0.00    -0.204 N 
HETATM   26  C9  UNL     1      -0.307  11.466   9.547  1.00  0.00     0.297 A 
ATOM     27  H7  UNL     1      -0.886  13.064   8.212  1.00  0.00     0.200 HD
HETATM   28  O2  UNL     1       0.849  11.869   9.674  1.00  0.00    -0.264 OA
ENDBRANCH   9  21
TORSDOF 6
ENDMDL
MODEL 3
REMARK VINA RESULT: -7.332791752      2.164      4.634
REMARK  6 active torsions:
REMARK  status: ('A' for Active; 'I' for Inactive)
REMARK    1  A    between atoms: C3_5  and  N2_6 
REMARK    2  A    between atoms: C4_9  and  N3_10 
REMARK    3  A    between atoms: N3_10  and  C5_12 
REMARK    4  A    between atoms: C5_12  and  C6_13 
REMARK    5  A    between atoms: C6_13  and  N4_14 
REMARK    6  A    between atoms: C7_20  and  C8_21 
ROOT
HETATM    1  C1  UNL     1      -1.673   9.899  11.758  1.00  0.00     0.070 C 
HETATM    2  C2  UNL     1      -1.166   8.741  10.980  1.00  0.00     0.036 A 
HETATM    3  N1  UNL     1      -1.174   7.520  11.622  1.00  0.00    -0.342 N 
ATOM      4  H1  UNL     1      -1.512   7.482  12.583  1.00  0.00     0.167 HD
HETATM    5  C3  UNL     1      -0.761   6.382  11.047  1.00  0.00     0.144 A 
HETATM    6  C4  UNL     1      -0.302   6.401   9.756  1.00  0.00     0.146 A 
HETATM    7  N5  UNL     1      -0.292   7.570   9.137  1.00  0.00    -0.336 N 
ATOM      8  H5  UNL     1       0.048   7.593   8.175  1.00  0.00     0.168 HD
HETATM    9  C7  UNL     1      -0.712   8.772   9.701  1.00  0.00     0.091 A 
ENDROOT
BRANCH   6  10
HETATM   10  N3  UNL     1       0.108   5.337   9.151  1.00  0.00    -0.372 N 
ATOM     11  H3  UNL     1       1.098   5.109   9.241  1.00  0.00     0.161 HD
BRANCH  10  12
HETATM   12  C5  UNL     1      -0.685   4.452   8.373  1.00  0.00     0.148 C 
BRANCH  12  13
HETATM   13  C6  UNL     1       0.200   3.888   7.253  1.00  0.00     0.249 C 
BRANCH  13  14
HETATM   14  N4  UNL     1      -0.132   4.612   6.023  1.00  0.00    -0.078 N 
ATOM     15  H43 UNL     1      -1.112   4.890   5.978  1.00  0.00     0.274 HD
ATOM     16  H42 UNL     1       0.273   5.547   5.990  1.00  0.00     0.274 HD
ATOM     17  H41 UNL     1       0.152   4.027   5.237  1.00  0.00     0.274 HD
ENDBRANCH  13  14
ENDBRANCH  12  13
ENDBRANCH  10  12
ENDBRANCH   6  10
BRANCH   5  18
HETATM   18  N2  UNL     1      -0.777   5.247  11.666  1.00  0.00    -0.382 N 
ATOM     19  H22 UNL     1      -0.445   5.224  12.630  1.00  0.00     0.157 HD
ATOM     20  H21 UNL     1      -1.107   4.388  11.225  1.00  0.00     0.157 HD
ENDBRANCH   5  18
BRANCH   9  21
HETATM   21  C8  UNL     1      -0.625   9.937   8.862  1.00  0.00     0.154 A 
HETATM   22  N6  UNL     1      -1.297   9.960   7.639  1.00  0.00    -0.234 N 
HETATM   23  O1  UNL     1      -1.086  11.068   7.041  1.00  0.00    -0.153 OA
ATOM     24  H6  UNL     1      -1.874   9.201   7.275  1.00  0.00     0.197 HD
HETATM   25  N7  UNL     1      -0.328  11.819   7.739  1.00  0.00    -0.204 N 
HETATM   26  C9  UNL     1      -0.019  11.121   8.905  1.00  0.00     0.297 A 
ATOM     27  H7  UNL     1      -0.007  12.755   7.490  1.00  0.00     0.200 HD
HETATM   28  O2  UNL     1       0.714  11.694   9.711  1.00  0.00    -0.264 OA
ENDBRANCH   9  21
TORSDOF 6
ENDMDL
MODEL 4
REMARK VINA RESULT: -7.273847083      3.297      5.418
REMARK  6 active torsions:
REMARK  status: ('A' for Active; 'I' for Inactive)
REMARK    1  A    between atoms: C3_5  and  N2_6 
REMARK    2  A    between atoms: C4_9  and  N3_10 
REMARK    3  A    between atoms: N3_10  and  C5_12 
REMARK    4  A    between atoms: C5_12  and  C6_13 
REMARK    5  A    between atoms: C6_13  and  N4_14 
REMARK    6  A    between atoms: C7_20  and  C8_21 
ROOT
HETATM    1  C1  UNL     1       1.061   6.570  11.984  1.00  0.00     0.070 C 
HETATM    2  C2  UNL     1       0.169   7.438  11.175  1.00  0.00     0.036 A 
HETATM    3  N1  UNL     1      -0.186   8.647  11.736  1.00  0.00    -0.342 N 
ATOM      4  H1  UNL     1       0.167   8.870  12.667  1.00  0.00     0.167 HD
HETATM    5  C3  UNL     1      -0.973   9.543  11.124  1.00  0.00     0.144 A 
HETATM    6  C4  UNL     1      -1.463   9.271   9.874  1.00  0.00     0.146 A 
HETATM    7  N5  UNL     1      -1.125   8.114   9.330  1.00  0.00    -0.336 N 
ATOM      8  H5  UNL     1      -1.486   7.905   8.399  1.00  0.00     0.168 HD
HETATM    9  C7  UNL     1      -0.312   7.159   9.936  1.00  0.00     0.091 A 
ENDROOT
BRANCH   6  10
HETATM   10  N3  UNL     1      -2.225  10.096   9.235  1.00  0.00    -0.372 N 
ATOM     11  H3  UNL     1      -3.093  10.371   9.694  1.00  0.00     0.161 HD
BRANCH  10  12
HETATM   12  C5  UNL     1      -1.971  10.658   7.955  1.00  0.00     0.148 C 
BRANCH  12  13
HETATM   13  C6  UNL     1      -0.611  11.366   8.014  1.00  0.00     0.249 C 
BRANCH  13  14
HETATM   14  N4  UNL     1      -0.800  12.623   8.743  1.00  0.00    -0.078 N 
ATOM     15  H43 UNL     1      -1.761  12.962   8.709  1.00  0.00     0.274 HD
ATOM     16  H42 UNL     1      -0.734  12.510   9.755  1.00  0.00     0.274 HD
ATOM     17  H41 UNL     1      -0.128  13.296   8.373  1.00  0.00     0.274 HD
ENDBRANCH  13  14
ENDBRANCH  12  13
ENDBRANCH  10  12
ENDBRANCH   6  10
BRANCH   5  18
HETATM   18  N2  UNL     1      -1.294  10.670  11.668  1.00  0.00    -0.382 N 
ATOM     19  H22 UNL     1      -0.584  11.154  12.218  1.00  0.00     0.157 HD
ATOM     20  H21 UNL     1      -2.221  11.083  11.565  1.00  0.00     0.157 HD
ENDBRANCH   5  18
BRANCH   9  21
HETATM   21  C8  UNL     1      -0.058   5.962   9.180  1.00  0.00     0.154 A 
HETATM   22  N6  UNL     1       0.636   6.041   7.972  1.00  0.00    -0.234 N 
HETATM   23  O1  UNL     1       0.747   4.882   7.451  1.00  0.00    -0.153 OA
ATOM     24  H6  UNL     1       1.003   6.902   7.565  1.00  0.00     0.197 HD
HETATM   25  N7  UNL     1       0.192   4.001   8.187  1.00  0.00    -0.204 N 
HETATM   26  C9  UNL     1      -0.330   4.664   9.296  1.00  0.00     0.297 A 
ATOM     27  H7  UNL     1       0.139   3.000   8.000  1.00  0.00     0.200 HD
HETATM   28  O2  UNL     1      -0.911   3.969  10.129  1.00  0.00    -0.264 OA
ENDBRANCH   9  21
TORSDOF 6
ENDMDL
MODEL 5
REMARK VINA RESULT: -7.242104935      1.124      1.562
REMARK  6 active torsions:
REMARK  status: ('A' for Active; 'I' for Inactive)
REMARK    1  A    between atoms: C3_5  and  N2_6 
REMARK    2  A    between atoms: C4_9  and  N3_10 
REMARK    3  A    between atoms: N3_10  and  C5_12 
REMARK    4  A    between atoms: C5_12  and  C6_13 
REMARK    5  A    between atoms: C6_13  and  N4_14 
REMARK    6  A    between atoms: C7_20  and  C8_21 
ROOT
HETATM    1  C1  UNL     1      -0.194   7.753   8.894  1.00  0.00     0.070 C 
HETATM    2  C2  UNL     1      -0.488   8.111  10.305  1.00  0.00     0.036 A 
HETATM    3  N1  UNL     1      -0.606   7.062  11.192  1.00  0.00    -0.342 N 
ATOM      4  H1  UNL     1      -0.498   6.113  10.836  1.00  0.00     0.167 HD
HETATM    5  C3  UNL     1      -0.854   7.225  12.500  1.00  0.00     0.144 A 
HETATM    6  C4  UNL     1      -1.004   8.488  13.009  1.00  0.00     0.146 A 
HETATM    7  N5  UNL     1      -0.892   9.498  12.161  1.00  0.00    -0.336 N 
ATOM      8  H5  UNL     1      -1.001  10.442  12.533  1.00  0.00     0.168 HD
HETATM    9  C7  UNL     1      -0.635   9.368  10.799  1.00  0.00     0.091 A 
ENDROOT
BRANCH   6  10
HETATM   10  N3  UNL     1      -1.245   8.707  14.259  1.00  0.00    -0.372 N 
ATOM     11  H3  UNL     1      -0.501   8.477  14.918  1.00  0.00     0.161 HD
BRANCH  10  12
HETATM   12  C5  UNL     1      -2.445   9.235  14.805  1.00  0.00     0.148 C 
BRANCH  12  13
HETATM   13  C6  UNL     1      -3.182   8.091  15.515  1.00  0.00     0.249 C 
BRANCH  13  14
HETATM   14  N4  UNL     1      -2.396   7.728  16.697  1.00  0.00    -0.078 N 
ATOM     15  H43 UNL     1      -2.925   7.175  17.372  1.00  0.00     0.274 HD
ATOM     16  H42 UNL     1      -1.673   7.036  16.496  1.00  0.00     0.274 HD
ATOM     17  H41 UNL     1      -2.023   8.590  17.094  1.00  0.00     0.274 HD
ENDBRANCH  13  14
ENDBRANCH  12  13
ENDBRANCH  10  12
ENDBRANCH   6  10
BRANCH   5  18
HETATM   18  N2  UNL     1      -0.961   6.228  13.315  1.00  0.00    -0.382 N 
ATOM     19  H22 UNL     1      -1.283   5.336  12.939  1.00  0.00     0.157 HD
ATOM     20  H21 UNL     1      -0.737   6.306  14.307  1.00  0.00     0.157 HD
ENDBRANCH   5  18
BRANCH   9  21
HETATM   21  C8  UNL     1      -0.547  10.588  10.045  1.00  0.00     0.154 A 
HETATM   22  N6  UNL     1       0.519  11.463  10.266  1.00  0.00    -0.234 N 
HETATM   23  O1  UNL     1       0.410  12.488   9.513  1.00  0.00    -0.153 OA
ATOM     24  H6  UNL     1       1.275  11.305  10.932  1.00  0.00     0.197 HD
HETATM   25  N7  UNL     1      -0.635  12.407   8.787  1.00  0.00    -0.204 N 
HETATM   26  C9  UNL     1      -1.263  11.205   9.107  1.00  0.00     0.297 A 
ATOM     27  H7  UNL     1      -0.952  13.092   8.102  1.00  0.00     0.200 HD
HETATM   28  O2  UNL     1      -2.303  10.949   8.500  1.00  0.00    -0.264 OA
ENDBRANCH   9  21
TORSDOF 6
ENDMDL
