MODEL 1
REMARK VINA RESULT: -6.163493494      0.000      0.000
REMARK  2 active torsions:
REMARK  status: ('A' for Active; 'I' for Inactive)
REMARK       I    between atoms: C1_4  and  N2_5 
REMARK       I    between atoms: C1_4  and  N4_10 
REMARK    1  A    between atoms: N2_5  and  N3_7 
REMARK    2  A    between atoms: N6_15  and  O2_16 
ROOT
HETATM    1  N1  UNL     1      -2.184   9.300  10.280  1.00  0.00    -0.232 N 
ATOM      2  H11 UNL     1      -2.913   9.859   9.836  1.00  0.00     0.174 HD
ATOM      3  H12 UNL     1      -2.473   8.453  10.769  1.00  0.00     0.174 HD
HETATM    4  C1  UNL     1      -0.949   9.674  10.211  1.00  0.00     0.714 C 
HETATM    5  N2  UNL     1       0.061   8.900  10.827  1.00  0.00    -0.137 N 
ATOM      6  H2  UNL     1       0.469   9.184  11.717  1.00  0.00     0.205 HD
HETATM    7  N4  UNL     1      -0.552  10.840   9.539  1.00  0.00    -0.007 N 
HETATM    8  C2  UNL     1      -0.631  11.343   8.209  1.00  0.00     0.373 C 
HETATM    9  O1  UNL     1      -0.745  10.840   7.047  1.00  0.00    -0.243 OA
HETATM   10  N5  UNL     1      -0.523  12.622   8.803  1.00  0.00    -0.226 N 
ATOM     11  H5  UNL     1      -0.788  13.573   8.545  1.00  0.00     0.190 HD
HETATM   12  N6  UNL     1       0.101  12.022   9.890  1.00  0.00     0.026 NA
ENDROOT
BRANCH   5  13
HETATM   13  N3  UNL     1       0.482   7.743  10.186  1.00  0.00    -0.331 N 
ATOM     14  H32 UNL     1       0.875   6.974  10.730  1.00  0.00     0.177 HD
ATOM     15  H31 UNL     1       0.387   7.691   9.172  1.00  0.00     0.177 HD
ENDBRANCH   5  13
BRANCH  12  16
HETATM   16  O2  UNL     1       1.447  11.844   9.718  1.00  0.00    -0.275 OA
ATOM     17  H2  UNL     1       1.654  10.931   9.881  1.00  0.00     0.241 HD
ENDBRANCH  12  16
TORSDOF 2
ENDMDL
MODEL 2
REMARK VINA RESULT: -6.142505863      1.427      2.471
REMARK  2 active torsions:
REMARK  status: ('A' for Active; 'I' for Inactive)
REMARK       I    between atoms: C1_4  and  N2_5 
REMARK       I    between atoms: C1_4  and  N4_10 
REMARK    1  A    between atoms: N2_5  and  N3_7 
REMARK    2  A    between atoms: N6_15  and  O2_16 
ROOT
HETATM    1  N1  UNL     1       0.624   8.507  10.205  1.00  0.00    -0.232 N 
ATOM      2  H11 UNL     1       1.408   8.721   9.589  1.00  0.00     0.174 HD
ATOM      3  H12 UNL     1       0.704   7.681  10.799  1.00  0.00     0.174 HD
HETATM    4  C1  UNL     1      -0.419   9.270  10.217  1.00  0.00     0.714 C 
HETATM    5  N2  UNL     1      -1.505   8.972  11.072  1.00  0.00    -0.137 N 
ATOM      6  H2  UNL     1      -2.353   8.537  10.709  1.00  0.00     0.205 HD
HETATM    7  N4  UNL     1      -0.530  10.406   9.401  1.00  0.00    -0.007 N 
HETATM    8  C2  UNL     1       0.185  11.625   9.226  1.00  0.00     0.373 C 
HETATM    9  O1  UNL     1       0.956  12.342   9.938  1.00  0.00    -0.243 OA
HETATM   10  N5  UNL     1      -0.368  11.635   7.924  1.00  0.00    -0.226 N 
ATOM     11  H5  UNL     1      -0.117  12.050   7.027  1.00  0.00     0.190 HD
HETATM   12  N6  UNL     1      -1.400  10.835   8.398  1.00  0.00     0.026 NA
ENDROOT
BRANCH   5  13
HETATM   13  N3  UNL     1      -1.386   9.289  12.418  1.00  0.00    -0.331 N 
ATOM     14  H32 UNL     1      -0.501   9.135  12.901  1.00  0.00     0.177 HD
ATOM     15  H31 UNL     1      -2.200   9.675  12.896  1.00  0.00     0.177 HD
ENDBRANCH   5  13
BRANCH  12  16
HETATM   16  O2  UNL     1      -2.418  11.542   8.978  1.00  0.00    -0.275 OA
ATOM     17  H2  UNL     1      -2.467  12.396   8.565  1.00  0.00     0.241 HD
ENDBRANCH  12  16
TORSDOF 2
ENDMDL
MODEL 3
REMARK VINA RESULT: -5.974418450      1.872      2.411
REMARK  2 active torsions:
REMARK  status: ('A' for Active; 'I' for Inactive)
REMARK       I    between atoms: C1_4  and  N2_5 
REMARK       I    between atoms: C1_4  and  N4_10 
REMARK    1  A    between atoms: N2_5  and  N3_7 
REMARK    2  A    between atoms: N6_15  and  O2_16 
ROOT
HETATM    1  N1  UNL     1      -0.280   8.768  11.127  1.00  0.00    -0.232 N 
ATOM      2  H11 UNL     1      -0.831   9.385  11.724  1.00  0.00     0.174 HD
ATOM      3  H12 UNL     1       0.297   8.062  11.585  1.00  0.00     0.174 HD
HETATM    4  C1  UNL     1      -0.331   8.894   9.842  1.00  0.00     0.714 C 
HETATM    5  N2  UNL     1       0.432   8.039   9.015  1.00  0.00    -0.137 N 
ATOM      6  H2  UNL     1       1.299   8.362   8.586  1.00  0.00     0.205 HD
HETATM    7  N4  UNL     1      -1.125   9.865   9.213  1.00  0.00    -0.007 N 
HETATM    8  C2  UNL     1      -2.511  10.189   9.158  1.00  0.00     0.373 C 
HETATM    9  O1  UNL     1      -3.603   9.562   9.332  1.00  0.00    -0.243 OA
HETATM   10  N5  UNL     1      -2.081  11.495   8.826  1.00  0.00    -0.226 N 
ATOM     11  H5  UNL     1      -2.472  12.434   8.899  1.00  0.00     0.190 HD
HETATM   12  N6  UNL     1      -0.894  10.944   8.358  1.00  0.00     0.026 NA
ENDROOT
BRANCH   5  13
HETATM   13  N3  UNL     1      -0.031   6.748   8.803  1.00  0.00    -0.331 N 
ATOM     14  H32 UNL     1      -0.627   6.299   9.499  1.00  0.00     0.177 HD
ATOM     15  H31 UNL     1       0.241   6.274   7.941  1.00  0.00     0.177 HD
ENDBRANCH   5  13
BRANCH  12  16
HETATM   16  O2  UNL     1      -0.970  10.500   7.066  1.00  0.00    -0.275 OA
ATOM     17  H2  UNL     1      -1.003  11.253   6.488  1.00  0.00     0.241 HD
ENDBRANCH  12  16
TORSDOF 2
ENDMDL
MODEL 4
REMARK VINA RESULT: -5.925526510      1.697      2.466
REMARK  2 active torsions:
REMARK  status: ('A' for Active; 'I' for Inactive)
REMARK       I    between atoms: C1_4  and  N2_5 
REMARK       I    between atoms: C1_4  and  N4_10 
REMARK    1  A    between atoms: N2_5  and  N3_7 
REMARK    2  A    between atoms: N6_15  and  O2_16 
ROOT
HETATM    1  N1  UNL     1      -0.127   7.680   9.303  1.00  0.00    -0.232 N 
ATOM      2  H11 UNL     1       0.381   7.702   8.419  1.00  0.00     0.174 HD
ATOM      3  H12 UNL     1       0.005   6.865   9.902  1.00  0.00     0.174 HD
HETATM    4  C1  UNL     1      -0.902   8.661   9.630  1.00  0.00     0.714 C 
HETATM    5  N2  UNL     1      -1.606   8.631  10.855  1.00  0.00    -0.137 N 
ATOM      6  H2  UNL     1      -2.599   8.397  10.884  1.00  0.00     0.205 HD
HETATM    7  N4  UNL     1      -1.085   9.782   8.806  1.00  0.00    -0.007 N 
HETATM    8  C2  UNL     1      -0.260  10.804   8.253  1.00  0.00     0.373 C 
HETATM    9  O1  UNL     1       0.857  11.335   8.548  1.00  0.00    -0.243 OA
HETATM   10  N5  UNL     1      -1.261  10.924   7.261  1.00  0.00    -0.226 N 
ATOM     11  H5  UNL     1      -1.300  11.259   6.299  1.00  0.00     0.190 HD
HETATM   12  N6  UNL     1      -2.169  10.387   8.166  1.00  0.00     0.026 NA
ENDROOT
BRANCH   5  13
HETATM   13  N3  UNL     1      -0.910   8.929  12.019  1.00  0.00    -0.331 N 
ATOM     14  H32 UNL     1      -0.635   9.892  12.215  1.00  0.00     0.177 HD
ATOM     15  H31 UNL     1      -0.689   8.165  12.657  1.00  0.00     0.177 HD
ENDBRANCH   5  13
BRANCH  12  16
HETATM   16  O2  UNL     1      -2.711  11.315   9.013  1.00  0.00    -0.275 OA
ATOM     17  H2  UNL     1      -3.639  11.391   8.823  1.00  0.00     0.241 HD
ENDBRANCH  12  16
TORSDOF 2
ENDMDL
MODEL 5
REMARK VINA RESULT: -5.609812879      1.634      2.118
REMARK  2 active torsions:
REMARK  status: ('A' for Active; 'I' for Inactive)
REMARK       I    between atoms: C1_4  and  N2_5 
REMARK       I    between atoms: C1_4  and  N4_10 
REMARK    1  A    between atoms: N2_5  and  N3_7 
REMARK    2  A    between atoms: N6_15  and  O2_16 
ROOT
HETATM    1  N1  UNL     1       0.118   7.620   8.698  1.00  0.00    -0.232 N 
ATOM      2  H11 UNL     1      -0.033   7.967   7.751  1.00  0.00     0.174 HD
ATOM      3  H12 UNL     1       0.454   6.663   8.801  1.00  0.00     0.174 HD
HETATM    4  C1  UNL     1      -0.113   8.386   9.713  1.00  0.00     0.714 C 
HETATM    5  N2  UNL     1       0.097   7.905  11.026  1.00  0.00    -0.137 N 
ATOM      6  H2  UNL     1      -0.687   7.612  11.609  1.00  0.00     0.205 HD
HETATM    7  N4  UNL     1      -0.575   9.703   9.573  1.00  0.00    -0.007 N 
HETATM    8  C2  UNL     1      -0.112  10.900   8.956  1.00  0.00     0.373 C 
HETATM    9  O1  UNL     1       1.018  11.372   8.611  1.00  0.00    -0.243 OA
HETATM   10  N5  UNL     1      -1.474  11.280   8.921  1.00  0.00    -0.226 N 
ATOM     11  H5  UNL     1      -2.041  11.914   8.358  1.00  0.00     0.190 HD
HETATM   12  N6  UNL     1      -1.702  10.416   9.985  1.00  0.00     0.026 NA
ENDROOT
BRANCH   5  13
HETATM   13  N3  UNL     1       1.400   7.842  11.500  1.00  0.00    -0.331 N 
ATOM     14  H32 UNL     1       1.949   8.697  11.596  1.00  0.00     0.177 HD
ATOM     15  H31 UNL     1       1.780   6.928  11.745  1.00  0.00     0.177 HD
ENDBRANCH   5  13
BRANCH  12  16
HETATM   16  O2  UNL     1      -1.443  10.973  11.207  1.00  0.00    -0.275 OA
ATOM     17  H2  UNL     1      -1.623  11.905  11.159  1.00  0.00     0.241 HD
ENDBRANCH  12  16
TORSDOF 2
ENDMDL
