MODEL 1
REMARK VINA RESULT: -8.789584990      0.000      0.000
REMARK  8 active torsions:
REMARK  status: ('A' for Active; 'I' for Inactive)
REMARK    1  A    between atoms: C10_13  and  C12_15 
REMARK    2  A    between atoms: C12_15  and  O3_16 
REMARK    3  A    between atoms: O3_16  and  C13_17 
REMARK    4  A    between atoms: C13_17  and  C14_19 
REMARK    5  A    between atoms: C15_21  and  C16_22 
REMARK    6  A    between atoms: C16_22  and  N1_23 
REMARK       I    between atoms: N1_23  and  C17_25 
REMARK    7  A    between atoms: C17_25  and  O7_27 
REMARK    8  A    between atoms: O7_27  and  C18_28 
ROOT
HETATM    1  C13 UNL     1       7.220   9.206  19.180  1.00  0.00     0.290 C 
HETATM    2  O4  UNL     1       6.351  10.133  19.336  1.00  0.00    -0.262 OA
ENDROOT
BRANCH   1   3
HETATM    3  O3  UNL     1       6.712   8.038  18.663  1.00  0.00    -0.319 OA
BRANCH   3   4
HETATM    4  C12 UNL     1       7.319   6.771  18.844  1.00  0.00     0.189 C 
BRANCH   4   5
HETATM    5  C10 UNL     1       6.559   5.664  18.196  1.00  0.00     0.000 C 
HETATM    6  C5  UNL     1       7.145   4.367  18.546  1.00  0.00     0.038 C 
HETATM    7  C4  UNL     1       7.056   3.770  19.856  1.00  0.00     0.161 A 
HETATM    8  C6  UNL     1       6.431   3.460  17.548  1.00  0.00     0.057 C 
HETATM    9  C3  UNL     1       7.707   2.379  19.748  1.00  0.00     0.182 A 
HETATM   10  O1  UNL     1       6.343   2.476  19.988  1.00  0.00    -0.370 OA
HETATM   11  C2  UNL     1       8.200   2.092  18.388  1.00  0.00    -0.029 C 
HETATM   12  C1  UNL     1       9.366   1.484  18.251  1.00  0.00     0.019 C 
HETATM   13  C7  UNL     1       7.466   2.445  17.141  1.00  0.00     0.159 C 
HETATM   14  O2  UNL     1       8.040   3.529  16.426  1.00  0.00    -0.374 OA
HETATM   15  C8  UNL     1       6.776   4.155  16.282  1.00  0.00     0.145 C 
HETATM   16  C9  UNL     1       6.747   5.625  16.686  1.00  0.00     0.098 C 
HETATM   17 BR1  UNL     1       5.172   6.393  15.829  1.00  0.00    -0.088 Br
HETATM   18  C11 UNL     1       5.099   5.809  18.554  1.00  0.00     0.019 C 
ENDBRANCH   4   5
ENDBRANCH   3   4
ENDBRANCH   1   3
BRANCH   1  19
HETATM   19  C14 UNL     1       8.624   9.469  19.554  1.00  0.00     0.252 A 
HETATM   20  O5  UNL     1       8.845  10.734  20.103  1.00  0.00    -0.363 OA
HETATM   21  C15 UNL     1       9.196   9.563  20.835  1.00  0.00     0.179 A 
BRANCH  21  22
HETATM   22  C16 UNL     1       8.483   9.352  22.137  1.00  0.00     0.160 C 
BRANCH  22  23
HETATM   23  N1  UNL     1       9.262   8.653  23.134  1.00  0.00    -0.334 N 
HETATM   24  C17 UNL     1      10.284   9.267  23.887  1.00  0.00     0.361 C 
HETATM   25  O6  UNL     1      10.570  10.467  23.732  1.00  0.00    -0.239 OA
ATOM     26  H1  UNL     1       9.062   7.667  23.301  1.00  0.00     0.164 HD
BRANCH  24  27
HETATM   27  O7  UNL     1      11.015   8.544  24.841  1.00  0.00    -0.295 OA
BRANCH  27  28
HETATM   28  C18 UNL     1      10.668   8.570  26.209  1.00  0.00     0.184 C 
HETATM   29  C19 UNL     1      11.198   7.326  26.900  1.00  0.00     0.266 C 
HETATM   30  N2  UNL     1       9.909   7.111  27.523  1.00  0.00    -0.070 N 
HETATM   31  C20 UNL     1       9.319   8.008  26.551  1.00  0.00     0.266 C 
ATOM     32  H22 UNL     1       9.544   6.167  27.643  1.00  0.00     0.277 HD
ATOM     33  H21 UNL     1       9.783   7.277  28.522  1.00  0.00     0.277 HD
ENDBRANCH  27  28
ENDBRANCH  24  27
ENDBRANCH  22  23
ENDBRANCH  21  22
ENDBRANCH   1  19
TORSDOF 8
ENDMDL
MODEL 2
REMARK VINA RESULT: -8.671193111      1.330      1.586
REMARK  8 active torsions:
REMARK  status: ('A' for Active; 'I' for Inactive)
REMARK    1  A    between atoms: C10_13  and  C12_15 
REMARK    2  A    between atoms: C12_15  and  O3_16 
REMARK    3  A    between atoms: O3_16  and  C13_17 
REMARK    4  A    between atoms: C13_17  and  C14_19 
REMARK    5  A    between atoms: C15_21  and  C16_22 
REMARK    6  A    between atoms: C16_22  and  N1_23 
REMARK       I    between atoms: N1_23  and  C17_25 
REMARK    7  A    between atoms: C17_25  and  O7_27 
REMARK    8  A    between atoms: O7_27  and  C18_28 
ROOT
HETATM    1  C13 UNL     1       6.969   7.724  21.150  1.00  0.00     0.290 C 
HETATM    2  O4  UNL     1       7.984   7.051  21.543  1.00  0.00    -0.262 OA
ENDROOT
BRANCH   1   3
HETATM    3  O3  UNL     1       6.621   7.506  19.839  1.00  0.00    -0.319 OA
BRANCH   3   4
HETATM    4  C12 UNL     1       7.397   6.735  18.939  1.00  0.00     0.189 C 
BRANCH   4   5
HETATM    5  C10 UNL     1       6.621   5.639  18.291  1.00  0.00     0.000 C 
HETATM    6  C5  UNL     1       7.217   4.336  18.599  1.00  0.00     0.038 C 
HETATM    7  C4  UNL     1       7.165   3.714  19.898  1.00  0.00     0.161 A 
HETATM    8  C6  UNL     1       6.476   3.448  17.603  1.00  0.00     0.057 C 
HETATM    9  C3  UNL     1       7.813   2.326  19.745  1.00  0.00     0.182 A 
HETATM   10  O1  UNL     1       6.457   2.417  20.024  1.00  0.00    -0.370 OA
HETATM   11  C2  UNL     1       8.269   2.067  18.366  1.00  0.00    -0.029 C 
HETATM   12  C1  UNL     1       9.431   1.463  18.186  1.00  0.00     0.019 C 
HETATM   13  C7  UNL     1       7.500   2.443  17.147  1.00  0.00     0.159 C 
HETATM   14  O2  UNL     1       8.053   3.542  16.438  1.00  0.00    -0.374 OA
HETATM   15  C8  UNL     1       6.785   4.169  16.342  1.00  0.00     0.145 C 
HETATM   16  C9  UNL     1       6.767   5.631  16.775  1.00  0.00     0.098 C 
HETATM   17 BR1  UNL     1       5.168   6.414  15.978  1.00  0.00    -0.088 Br
HETATM   18  C11 UNL     1       5.171   5.775  18.692  1.00  0.00     0.019 C 
ENDBRANCH   4   5
ENDBRANCH   3   4
ENDBRANCH   1   3
BRANCH   1  19
HETATM   19  C14 UNL     1       6.296   8.630  22.103  1.00  0.00     0.252 A 
HETATM   20  O5  UNL     1       6.533   8.329  23.446  1.00  0.00    -0.363 OA
HETATM   21  C15 UNL     1       6.857   9.617  22.932  1.00  0.00     0.179 A 
BRANCH  21  22
HETATM   22  C16 UNL     1       8.304  10.009  22.981  1.00  0.00     0.160 C 
BRANCH  22  23
HETATM   23  N1  UNL     1       9.104   9.213  23.883  1.00  0.00    -0.334 N 
HETATM   24  C17 UNL     1      10.513   9.266  23.920  1.00  0.00     0.361 C 
HETATM   25  O6  UNL     1      11.152  10.021  23.165  1.00  0.00    -0.239 OA
ATOM     26  H1  UNL     1       8.626   8.581  24.525  1.00  0.00     0.164 HD
BRANCH  24  27
HETATM   27  O7  UNL     1      11.245   8.470  24.812  1.00  0.00    -0.295 OA
BRANCH  27  28
HETATM   28  C18 UNL     1      11.021   8.526  26.205  1.00  0.00     0.184 C 
HETATM   29  C19 UNL     1      12.001   7.615  26.924  1.00  0.00     0.266 C 
HETATM   30  N2  UNL     1      10.918   7.049  27.701  1.00  0.00    -0.070 N 
HETATM   31  C20 UNL     1       9.980   7.585  26.736  1.00  0.00     0.266 C 
ATOM     32  H22 UNL     1      10.911   6.056  27.931  1.00  0.00     0.277 HD
ATOM     33  H21 UNL     1      10.823   7.270  28.692  1.00  0.00     0.277 HD
ENDBRANCH  27  28
ENDBRANCH  24  27
ENDBRANCH  22  23
ENDBRANCH  21  22
ENDBRANCH   1  19
TORSDOF 8
ENDMDL
MODEL 3
REMARK VINA RESULT: -8.610753782      1.034      1.199
REMARK  8 active torsions:
REMARK  status: ('A' for Active; 'I' for Inactive)
REMARK    1  A    between atoms: C10_13  and  C12_15 
REMARK    2  A    between atoms: C12_15  and  O3_16 
REMARK    3  A    between atoms: O3_16  and  C13_17 
REMARK    4  A    between atoms: C13_17  and  C14_19 
REMARK    5  A    between atoms: C15_21  and  C16_22 
REMARK    6  A    between atoms: C16_22  and  N1_23 
REMARK       I    between atoms: N1_23  and  C17_25 
REMARK    7  A    between atoms: C17_25  and  O7_27 
REMARK    8  A    between atoms: O7_27  and  C18_28 
ROOT
HETATM    1  C13 UNL     1       7.910   7.224  20.312  1.00  0.00     0.290 C 
HETATM    2  O4  UNL     1       8.021   6.626  21.439  1.00  0.00    -0.262 OA
ENDROOT
BRANCH   1   3
HETATM    3  O3  UNL     1       7.000   6.650  19.457  1.00  0.00    -0.319 OA
BRANCH   3   4
HETATM    4  C12 UNL     1       7.271   6.372  18.095  1.00  0.00     0.189 C 
BRANCH   4   5
HETATM    5  C10 UNL     1       6.593   5.138  17.606  1.00  0.00     0.000 C 
HETATM    6  C5  UNL     1       7.368   3.948  17.967  1.00  0.00     0.038 C 
HETATM    7  C4  UNL     1       7.490   3.444  19.313  1.00  0.00     0.161 A 
HETATM    8  C6  UNL     1       6.672   2.892  17.112  1.00  0.00     0.057 C 
HETATM    9  C3  UNL     1       8.293   2.134  19.219  1.00  0.00     0.182 A 
HETATM   10  O1  UNL     1       6.960   2.089  19.603  1.00  0.00    -0.370 OA
HETATM   11  C2  UNL     1       8.675   1.807  17.832  1.00  0.00    -0.029 C 
HETATM   12  C1  UNL     1       9.887   1.331  17.604  1.00  0.00     0.019 C 
HETATM   13  C7  UNL     1       7.778   1.977  16.656  1.00  0.00     0.159 C 
HETATM   14  O2  UNL     1       8.136   3.065  15.815  1.00  0.00    -0.374 OA
HETATM   15  C8  UNL     1       6.796   3.527  15.775  1.00  0.00     0.145 C 
HETATM   16  C9  UNL     1       6.627   5.009  16.089  1.00  0.00     0.098 C 
HETATM   17 BR1  UNL     1       4.889   5.522  15.368  1.00  0.00    -0.088 Br
HETATM   18  C11 UNL     1       5.171   5.138  18.114  1.00  0.00     0.019 C 
ENDBRANCH   4   5
ENDBRANCH   3   4
ENDBRANCH   1   3
BRANCH   1  19
HETATM   19  C14 UNL     1       8.734   8.421  20.052  1.00  0.00     0.252 A 
HETATM   20  O5  UNL     1       8.003   9.603  19.913  1.00  0.00    -0.363 OA
HETATM   21  C15 UNL     1       9.021   9.501  20.905  1.00  0.00     0.179 A 
BRANCH  21  22
HETATM   22  C16 UNL     1       8.578   9.640  22.330  1.00  0.00     0.160 C 
BRANCH  22  23
HETATM   23  N1  UNL     1       9.341   8.848  23.268  1.00  0.00    -0.334 N 
HETATM   24  C17 UNL     1      10.485   9.331  23.938  1.00  0.00     0.361 C 
HETATM   25  O6  UNL     1      10.901  10.489  23.755  1.00  0.00    -0.239 OA
ATOM     26  H1  UNL     1       9.038   7.892  23.455  1.00  0.00     0.164 HD
BRANCH  24  27
HETATM   27  O7  UNL     1      11.194   8.522  24.837  1.00  0.00    -0.295 OA
BRANCH  27  28
HETATM   28  C18 UNL     1      10.930   8.554  26.223  1.00  0.00     0.184 C 
HETATM   29  C19 UNL     1      11.822   7.556  26.942  1.00  0.00     0.266 C 
HETATM   30  N2  UNL     1      10.680   7.045  27.669  1.00  0.00    -0.070 N 
HETATM   31  C20 UNL     1       9.811   7.672  26.694  1.00  0.00     0.266 C 
ATOM     32  H22 UNL     1      10.598   6.049  27.869  1.00  0.00     0.277 HD
ATOM     33  H21 UNL     1      10.569   7.244  28.664  1.00  0.00     0.277 HD
ENDBRANCH  27  28
ENDBRANCH  24  27
ENDBRANCH  22  23
ENDBRANCH  21  22
ENDBRANCH   1  19
TORSDOF 8
ENDMDL
MODEL 4
REMARK VINA RESULT: -8.600561956      0.983      1.227
REMARK  8 active torsions:
REMARK  status: ('A' for Active; 'I' for Inactive)
REMARK    1  A    between atoms: C10_13  and  C12_15 
REMARK    2  A    between atoms: C12_15  and  O3_16 
REMARK    3  A    between atoms: O3_16  and  C13_17 
REMARK    4  A    between atoms: C13_17  and  C14_19 
REMARK    5  A    between atoms: C15_21  and  C16_22 
REMARK    6  A    between atoms: C16_22  and  N1_23 
REMARK       I    between atoms: N1_23  and  C17_25 
REMARK    7  A    between atoms: C17_25  and  O7_27 
REMARK    8  A    between atoms: O7_27  and  C18_28 
ROOT
HETATM    1  C13 UNL     1       7.677   9.225  19.618  1.00  0.00     0.290 C 
HETATM    2  O4  UNL     1       8.788   9.855  19.528  1.00  0.00    -0.262 OA
ENDROOT
BRANCH   1   3
HETATM    3  O3  UNL     1       7.604   8.097  18.837  1.00  0.00    -0.319 OA
BRANCH   3   4
HETATM    4  C12 UNL     1       7.737   6.782  19.345  1.00  0.00     0.189 C 
BRANCH   4   5
HETATM    5  C10 UNL     1       6.822   5.806  18.687  1.00  0.00     0.000 C 
HETATM    6  C5  UNL     1       7.327   4.440  18.845  1.00  0.00     0.038 C 
HETATM    7  C4  UNL     1       7.326   3.720  20.094  1.00  0.00     0.161 A 
HETATM    8  C6  UNL     1       6.437   3.697  17.853  1.00  0.00     0.057 C 
HETATM    9  C3  UNL     1       7.840   2.303  19.783  1.00  0.00     0.182 A 
HETATM   10  O1  UNL     1       6.523   2.477  20.184  1.00  0.00    -0.370 OA
HETATM   11  C2  UNL     1       8.161   2.121  18.356  1.00  0.00    -0.029 C 
HETATM   12  C1  UNL     1       9.250   1.445  18.031  1.00  0.00     0.019 C 
HETATM   13  C7  UNL     1       7.333   2.654  17.238  1.00  0.00     0.159 C 
HETATM   14  O2  UNL     1       7.919   3.760  16.568  1.00  0.00    -0.374 OA
HETATM   15  C8  UNL     1       6.706   4.491  16.627  1.00  0.00     0.145 C 
HETATM   16  C9  UNL     1       6.846   5.909  17.168  1.00  0.00     0.098 C 
HETATM   17 BR1  UNL     1       5.261   6.877  16.571  1.00  0.00    -0.088 Br
HETATM   18  C11 UNL     1       5.426   6.023  19.219  1.00  0.00     0.019 C 
ENDBRANCH   4   5
ENDBRANCH   3   4
ENDBRANCH   1   3
BRANCH   1  19
HETATM   19  C14 UNL     1       6.626   9.749  20.514  1.00  0.00     0.252 A 
HETATM   20  O5  UNL     1       6.345   8.930  21.610  1.00  0.00    -0.363 OA
HETATM   21  C15 UNL     1       6.752  10.281  21.809  1.00  0.00     0.179 A 
BRANCH  21  22
HETATM   22  C16 UNL     1       8.035  10.487  22.557  1.00  0.00     0.160 C 
BRANCH  22  23
HETATM   23  N1  UNL     1       8.340   9.445  23.510  1.00  0.00    -0.334 N 
HETATM   24  C17 UNL     1       9.656   9.086  23.869  1.00  0.00     0.361 C 
HETATM   25  O6  UNL     1      10.642   9.662  23.377  1.00  0.00    -0.239 OA
ATOM     26  H1  UNL     1       7.565   8.944  23.946  1.00  0.00     0.164 HD
BRANCH  24  27
HETATM   27  O7  UNL     1       9.901   8.063  24.798  1.00  0.00    -0.295 OA
BRANCH  27  28
HETATM   28  C18 UNL     1      10.225   8.351  26.141  1.00  0.00     0.184 C 
HETATM   29  C19 UNL     1      11.671   7.973  26.416  1.00  0.00     0.266 C 
HETATM   30  N2  UNL     1      11.270   7.282  27.623  1.00  0.00    -0.070 N 
HETATM   31  C20 UNL     1       9.907   7.272  27.134  1.00  0.00     0.266 C 
ATOM     32  H22 UNL     1      11.728   6.413  27.897  1.00  0.00     0.277 HD
ATOM     33  H21 UNL     1      11.488   7.674  28.539  1.00  0.00     0.277 HD
ENDBRANCH  27  28
ENDBRANCH  24  27
ENDBRANCH  22  23
ENDBRANCH  21  22
ENDBRANCH   1  19
TORSDOF 8
ENDMDL
MODEL 5
REMARK VINA RESULT: -8.517306780      1.329      1.661
REMARK  8 active torsions:
REMARK  status: ('A' for Active; 'I' for Inactive)
REMARK    1  A    between atoms: C10_13  and  C12_15 
REMARK    2  A    between atoms: C12_15  and  O3_16 
REMARK    3  A    between atoms: O3_16  and  C13_17 
REMARK    4  A    between atoms: C13_17  and  C14_19 
REMARK    5  A    between atoms: C15_21  and  C16_22 
REMARK    6  A    between atoms: C16_22  and  N1_23 
REMARK       I    between atoms: N1_23  and  C17_25 
REMARK    7  A    between atoms: C17_25  and  O7_27 
REMARK    8  A    between atoms: O7_27  and  C18_28 
ROOT
HETATM    1  C13 UNL     1       8.320   9.556  19.933  1.00  0.00     0.290 C 
HETATM    2  O4  UNL     1       9.534   9.744  20.294  1.00  0.00    -0.262 OA
ENDROOT
BRANCH   1   3
HETATM    3  O3  UNL     1       8.116   8.397  19.224  1.00  0.00    -0.319 OA
BRANCH   3   4
HETATM    4  C12 UNL     1       8.007   7.119  19.826  1.00  0.00     0.189 C 
BRANCH   4   5
HETATM    5  C10 UNL     1       6.933   6.280  19.222  1.00  0.00     0.000 C 
HETATM    6  C5  UNL     1       7.293   4.861  19.284  1.00  0.00     0.038 C 
HETATM    7  C4  UNL     1       7.322   4.090  20.503  1.00  0.00     0.161 A 
HETATM    8  C6  UNL     1       6.241   4.264  18.355  1.00  0.00     0.057 C 
HETATM    9  C3  UNL     1       7.643   2.641  20.097  1.00  0.00     0.182 A 
HETATM   10  O1  UNL     1       6.395   2.939  20.624  1.00  0.00    -0.370 OA
HETATM   11  C2  UNL     1       7.814   2.489  18.640  1.00  0.00    -0.029 C 
HETATM   12  C1  UNL     1       8.787   1.713  18.193  1.00  0.00     0.019 C 
HETATM   13  C7  UNL     1       6.955   3.159  17.624  1.00  0.00     0.159 C 
HETATM   14  O2  UNL     1       7.601   4.223  16.940  1.00  0.00    -0.374 OA
HETATM   15  C8  UNL     1       6.488   5.078  17.137  1.00  0.00     0.145 C 
HETATM   16  C9  UNL     1       6.834   6.448  17.712  1.00  0.00     0.098 C 
HETATM   17 BR1  UNL     1       5.322   7.608  17.299  1.00  0.00    -0.088 Br
HETATM   18  C11 UNL     1       5.623   6.624  19.889  1.00  0.00     0.019 C 
ENDBRANCH   4   5
ENDBRANCH   3   4
ENDBRANCH   1   3
BRANCH   1  19
HETATM   19  C14 UNL     1       7.300  10.561  20.297  1.00  0.00     0.252 A 
HETATM   20  O5  UNL     1       6.001  10.055  20.380  1.00  0.00    -0.363 OA
HETATM   21  C15 UNL     1       6.591  10.705  21.502  1.00  0.00     0.179 A 
BRANCH  21  22
HETATM   22  C16 UNL     1       6.771   9.872  22.736  1.00  0.00     0.160 C 
BRANCH  22  23
HETATM   23  N1  UNL     1       8.100   9.928  23.301  1.00  0.00    -0.334 N 
HETATM   24  C17 UNL     1       8.889   8.783  23.536  1.00  0.00     0.361 C 
HETATM   25  O6  UNL     1       8.475   7.643  23.260  1.00  0.00    -0.239 OA
ATOM     26  H1  UNL     1       8.486  10.841  23.540  1.00  0.00     0.164 HD
BRANCH  24  27
HETATM   27  O7  UNL     1      10.173   8.889  24.090  1.00  0.00    -0.295 OA
BRANCH  27  28
HETATM   28  C18 UNL     1      10.365   9.040  25.480  1.00  0.00     0.184 C 
HETATM   29  C19 UNL     1      11.608   8.282  25.915  1.00  0.00     0.266 C 
HETATM   30  N2  UNL     1      10.872   7.688  27.012  1.00  0.00    -0.070 N 
HETATM   31  C20 UNL     1       9.638   8.056  26.349  1.00  0.00     0.266 C 
ATOM     32  H22 UNL     1      11.044   6.721  27.285  1.00  0.00     0.277 HD
ATOM     33  H21 UNL     1      11.051   7.980  27.973  1.00  0.00     0.277 HD
ENDBRANCH  27  28
ENDBRANCH  24  27
ENDBRANCH  22  23
ENDBRANCH  21  22
ENDBRANCH   1  19
TORSDOF 8
ENDMDL
