MODEL 1
REMARK VINA RESULT: -9.067555164      0.000      0.000
REMARK  6 active torsions:
REMARK  status: ('A' for Active; 'I' for Inactive)
REMARK    1  A    between atoms: C11_11  and  C12_12 
REMARK       I    between atoms: C12_12  and  N1_14 
REMARK    2  A    between atoms: N1_14  and  C13_16 
REMARK    3  A    between atoms: C13_16  and  C14_17 
REMARK    4  A    between atoms: C13_16  and  C16_20 
REMARK    5  A    between atoms: C14_17  and  C15_18 
REMARK       I    between atoms: C16_20  and  N2_22 
REMARK    6  A    between atoms: N2_22  and  C17_24 
ROOT
HETATM    1  C12 UNL     1       8.789   9.710   1.764  1.00  0.00     0.223 C 
HETATM    2  O1  UNL     1       8.880   8.442   1.830  1.00  0.00    -0.273 OA
HETATM    3  N1  UNL     1       9.971  10.409   1.426  1.00  0.00    -0.347 N 
ATOM      4  H1  UNL     1       9.945  11.427   1.361  1.00  0.00     0.163 HD
ENDROOT
BRANCH   3   5
HETATM    5  C13 UNL     1      11.250   9.700   1.162  1.00  0.00     0.177 C 
BRANCH   5   6
HETATM    6  C14 UNL     1      12.076   9.715   2.399  1.00  0.00     0.046 C 
BRANCH   6   7
HETATM    7  C15 UNL     1      11.852  10.735   3.424  1.00  0.00     0.088 C 
HETATM    8  S1  UNL     1      11.021  10.054   4.916  1.00  0.00    -0.098 SA
ENDBRANCH   6   7
ENDBRANCH   5   6
BRANCH   5   9
HETATM    9  C16 UNL     1      11.890  10.289  -0.036  1.00  0.00     0.240 C 
HETATM   10  O2  UNL     1      11.069  10.505  -1.012  1.00  0.00    -0.271 OA
HETATM   11  N2  UNL     1      13.220  10.625  -0.237  1.00  0.00    -0.355 N 
ATOM     12  H2  UNL     1      13.872  10.452   0.528  1.00  0.00     0.162 HD
BRANCH  11  13
HETATM   13  C17 UNL     1      13.756  11.206  -1.460  1.00  0.00     0.084 C 
HETATM   14  C18 UNL     1      15.104  10.687  -1.818  1.00  0.00     0.025 C 
HETATM   15  C19 UNL     1      16.253  11.474  -1.306  1.00  0.00     0.002 C 
HETATM   16  C20 UNL     1      16.045  12.944  -1.693  1.00  0.00     0.000 C 
HETATM   17  C21 UNL     1      14.853  13.380  -0.830  1.00  0.00     0.002 C 
HETATM   18  C22 UNL     1      13.649  12.686  -1.359  1.00  0.00     0.025 C 
ENDBRANCH  11  13
ENDBRANCH   5   9
ENDBRANCH   3   5
BRANCH   1  19
HETATM   19  C11 UNL     1       7.484  10.412   2.035  1.00  0.00     0.090 C 
HETATM   20  C2  UNL     1       6.798  10.787   0.770  1.00  0.00    -0.035 C 
HETATM   21  C1  UNL     1       7.509  11.986   0.166  1.00  0.00     0.015 C 
HETATM   22  C3  UNL     1       6.707   9.705  -0.263  1.00  0.00     0.015 C 
HETATM   23  C4  UNL     1       5.363  11.176   1.104  1.00  0.00     0.010 C 
HETATM   24  C5  UNL     1       4.678   9.911   1.547  1.00  0.00     0.006 C 
HETATM   25  C6  UNL     1       5.256   9.535   2.878  1.00  0.00    -0.010 C 
HETATM   26  C7  UNL     1       4.569  10.335   3.953  1.00  0.00     0.005 C 
HETATM   27  C10 UNL     1       6.714   9.635   3.029  1.00  0.00     0.003 C 
HETATM   28  C8  UNL     1       5.670  11.102   4.601  1.00  0.00     0.001 C 
HETATM   29  C9  UNL     1       6.898  10.252   4.404  1.00  0.00     0.006 C 
ENDBRANCH   1  19
TORSDOF 6
ENDMDL
MODEL 2
REMARK VINA RESULT: -8.701777079      3.605      6.442
REMARK  6 active torsions:
REMARK  status: ('A' for Active; 'I' for Inactive)
REMARK    1  A    between atoms: C11_11  and  C12_12 
REMARK       I    between atoms: C12_12  and  N1_14 
REMARK    2  A    between atoms: N1_14  and  C13_16 
REMARK    3  A    between atoms: C13_16  and  C14_17 
REMARK    4  A    between atoms: C13_16  and  C16_20 
REMARK    5  A    between atoms: C14_17  and  C15_18 
REMARK       I    between atoms: C16_20  and  N2_22 
REMARK    6  A    between atoms: N2_22  and  C17_24 
ROOT
HETATM    1  C12 UNL     1      13.257  10.423   2.412  1.00  0.00     0.223 C 
HETATM    2  O1  UNL     1      12.974  11.630   2.700  1.00  0.00    -0.273 OA
HETATM    3  N1  UNL     1      12.988  10.013   1.085  1.00  0.00    -0.347 N 
ATOM      4  H1  UNL     1      13.199   9.053   0.810  1.00  0.00     0.163 HD
ENDROOT
BRANCH   3   5
HETATM    5  C13 UNL     1      12.407  10.942   0.082  1.00  0.00     0.177 C 
BRANCH   5   6
HETATM    6  C14 UNL     1      11.096  10.407  -0.373  1.00  0.00     0.046 C 
BRANCH   6   7
HETATM    7  C15 UNL     1      10.073  10.032   0.603  1.00  0.00     0.088 C 
HETATM    8  S1  UNL     1       8.389   9.984  -0.133  1.00  0.00    -0.098 SA
ENDBRANCH   6   7
ENDBRANCH   5   6
BRANCH   5   9
HETATM    9  C16 UNL     1      13.402  11.181  -0.987  1.00  0.00     0.240 C 
HETATM   10  O2  UNL     1      13.237  12.301  -1.613  1.00  0.00    -0.271 OA
HETATM   11  N2  UNL     1      14.457  10.377  -1.391  1.00  0.00    -0.355 N 
ATOM     12  H2  UNL     1      14.589   9.491  -0.904  1.00  0.00     0.162 HD
BRANCH  11  13
HETATM   13  C17 UNL     1      15.391  10.703  -2.460  1.00  0.00     0.084 C 
HETATM   14  C18 UNL     1      15.441   9.674  -3.534  1.00  0.00     0.025 C 
HETATM   15  C19 UNL     1      16.476   8.623  -3.370  1.00  0.00     0.002 C 
HETATM   16  C20 UNL     1      17.826   9.307  -3.119  1.00  0.00     0.000 C 
HETATM   17  C21 UNL     1      17.666   9.925  -1.723  1.00  0.00     0.002 C 
HETATM   18  C22 UNL     1      16.700  11.048  -1.847  1.00  0.00     0.025 C 
ENDBRANCH  11  13
ENDBRANCH   5   9
ENDBRANCH   3   5
BRANCH   1  19
HETATM   19  C11 UNL     1      13.845   9.494   3.442  1.00  0.00     0.090 C 
HETATM   20  C2  UNL     1      12.781   8.784   4.201  1.00  0.00    -0.035 C 
HETATM   21  C1  UNL     1      12.156   9.755   5.189  1.00  0.00     0.015 C 
HETATM   22  C3  UNL     1      11.694   8.169   3.371  1.00  0.00     0.015 C 
HETATM   23  C4  UNL     1      13.428   7.639   4.970  1.00  0.00     0.010 C 
HETATM   24  C5  UNL     1      13.885   6.646   3.936  1.00  0.00     0.006 C 
HETATM   25  C6  UNL     1      15.034   7.265   3.201  1.00  0.00    -0.010 C 
HETATM   26  C7  UNL     1      16.292   7.071   4.006  1.00  0.00     0.005 C 
HETATM   27  C10 UNL     1      14.899   8.675   2.809  1.00  0.00     0.003 C 
HETATM   28  C8  UNL     1      16.772   8.455   4.278  1.00  0.00     0.001 C 
HETATM   29  C9  UNL     1      16.259   9.274   3.123  1.00  0.00     0.006 C 
ENDBRANCH   1  19
TORSDOF 6
ENDMDL
MODEL 3
REMARK VINA RESULT: -8.655185555      2.362      8.212
REMARK  6 active torsions:
REMARK  status: ('A' for Active; 'I' for Inactive)
REMARK    1  A    between atoms: C11_11  and  C12_12 
REMARK       I    between atoms: C12_12  and  N1_14 
REMARK    2  A    between atoms: N1_14  and  C13_16 
REMARK    3  A    between atoms: C13_16  and  C14_17 
REMARK    4  A    between atoms: C13_16  and  C16_20 
REMARK    5  A    between atoms: C14_17  and  C15_18 
REMARK       I    between atoms: C16_20  and  N2_22 
REMARK    6  A    between atoms: N2_22  and  C17_24 
ROOT
HETATM    1  C12 UNL     1      13.678   9.723   1.495  1.00  0.00     0.223 C 
HETATM    2  O1  UNL     1      14.275  10.184   2.520  1.00  0.00    -0.273 OA
HETATM    3  N1  UNL     1      12.656   8.775   1.735  1.00  0.00    -0.347 N 
ATOM      4  H1  UNL     1      12.151   8.379   0.942  1.00  0.00     0.163 HD
ENDROOT
BRANCH   3   5
HETATM    5  C13 UNL     1      12.300   8.342   3.110  1.00  0.00     0.177 C 
BRANCH   5   6
HETATM    6  C14 UNL     1      13.135   7.168   3.481  1.00  0.00     0.046 C 
BRANCH   6   7
HETATM    7  C15 UNL     1      13.927   7.185   4.712  1.00  0.00     0.088 C 
HETATM    8  S1  UNL     1      15.677   6.706   4.423  1.00  0.00    -0.098 SA
ENDBRANCH   6   7
ENDBRANCH   5   6
BRANCH   5   9
HETATM    9  C16 UNL     1      10.837   8.129   3.185  1.00  0.00     0.240 C 
HETATM   10  O2  UNL     1      10.414   7.148   2.456  1.00  0.00    -0.271 OA
HETATM   11  N2  UNL     1       9.891   8.831   3.918  1.00  0.00    -0.355 N 
ATOM     12  H2  UNL     1      10.219   9.607   4.492  1.00  0.00     0.162 HD
BRANCH  11  13
HETATM   13  C17 UNL     1       8.464   8.541   3.929  1.00  0.00     0.084 C 
HETATM   14  C18 UNL     1       7.742   9.090   2.749  1.00  0.00     0.025 C 
HETATM   15  C19 UNL     1       7.155  10.442   2.926  1.00  0.00     0.002 C 
HETATM   16  C20 UNL     1       6.312  10.440   4.208  1.00  0.00     0.000 C 
HETATM   17  C21 UNL     1       7.356  10.313   5.327  1.00  0.00     0.002 C 
HETATM   18  C22 UNL     1       7.916   8.938   5.252  1.00  0.00     0.025 C 
ENDBRANCH  11  13
ENDBRANCH   5   9
ENDBRANCH   3   5
BRANCH   1  19
HETATM   19  C11 UNL     1      14.054  10.174   0.107  1.00  0.00     0.090 C 
HETATM   20  C2  UNL     1      13.238  11.342  -0.322  1.00  0.00    -0.035 C 
HETATM   21  C1  UNL     1      11.842  10.858  -0.676  1.00  0.00     0.015 C 
HETATM   22  C3  UNL     1      13.128  12.456   0.675  1.00  0.00     0.015 C 
HETATM   23  C4  UNL     1      13.885  11.944  -1.562  1.00  0.00     0.010 C 
HETATM   24  C5  UNL     1      15.191  12.539  -1.107  1.00  0.00     0.006 C 
HETATM   25  C6  UNL     1      16.101  11.401  -0.757  1.00  0.00    -0.010 C 
HETATM   26  C7  UNL     1      16.732  10.873  -2.018  1.00  0.00     0.005 C 
HETATM   27  C10 UNL     1      15.524  10.294   0.019  1.00  0.00     0.003 C 
HETATM   28  C8  UNL     1      16.301   9.448  -2.077  1.00  0.00     0.001 C 
HETATM   29  C9  UNL     1      16.093   9.050  -0.639  1.00  0.00     0.006 C 
ENDBRANCH   1  19
TORSDOF 6
ENDMDL
MODEL 4
REMARK VINA RESULT: -8.626792551      1.506      1.873
REMARK  6 active torsions:
REMARK  status: ('A' for Active; 'I' for Inactive)
REMARK    1  A    between atoms: C11_11  and  C12_12 
REMARK       I    between atoms: C12_12  and  N1_14 
REMARK    2  A    between atoms: N1_14  and  C13_16 
REMARK    3  A    between atoms: C13_16  and  C14_17 
REMARK    4  A    between atoms: C13_16  and  C16_20 
REMARK    5  A    between atoms: C14_17  and  C15_18 
REMARK       I    between atoms: C16_20  and  N2_22 
REMARK    6  A    between atoms: N2_22  and  C17_24 
ROOT
HETATM    1  C12 UNL     1       9.023   9.456   1.223  1.00  0.00     0.223 C 
HETATM    2  O1  UNL     1       8.956   8.617   0.268  1.00  0.00    -0.273 OA
HETATM    3  N1  UNL     1      10.275   9.572   1.871  1.00  0.00    -0.347 N 
ATOM      4  H1  UNL     1      10.375  10.233   2.643  1.00  0.00     0.163 HD
ENDROOT
BRANCH   3   5
HETATM    5  C13 UNL     1      11.448   8.759   1.458  1.00  0.00     0.177 C 
BRANCH   5   6
HETATM    6  C14 UNL     1      11.653   7.668   2.447  1.00  0.00     0.046 C 
BRANCH   6   7
HETATM    7  C15 UNL     1      11.608   7.954   3.882  1.00  0.00     0.088 C 
HETATM    8  S1  UNL     1      13.126   7.394   4.754  1.00  0.00    -0.098 SA
ENDBRANCH   6   7
ENDBRANCH   5   6
BRANCH   5   9
HETATM    9  C16 UNL     1      12.607   9.655   1.251  1.00  0.00     0.240 C 
HETATM   10  O2  UNL     1      13.734   9.147   1.632  1.00  0.00    -0.271 OA
HETATM   11  N2  UNL     1      12.635  10.934   0.716  1.00  0.00    -0.355 N 
ATOM     12  H2  UNL     1      11.748  11.341   0.418  1.00  0.00     0.162 HD
BRANCH  11  13
HETATM   13  C17 UNL     1      13.836  11.741   0.549  1.00  0.00     0.084 C 
HETATM   14  C18 UNL     1      13.576  13.205   0.607  1.00  0.00     0.025 C 
HETATM   15  C19 UNL     1      13.323  13.867  -0.697  1.00  0.00     0.002 C 
HETATM   16  C20 UNL     1      14.456  13.488  -1.660  1.00  0.00     0.000 C 
HETATM   17  C21 UNL     1      14.223  11.993  -1.924  1.00  0.00     0.002 C 
HETATM   18  C22 UNL     1      14.550  11.269  -0.667  1.00  0.00     0.025 C 
ENDBRANCH  11  13
ENDBRANCH   5   9
ENDBRANCH   3   5
BRANCH   1  19
HETATM   19  C11 UNL     1       7.823  10.271   1.629  1.00  0.00     0.090 C 
HETATM   20  C2  UNL     1       7.076  10.763   0.441  1.00  0.00    -0.035 C 
HETATM   21  C1  UNL     1       7.852  11.908  -0.185  1.00  0.00     0.015 C 
HETATM   22  C3  UNL     1       6.790   9.737  -0.615  1.00  0.00     0.015 C 
HETATM   23  C4  UNL     1       5.721  11.278   0.910  1.00  0.00     0.010 C 
HETATM   24  C5  UNL     1       4.951  10.070   1.371  1.00  0.00     0.006 C 
HETATM   25  C6  UNL     1       5.596   9.585   2.634  1.00  0.00    -0.010 C 
HETATM   26  C7  UNL     1       5.086  10.406   3.789  1.00  0.00     0.005 C 
HETATM   27  C10 UNL     1       7.064   9.535   2.661  1.00  0.00     0.003 C 
HETATM   28  C8  UNL     1       6.309  11.034   4.363  1.00  0.00     0.001 C 
HETATM   29  C9  UNL     1       7.423  10.076   4.033  1.00  0.00     0.006 C 
ENDBRANCH   1  19
TORSDOF 6
ENDMDL
MODEL 5
REMARK VINA RESULT: -8.593940282      3.100      8.384
REMARK  6 active torsions:
REMARK  status: ('A' for Active; 'I' for Inactive)
REMARK    1  A    between atoms: C11_11  and  C12_12 
REMARK       I    between atoms: C12_12  and  N1_14 
REMARK    2  A    between atoms: N1_14  and  C13_16 
REMARK    3  A    between atoms: C13_16  and  C14_17 
REMARK    4  A    between atoms: C13_16  and  C16_20 
REMARK    5  A    between atoms: C14_17  and  C15_18 
REMARK       I    between atoms: C16_20  and  N2_22 
REMARK    6  A    between atoms: N2_22  and  C17_24 
ROOT
HETATM    1  C12 UNL     1      12.918   9.275   2.657  1.00  0.00     0.223 C 
HETATM    2  O1  UNL     1      12.158  10.125   3.222  1.00  0.00    -0.273 OA
HETATM    3  N1  UNL     1      12.412   8.657   1.489  1.00  0.00    -0.347 N 
ATOM      4  H1  UNL     1      12.986   7.968   1.003  1.00  0.00     0.163 HD
ENDROOT
BRANCH   3   5
HETATM    5  C13 UNL     1      11.065   8.984   0.953  1.00  0.00     0.177 C 
BRANCH   5   6
HETATM    6  C14 UNL     1      11.053  10.402   0.505  1.00  0.00     0.046 C 
BRANCH   6   7
HETATM    7  C15 UNL     1      12.077  10.892  -0.420  1.00  0.00     0.088 C 
HETATM    8  S1  UNL     1      13.023  12.308   0.273  1.00  0.00    -0.098 SA
ENDBRANCH   6   7
ENDBRANCH   5   6
BRANCH   5   9
HETATM    9  C16 UNL     1      10.044   8.630   1.964  1.00  0.00     0.240 C 
HETATM   10  O2  UNL     1       9.968   7.361   2.206  1.00  0.00    -0.271 OA
HETATM   11  N2  UNL     1       9.184   9.463   2.663  1.00  0.00    -0.355 N 
ATOM     12  H2  UNL     1       9.237  10.464   2.473  1.00  0.00     0.162 HD
BRANCH  11  13
HETATM   13  C17 UNL     1       8.209   9.016   3.648  1.00  0.00     0.084 C 
HETATM   14  C18 UNL     1       6.801   9.294   3.253  1.00  0.00     0.025 C 
HETATM   15  C19 UNL     1       6.239  10.580   3.736  1.00  0.00     0.002 C 
HETATM   16  C20 UNL     1       6.477  10.675   5.249  1.00  0.00     0.000 C 
HETATM   17  C21 UNL     1       7.998  10.840   5.367  1.00  0.00     0.002 C 
HETATM   18  C22 UNL     1       8.613   9.543   4.978  1.00  0.00     0.025 C 
ENDBRANCH  11  13
ENDBRANCH   5   9
ENDBRANCH   3   5
BRANCH   1  19
HETATM   19  C11 UNL     1      14.280   8.955   3.215  1.00  0.00     0.090 C 
HETATM   20  C2  UNL     1      14.179   8.263   4.527  1.00  0.00    -0.035 C 
HETATM   21  C1  UNL     1      13.798   9.281   5.588  1.00  0.00     0.015 C 
HETATM   22  C3  UNL     1      13.211   7.119   4.582  1.00  0.00     0.015 C 
HETATM   23  C4  UNL     1      15.545   7.679   4.864  1.00  0.00     0.010 C 
HETATM   24  C5  UNL     1      15.786   6.576   3.869  1.00  0.00     0.006 C 
HETATM   25  C6  UNL     1      16.003   7.220   2.534  1.00  0.00    -0.010 C 
HETATM   26  C7  UNL     1      17.434   7.679   2.438  1.00  0.00     0.005 C 
HETATM   27  C10 UNL     1      15.097   8.316   2.162  1.00  0.00     0.003 C 
HETATM   28  C8  UNL     1      17.336   9.150   2.227  1.00  0.00     0.001 C 
HETATM   29  C9  UNL     1      16.012   9.351   1.535  1.00  0.00     0.006 C 
ENDBRANCH   1  19
TORSDOF 6
ENDMDL
