MODEL 1
REMARK VINA RESULT: -10.287149227      0.000      0.000
REMARK  6 active torsions:
REMARK  status: ('A' for Active; 'I' for Inactive)
REMARK       I    between atoms: C1_2  and  N1_3 
REMARK    1  A    between atoms: C1_2  and  C14_20 
REMARK    2  A    between atoms: N1_3  and  C2_5 
REMARK    3  A    between atoms: C2_5  and  C3_6 
REMARK       I    between atoms: C3_6  and  N2_8 
REMARK    4  A    between atoms: N2_8  and  C4_10 
REMARK    5  A    between atoms: C17_26  and  C18_27 
REMARK    6  A    between atoms: C18_27  and  C19_28 
ROOT
HETATM    1  O1  UNL     1      12.352  10.740   3.586  1.00  0.00    -0.273 OA
HETATM    2  C1  UNL     1      12.059   9.752   2.864  1.00  0.00     0.224 C 
HETATM    3  N1  UNL     1      12.472   9.700   1.510  1.00  0.00    -0.343 N 
ATOM      4  H1  UNL     1      12.209   8.879   0.965  1.00  0.00     0.163 HD
ENDROOT
BRANCH   3   5
HETATM    5  C2  UNL     1      13.247  10.739   0.843  1.00  0.00     0.113 C 
HETATM    6  C10 UNL     1      12.509  11.419  -0.259  1.00  0.00     0.041 C 
HETATM    7  C11 UNL     1      12.393  12.870   0.078  1.00  0.00     0.003 C 
HETATM    8  C12 UNL     1      13.426  13.125   1.128  1.00  0.00     0.003 C 
HETATM    9  C13 UNL     1      13.684  11.807   1.781  1.00  0.00     0.041 C 
BRANCH   5  10
HETATM   10  C3  UNL     1      14.422  10.065   0.233  1.00  0.00     0.246 C 
HETATM   11  O2  UNL     1      15.111   9.232   0.881  1.00  0.00    -0.271 OA
HETATM   12  N2  UNL     1      14.809  10.331  -1.081  1.00  0.00    -0.354 N 
ATOM     13  H2  UNL     1      14.262  11.003  -1.618  1.00  0.00     0.162 HD
BRANCH  12  14
HETATM   14  C4  UNL     1      15.954   9.700  -1.729  1.00  0.00     0.084 C 
HETATM   15  C5  UNL     1      15.697   9.459  -3.198  1.00  0.00     0.025 C 
HETATM   16  C6  UNL     1      16.890   8.642  -3.707  1.00  0.00     0.002 C 
HETATM   17  C7  UNL     1      18.147   9.431  -3.538  1.00  0.00     0.000 C 
HETATM   18  C8  UNL     1      18.339   9.942  -2.145  1.00  0.00     0.002 C 
HETATM   19  C9  UNL     1      17.110  10.673  -1.633  1.00  0.00     0.025 C 
ENDBRANCH  12  14
ENDBRANCH   5  10
ENDBRANCH   3   5
BRANCH   2  20
HETATM   20  C14 UNL     1      11.277   8.632   3.418  1.00  0.00     0.109 C 
HETATM   21  C15 UNL     1      10.720   7.716   2.382  1.00  0.00     0.246 C 
HETATM   22  N3  UNL     1       9.563   7.083   2.988  1.00  0.00    -0.074 N 
HETATM   23  C16 UNL     1       9.304   7.749   4.228  1.00  0.00     0.237 C 
ATOM     24  H32 UNL     1       8.751   7.064   2.369  1.00  0.00     0.277 HD
ATOM     25  H31 UNL     1       9.674   6.074   3.095  1.00  0.00     0.277 HD
HETATM   26  C17 UNL     1       9.996   9.115   4.105  1.00  0.00     0.026 C 
BRANCH  26  27
HETATM   27  C18 UNL     1       9.166   9.958   3.185  1.00  0.00     0.011 C 
BRANCH  27  28
HETATM   28  C19 UNL     1       7.757  10.008   3.653  1.00  0.00    -0.014 C 
HETATM   29  C20 UNL     1       7.519  10.848   4.884  1.00  0.00     0.005 C 
HETATM   30  C21 UNL     1       6.140  10.492   5.398  1.00  0.00     0.000 C 
HETATM   31  C22 UNL     1       5.056  10.640   4.391  1.00  0.00     0.000 C 
HETATM   32  C23 UNL     1       5.419  10.112   3.026  1.00  0.00     0.000 C 
HETATM   33  C24 UNL     1       6.801  10.530   2.598  1.00  0.00     0.005 C 
ENDBRANCH  27  28
ENDBRANCH  26  27
ENDBRANCH   2  20
TORSDOF 6
ENDMDL
MODEL 2
REMARK VINA RESULT: -9.998406144      2.150      3.812
REMARK  6 active torsions:
REMARK  status: ('A' for Active; 'I' for Inactive)
REMARK       I    between atoms: C1_2  and  N1_3 
REMARK    1  A    between atoms: C1_2  and  C14_20 
REMARK    2  A    between atoms: N1_3  and  C2_5 
REMARK    3  A    between atoms: C2_5  and  C3_6 
REMARK       I    between atoms: C3_6  and  N2_8 
REMARK    4  A    between atoms: N2_8  and  C4_10 
REMARK    5  A    between atoms: C17_26  and  C18_27 
REMARK    6  A    between atoms: C18_27  and  C19_28 
ROOT
HETATM    1  O1  UNL     1       9.373   8.258   2.325  1.00  0.00    -0.273 OA
HETATM    2  C1  UNL     1       9.518   9.149   1.449  1.00  0.00     0.224 C 
HETATM    3  N1  UNL     1      10.558  10.104   1.557  1.00  0.00    -0.343 N 
ATOM      4  H1  UNL     1      10.634  10.809   0.823  1.00  0.00     0.163 HD
ENDROOT
BRANCH   3   5
HETATM    5  C2  UNL     1      11.528  10.151   2.645  1.00  0.00     0.113 C 
HETATM    6  C10 UNL     1      11.034  10.866   3.856  1.00  0.00     0.041 C 
HETATM    7  C11 UNL     1      11.026   9.905   4.999  1.00  0.00     0.003 C 
HETATM    8  C12 UNL     1      11.918   8.778   4.587  1.00  0.00     0.003 C 
HETATM    9  C13 UNL     1      11.937   8.793   3.094  1.00  0.00     0.041 C 
BRANCH   5  10
HETATM   10  C3  UNL     1      12.701  10.908   2.137  1.00  0.00     0.246 C 
HETATM   11  O2  UNL     1      13.336  11.708   2.875  1.00  0.00    -0.271 OA
HETATM   12  N2  UNL     1      13.143  10.764   0.821  1.00  0.00    -0.354 N 
ATOM     13  H2  UNL     1      12.638  10.120   0.211  1.00  0.00     0.162 HD
BRANCH  12  14
HETATM   14  C4  UNL     1      14.286  11.483   0.270  1.00  0.00     0.084 C 
HETATM   15  C5  UNL     1      15.116  10.598  -0.631  1.00  0.00     0.025 C 
HETATM   16  C6  UNL     1      16.363  11.413  -0.991  1.00  0.00     0.002 C 
HETATM   17  C7  UNL     1      15.958  12.648  -1.729  1.00  0.00     0.000 C 
HETATM   18  C8  UNL     1      14.921  13.451  -1.011  1.00  0.00     0.002 C 
HETATM   19  C9  UNL     1      13.735  12.601  -0.588  1.00  0.00     0.025 C 
ENDBRANCH  12  14
ENDBRANCH   5  10
ENDBRANCH   3   5
BRANCH   2  20
HETATM   20  C14 UNL     1       8.603   9.215   0.296  1.00  0.00     0.109 C 
HETATM   21  C15 UNL     1       8.964  10.262  -0.701  1.00  0.00     0.246 C 
HETATM   22  N3  UNL     1       7.734  10.594  -1.396  1.00  0.00    -0.074 N 
HETATM   23  C16 UNL     1       6.658   9.956  -0.702  1.00  0.00     0.237 C 
ATOM     24  H32 UNL     1       7.598  11.600  -1.502  1.00  0.00     0.277 HD
ATOM     25  H31 UNL     1       7.763  10.357  -2.388  1.00  0.00     0.277 HD
HETATM   26  C17 UNL     1       7.199   9.669   0.707  1.00  0.00     0.026 C 
BRANCH  26  27
HETATM   27  C18 UNL     1       7.240  10.973   1.445  1.00  0.00     0.011 C 
BRANCH  27  28
HETATM   28  C19 UNL     1       6.427  10.896   2.686  1.00  0.00    -0.014 C 
HETATM   29  C20 UNL     1       5.222   9.992   2.609  1.00  0.00     0.005 C 
HETATM   30  C21 UNL     1       4.351  10.319   3.804  1.00  0.00     0.000 C 
HETATM   31  C22 UNL     1       5.050  10.223   5.113  1.00  0.00     0.000 C 
HETATM   32  C23 UNL     1       6.433  10.824   5.108  1.00  0.00     0.000 C 
HETATM   33  C24 UNL     1       7.225  10.430   3.889  1.00  0.00     0.005 C 
ENDBRANCH  27  28
ENDBRANCH  26  27
ENDBRANCH   2  20
TORSDOF 6
ENDMDL
MODEL 3
REMARK VINA RESULT: -9.855586591      1.961      8.624
REMARK  6 active torsions:
REMARK  status: ('A' for Active; 'I' for Inactive)
REMARK       I    between atoms: C1_2  and  N1_3 
REMARK    1  A    between atoms: C1_2  and  C14_20 
REMARK    2  A    between atoms: N1_3  and  C2_5 
REMARK    3  A    between atoms: C2_5  and  C3_6 
REMARK       I    between atoms: C3_6  and  N2_8 
REMARK    4  A    between atoms: N2_8  and  C4_10 
REMARK    5  A    between atoms: C17_26  and  C18_27 
REMARK    6  A    between atoms: C18_27  and  C19_28 
ROOT
HETATM    1  O1  UNL     1      14.738  10.084   1.590  1.00  0.00    -0.273 OA
HETATM    2  C1  UNL     1      13.774  10.851   1.335  1.00  0.00     0.224 C 
HETATM    3  N1  UNL     1      12.444  10.457   1.620  1.00  0.00    -0.343 N 
ATOM      4  H1  UNL     1      11.696  11.112   1.393  1.00  0.00     0.163 HD
ENDROOT
BRANCH   3   5
HETATM    5  C2  UNL     1      12.070   9.180   2.216  1.00  0.00     0.113 C 
HETATM    6  C10 UNL     1      12.881   8.031   1.724  1.00  0.00     0.041 C 
HETATM    7  C11 UNL     1      13.600   7.430   2.888  1.00  0.00     0.003 C 
HETATM    8  C12 UNL     1      12.883   7.922   4.104  1.00  0.00     0.003 C 
HETATM    9  C13 UNL     1      12.203   9.188   3.697  1.00  0.00     0.041 C 
BRANCH   5  10
HETATM   10  C3  UNL     1      10.661   8.923   1.819  1.00  0.00     0.246 C 
HETATM   11  O2  UNL     1      10.301   7.804   1.365  1.00  0.00    -0.271 OA
HETATM   12  N2  UNL     1       9.683   9.911   1.934  1.00  0.00    -0.354 N 
ATOM     13  H2  UNL     1       9.960  10.822   2.300  1.00  0.00     0.162 HD
BRANCH  12  14
HETATM   14  C4  UNL     1       8.287   9.713   1.559  1.00  0.00     0.084 C 
HETATM   15  C5  UNL     1       7.349  10.353   2.557  1.00  0.00     0.025 C 
HETATM   16  C6  UNL     1       5.937   9.921   2.146  1.00  0.00     0.002 C 
HETATM   17  C7  UNL     1       5.638  10.430   0.773  1.00  0.00     0.000 C 
HETATM   18  C8  UNL     1       6.680  10.059  -0.234  1.00  0.00     0.002 C 
HETATM   19  C9  UNL     1       8.079  10.419   0.237  1.00  0.00     0.025 C 
ENDBRANCH  12  14
ENDBRANCH   5  10
ENDBRANCH   3   5
BRANCH   2  20
HETATM   20  C14 UNL     1      14.015  12.173   0.729  1.00  0.00     0.109 C 
HETATM   21  C15 UNL     1      12.770  12.889   0.332  1.00  0.00     0.246 C 
HETATM   22  N3  UNL     1      13.157  13.812  -0.719  1.00  0.00    -0.074 N 
HETATM   23  C16 UNL     1      14.504  13.503  -1.092  1.00  0.00     0.237 C 
ATOM     24  H32 UNL     1      12.514  13.804  -1.512  1.00  0.00     0.277 HD
ATOM     25  H31 UNL     1      13.032  14.789  -0.455  1.00  0.00     0.277 HD
HETATM   26  C17 UNL     1      14.735  12.061  -0.618  1.00  0.00     0.026 C 
BRANCH  26  27
HETATM   27  C18 UNL     1      13.997  11.157  -1.559  1.00  0.00     0.011 C 
BRANCH  27  28
HETATM   28  C19 UNL     1      14.947  10.288  -2.300  1.00  0.00    -0.014 C 
HETATM   29  C20 UNL     1      14.763  10.266  -3.798  1.00  0.00     0.005 C 
HETATM   30  C21 UNL     1      15.558   9.086  -4.319  1.00  0.00     0.000 C 
HETATM   31  C22 UNL     1      16.991   9.093  -3.923  1.00  0.00     0.000 C 
HETATM   32  C23 UNL     1      17.221   9.469  -2.481  1.00  0.00     0.000 C 
HETATM   33  C24 UNL     1      16.399  10.659  -2.061  1.00  0.00     0.005 C 
ENDBRANCH  27  28
ENDBRANCH  26  27
ENDBRANCH   2  20
TORSDOF 6
ENDMDL
MODEL 4
REMARK VINA RESULT: -9.846458704      1.826      8.822
REMARK  6 active torsions:
REMARK  status: ('A' for Active; 'I' for Inactive)
REMARK       I    between atoms: C1_2  and  N1_3 
REMARK    1  A    between atoms: C1_2  and  C14_20 
REMARK    2  A    between atoms: N1_3  and  C2_5 
REMARK    3  A    between atoms: C2_5  and  C3_6 
REMARK       I    between atoms: C3_6  and  N2_8 
REMARK    4  A    between atoms: N2_8  and  C4_10 
REMARK    5  A    between atoms: C17_26  and  C18_27 
REMARK    6  A    between atoms: C18_27  and  C19_28 
ROOT
HETATM    1  O1  UNL     1      15.198  10.268   1.674  1.00  0.00    -0.273 OA
HETATM    2  C1  UNL     1      14.108  10.889   1.574  1.00  0.00     0.224 C 
HETATM    3  N1  UNL     1      12.912  10.337   2.093  1.00  0.00    -0.343 N 
ATOM      4  H1  UNL     1      12.054  10.878   1.986  1.00  0.00     0.163 HD
ENDROOT
BRANCH   3   5
HETATM    5  C2  UNL     1      12.823   9.049   2.770  1.00  0.00     0.113 C 
HETATM    6  C10 UNL     1      13.211   7.894   1.911  1.00  0.00     0.041 C 
HETATM    7  C11 UNL     1      14.386   7.216   2.537  1.00  0.00     0.003 C 
HETATM    8  C12 UNL     1      14.410   7.679   3.958  1.00  0.00     0.003 C 
HETATM    9  C13 UNL     1      13.687   8.986   3.979  1.00  0.00     0.041 C 
BRANCH   5  10
HETATM   10  C3  UNL     1      11.395   8.861   3.138  1.00  0.00     0.246 C 
HETATM   11  O2  UNL     1      10.855   7.722   3.108  1.00  0.00    -0.271 OA
HETATM   12  N2  UNL     1      10.599   9.937   3.529  1.00  0.00    -0.354 N 
ATOM     13  H2  UNL     1      11.023  10.865   3.558  1.00  0.00     0.162 HD
BRANCH  12  14
HETATM   14  C4  UNL     1       9.194   9.810   3.899  1.00  0.00     0.084 C 
HETATM   15  C5  UNL     1       8.791  10.853   4.916  1.00  0.00     0.025 C 
HETATM   16  C6  UNL     1       7.363  10.496   5.344  1.00  0.00     0.002 C 
HETATM   17  C7  UNL     1       6.453  10.566   4.161  1.00  0.00     0.000 C 
HETATM   18  C8  UNL     1       6.935   9.758   2.998  1.00  0.00     0.002 C 
HETATM   19  C9  UNL     1       8.380  10.069   2.650  1.00  0.00     0.025 C 
ENDBRANCH  12  14
ENDBRANCH   5  10
ENDBRANCH   3   5
BRANCH   2  20
HETATM   20  C14 UNL     1      14.060  12.204   0.909  1.00  0.00     0.109 C 
HETATM   21  C15 UNL     1      12.684  12.644   0.543  1.00  0.00     0.246 C 
HETATM   22  N3  UNL     1      12.842  13.576  -0.558  1.00  0.00    -0.074 N 
HETATM   23  C16 UNL     1      14.209  13.522  -0.980  1.00  0.00     0.237 C 
ATOM     24  H32 UNL     1      12.184  13.406  -1.320  1.00  0.00     0.277 HD
ATOM     25  H31 UNL     1      12.536  14.521  -0.325  1.00  0.00     0.277 HD
HETATM   26  C17 UNL     1      14.738  12.175  -0.464  1.00  0.00     0.026 C 
BRANCH  26  27
HETATM   27  C18 UNL     1      14.159  11.102  -1.336  1.00  0.00     0.011 C 
BRANCH  27  28
HETATM   28  C19 UNL     1      15.241  10.321  -1.989  1.00  0.00    -0.014 C 
HETATM   29  C20 UNL     1      15.047  10.062  -3.463  1.00  0.00     0.005 C 
HETATM   30  C21 UNL     1      16.034   8.980  -3.851  1.00  0.00     0.000 C 
HETATM   31  C22 UNL     1      17.447   9.292  -3.511  1.00  0.00     0.000 C 
HETATM   32  C23 UNL     1      17.622   9.897  -2.140  1.00  0.00     0.000 C 
HETATM   33  C24 UNL     1      16.605  10.970  -1.853  1.00  0.00     0.005 C 
ENDBRANCH  27  28
ENDBRANCH  26  27
ENDBRANCH   2  20
TORSDOF 6
ENDMDL
MODEL 5
REMARK VINA RESULT: -9.833977383      2.049      8.705
REMARK  6 active torsions:
REMARK  status: ('A' for Active; 'I' for Inactive)
REMARK       I    between atoms: C1_2  and  N1_3 
REMARK    1  A    between atoms: C1_2  and  C14_20 
REMARK    2  A    between atoms: N1_3  and  C2_5 
REMARK    3  A    between atoms: C2_5  and  C3_6 
REMARK       I    between atoms: C3_6  and  N2_8 
REMARK    4  A    between atoms: N2_8  and  C4_10 
REMARK    5  A    between atoms: C17_26  and  C18_27 
REMARK    6  A    between atoms: C18_27  and  C19_28 
ROOT
HETATM    1  O1  UNL     1      12.418  10.533   1.003  1.00  0.00    -0.273 OA
HETATM    2  C1  UNL     1      13.548  11.018   1.271  1.00  0.00     0.224 C 
HETATM    3  N1  UNL     1      14.416  10.365   2.180  1.00  0.00    -0.343 N 
ATOM      4  H1  UNL     1      15.320  10.797   2.366  1.00  0.00     0.163 HD
ENDROOT
BRANCH   3   5
HETATM    5  C2  UNL     1      14.105   9.117   2.868  1.00  0.00     0.113 C 
HETATM    6  C10 UNL     1      13.685   8.019   1.952  1.00  0.00     0.041 C 
HETATM    7  C11 UNL     1      14.660   6.895   2.087  1.00  0.00     0.003 C 
HETATM    8  C12 UNL     1      15.378   7.135   3.376  1.00  0.00     0.003 C 
HETATM    9  C13 UNL     1      15.262   8.599   3.646  1.00  0.00     0.041 C 
BRANCH   5  10
HETATM   10  C3  UNL     1      12.956   9.402   3.766  1.00  0.00     0.246 C 
HETATM   11  O2  UNL     1      13.112  10.017   4.855  1.00  0.00    -0.271 OA
HETATM   12  N2  UNL     1      11.662   8.999   3.438  1.00  0.00    -0.354 N 
ATOM     13  H2  UNL     1      11.520   8.500   2.560  1.00  0.00     0.162 HD
BRANCH  12  14
HETATM   14  C4  UNL     1      10.499   9.251   4.283  1.00  0.00     0.084 C 
HETATM   15  C5  UNL     1       9.905  10.614   4.016  1.00  0.00     0.025 C 
HETATM   16  C6  UNL     1       8.820  10.818   5.080  1.00  0.00     0.002 C 
HETATM   17  C7  UNL     1       7.767   9.769   4.928  1.00  0.00     0.000 C 
HETATM   18  C8  UNL     1       8.317   8.379   4.912  1.00  0.00     0.002 C 
HETATM   19  C9  UNL     1       9.449   8.227   3.910  1.00  0.00     0.025 C 
ENDBRANCH  12  14
ENDBRANCH   5  10
ENDBRANCH   3   5
BRANCH   2  20
HETATM   20  C14 UNL     1      13.985  12.278   0.643  1.00  0.00     0.109 C 
HETATM   21  C15 UNL     1      12.871  13.083   0.068  1.00  0.00     0.246 C 
HETATM   22  N3  UNL     1      13.467  13.908  -0.967  1.00  0.00    -0.074 N 
HETATM   23  C16 UNL     1      14.812  13.458  -1.160  1.00  0.00     0.237 C 
ATOM     24  H32 UNL     1      12.923  13.916  -1.831  1.00  0.00     0.277 HD
ATOM     25  H31 UNL     1      13.407  14.906  -0.762  1.00  0.00     0.277 HD
HETATM   26  C17 UNL     1      14.844  12.028  -0.600  1.00  0.00     0.026 C 
BRANCH  26  27
HETATM   27  C18 UNL     1      14.137  11.146  -1.584  1.00  0.00     0.011 C 
BRANCH  27  28
HETATM   28  C19 UNL     1      15.105  10.259  -2.279  1.00  0.00    -0.014 C 
HETATM   29  C20 UNL     1      14.907  10.136  -3.771  1.00  0.00     0.005 C 
HETATM   30  C21 UNL     1      15.731   8.949  -4.225  1.00  0.00     0.000 C 
HETATM   31  C22 UNL     1      17.167   9.022  -3.847  1.00  0.00     0.000 C 
HETATM   32  C23 UNL     1      17.399   9.495  -2.434  1.00  0.00     0.000 C 
HETATM   33  C24 UNL     1      16.547  10.685  -2.080  1.00  0.00     0.005 C 
ENDBRANCH  27  28
ENDBRANCH  26  27
ENDBRANCH   2  20
TORSDOF 6
ENDMDL
