MODEL 1
REMARK VINA RESULT: -7.476779362      0.000      0.000
REMARK  8 active torsions:
REMARK  status: ('A' for Active; 'I' for Inactive)
REMARK    1  A    between atoms: C2_2  and  O2_4 
REMARK    2  A    between atoms: O2_4  and  C3_5 
REMARK    3  A    between atoms: C3_5  and  C4_6 
REMARK    4  A    between atoms: C4_6  and  O3_7 
REMARK    5  A    between atoms: C4_6  and  C7_11 
REMARK    6  A    between atoms: O3_7  and  C5_8 
REMARK    7  A    between atoms: C9_13  and  O5_14 
REMARK    8  A    between atoms: O5_14  and  C10_15 
ROOT
HETATM    1  C7  UNL     1      13.989  59.947  38.834  1.00  0.00     0.036 C 
HETATM    2  C8  UNL     1      13.516  59.813  40.305  1.00  0.00     0.025 C 
HETATM    3  C9  UNL     1      15.014  58.825  38.738  1.00  0.00     0.147 C 
HETATM    4  C12 UNL     1      14.791  57.888  37.562  1.00  0.00     0.034 C 
HETATM    5  C13 UNL     1      14.450  58.546  36.297  1.00  0.00     0.011 C 
HETATM    6  C14 UNL     1      13.436  59.652  36.492  1.00  0.00     0.016 C 
HETATM    7  C15 UNL     1      12.268  59.464  35.498  1.00  0.00     0.010 C 
HETATM    8  C16 UNL     1      11.626  60.832  35.491  1.00  0.00     0.014 C 
HETATM    9  C17 UNL     1      10.924  60.964  36.824  1.00  0.00    -0.019 C 
HETATM   10  C18 UNL     1      10.653  62.397  37.092  1.00  0.00     0.020 C 
HETATM   11  C19 UNL     1       9.499  60.433  36.479  1.00  0.00     0.021 C 
HETATM   12  C20 UNL     1       8.780  60.161  37.787  1.00  0.00     0.079 C 
HETATM   13  C21 UNL     1       9.431  60.810  38.939  1.00  0.00     0.131 C 
HETATM   14  O7  UNL     1       8.791  61.496  39.693  1.00  0.00    -0.298 OA
HETATM   15  C22 UNL     1      10.919  60.640  39.217  1.00  0.00     0.113 C 
HETATM   16  C23 UNL     1      11.520  60.140  37.934  1.00  0.00    -0.061 C 
HETATM   17  C24 UNL     1      12.887  59.659  37.899  1.00  0.00    -0.059 C 
ENDROOT
BRANCH   1  18
HETATM   18  C4  UNL     1      14.717  61.232  38.763  1.00  0.00     0.171 C 
BRANCH  18  19
HETATM   19  C3  UNL     1      15.451  61.603  40.055  1.00  0.00     0.212 C 
BRANCH  19  20
HETATM   20  O2  UNL     1      16.647  60.889  40.234  1.00  0.00    -0.319 OA
BRANCH  20  21
HETATM   21  C2  UNL     1      17.827  61.378  39.696  1.00  0.00     0.254 C 
HETATM   22  C1  UNL     1      17.904  62.759  39.140  1.00  0.00     0.126 C 
HETATM   23  O1  UNL     1      18.845  60.652  39.677  1.00  0.00    -0.266 OA
ENDBRANCH  20  21
ENDBRANCH  19  20
ENDBRANCH  18  19
BRANCH  18  24
HETATM   24  O3  UNL     1      14.251  62.352  38.179  1.00  0.00    -0.313 OA
BRANCH  24  25
HETATM   25  C5  UNL     1      13.963  63.538  38.745  1.00  0.00     0.255 C 
HETATM   26  C6  UNL     1      12.811  63.904  39.586  1.00  0.00     0.126 C 
HETATM   27  O4  UNL     1      14.817  64.394  38.491  1.00  0.00    -0.266 OA
ENDBRANCH  24  25
ENDBRANCH  18  24
ENDBRANCH   1  18
BRANCH   3  28
HETATM   28  O5  UNL     1      14.949  57.906  39.835  1.00  0.00    -0.315 OA
BRANCH  28  29
HETATM   29  C10 UNL     1      15.969  57.127  40.285  1.00  0.00     0.255 C 
HETATM   30  C11 UNL     1      17.350  57.446  39.804  1.00  0.00     0.126 C 
HETATM   31  O6  UNL     1      15.775  56.186  41.064  1.00  0.00    -0.266 OA
ENDBRANCH  28  29
ENDBRANCH   3  28
TORSDOF 8
ENDMDL
MODEL 2
REMARK VINA RESULT: -7.013046242      4.529      8.152
REMARK  8 active torsions:
REMARK  status: ('A' for Active; 'I' for Inactive)
REMARK    1  A    between atoms: C2_2  and  O2_4 
REMARK    2  A    between atoms: O2_4  and  C3_5 
REMARK    3  A    between atoms: C3_5  and  C4_6 
REMARK    4  A    between atoms: C4_6  and  O3_7 
REMARK    5  A    between atoms: C4_6  and  C7_11 
REMARK    6  A    between atoms: O3_7  and  C5_8 
REMARK    7  A    between atoms: C9_13  and  O5_14 
REMARK    8  A    between atoms: O5_14  and  C10_15 
ROOT
HETATM    1  C7  UNL     1      16.547  56.068  35.808  1.00  0.00     0.036 C 
HETATM    2  C8  UNL     1      15.241  56.570  35.139  1.00  0.00     0.025 C 
HETATM    3  C9  UNL     1      17.493  55.996  34.618  1.00  0.00     0.147 C 
HETATM    4  C12 UNL     1      18.810  56.725  34.835  1.00  0.00     0.034 C 
HETATM    5  C13 UNL     1      19.426  56.519  36.149  1.00  0.00     0.011 C 
HETATM    6  C14 UNL     1      18.410  56.596  37.267  1.00  0.00     0.016 C 
HETATM    7  C15 UNL     1      18.909  57.577  38.352  1.00  0.00     0.010 C 
HETATM    8  C16 UNL     1      18.065  57.194  39.546  1.00  0.00     0.014 C 
HETATM    9  C17 UNL     1      16.671  57.697  39.243  1.00  0.00    -0.019 C 
HETATM   10  C18 UNL     1      15.701  56.996  40.120  1.00  0.00     0.020 C 
HETATM   11  C19 UNL     1      16.707  59.117  39.885  1.00  0.00     0.021 C 
HETATM   12  C20 UNL     1      15.513  59.891  39.358  1.00  0.00     0.079 C 
HETATM   13  C21 UNL     1      14.496  59.018  38.746  1.00  0.00     0.131 C 
HETATM   14  O7  UNL     1      13.343  59.097  39.083  1.00  0.00    -0.298 OA
HETATM   15  C22 UNL     1      14.858  57.995  37.676  1.00  0.00     0.113 C 
HETATM   16  C23 UNL     1      16.346  57.807  37.778  1.00  0.00    -0.061 C 
HETATM   17  C24 UNL     1      17.066  57.064  36.762  1.00  0.00    -0.059 C 
ENDROOT
BRANCH   1  18
HETATM   18  C4  UNL     1      16.266  54.684  36.247  1.00  0.00     0.171 C 
BRANCH  18  19
HETATM   19  C3  UNL     1      15.386  53.891  35.276  1.00  0.00     0.212 C 
BRANCH  19  20
HETATM   20  O2  UNL     1      15.999  52.717  34.810  1.00  0.00    -0.319 OA
BRANCH  20  21
HETATM   21  C2  UNL     1      15.349  51.500  34.949  1.00  0.00     0.254 C 
HETATM   22  C1  UNL     1      14.175  51.355  35.855  1.00  0.00     0.126 C 
HETATM   23  O1  UNL     1      15.753  50.507  34.305  1.00  0.00    -0.266 OA
ENDBRANCH  20  21
ENDBRANCH  19  20
ENDBRANCH  18  19
BRANCH  18  24
HETATM   24  O3  UNL     1      15.977  54.319  37.509  1.00  0.00    -0.313 OA
BRANCH  24  25
HETATM   25  C5  UNL     1      16.698  53.554  38.350  1.00  0.00     0.255 C 
HETATM   26  C6  UNL     1      17.225  53.892  39.682  1.00  0.00     0.126 C 
HETATM   27  O4  UNL     1      16.913  52.429  37.886  1.00  0.00    -0.266 OA
ENDBRANCH  24  25
ENDBRANCH  18  24
ENDBRANCH   1  18
BRANCH   3  28
HETATM   28  O5  UNL     1      16.995  56.675  33.458  1.00  0.00    -0.315 OA
BRANCH  28  29
HETATM   29  C10 UNL     1      17.265  56.349  32.166  1.00  0.00     0.255 C 
HETATM   30  C11 UNL     1      16.820  55.004  31.681  1.00  0.00     0.126 C 
HETATM   31  O6  UNL     1      17.856  57.128  31.409  1.00  0.00    -0.266 OA
ENDBRANCH  28  29
ENDBRANCH   3  28
TORSDOF 8
ENDMDL
MODEL 3
REMARK VINA RESULT: -7.006329593      2.424      6.177
REMARK  8 active torsions:
REMARK  status: ('A' for Active; 'I' for Inactive)
REMARK    1  A    between atoms: C2_2  and  O2_4 
REMARK    2  A    between atoms: O2_4  and  C3_5 
REMARK    3  A    between atoms: C3_5  and  C4_6 
REMARK    4  A    between atoms: C4_6  and  O3_7 
REMARK    5  A    between atoms: C4_6  and  C7_11 
REMARK    6  A    between atoms: O3_7  and  C5_8 
REMARK    7  A    between atoms: C9_13  and  O5_14 
REMARK    8  A    between atoms: O5_14  and  C10_15 
ROOT
HETATM    1  C7  UNL     1      13.157  59.899  36.806  1.00  0.00     0.036 C 
HETATM    2  C8  UNL     1      13.297  61.046  35.771  1.00  0.00     0.025 C 
HETATM    3  C9  UNL     1      13.544  58.685  35.973  1.00  0.00     0.147 C 
HETATM    4  C12 UNL     1      14.621  57.821  36.610  1.00  0.00     0.034 C 
HETATM    5  C13 UNL     1      14.456  57.578  38.046  1.00  0.00     0.011 C 
HETATM    6  C14 UNL     1      14.060  58.836  38.788  1.00  0.00     0.016 C 
HETATM    7  C15 UNL     1      15.001  59.040  39.998  1.00  0.00     0.010 C 
HETATM    8  C16 UNL     1      14.218  60.007  40.857  1.00  0.00     0.014 C 
HETATM    9  C17 UNL     1      14.284  61.338  40.142  1.00  0.00    -0.019 C 
HETATM   10  C18 UNL     1      13.204  62.218  40.652  1.00  0.00     0.020 C 
HETATM   11  C19 UNL     1      15.546  61.979  40.794  1.00  0.00     0.021 C 
HETATM   12  C20 UNL     1      15.959  63.159  39.936  1.00  0.00     0.079 C 
HETATM   13  C21 UNL     1      14.893  63.592  39.015  1.00  0.00     0.131 C 
HETATM   14  O7  UNL     1      14.556  64.747  38.973  1.00  0.00    -0.298 OA
HETATM   15  C22 UNL     1      14.186  62.609  38.091  1.00  0.00     0.113 C 
HETATM   16  C23 UNL     1      14.472  61.244  38.651  1.00  0.00    -0.061 C 
HETATM   17  C24 UNL     1      14.134  60.053  37.897  1.00  0.00    -0.059 C 
ENDROOT
BRANCH   1  18
HETATM   18  C4  UNL     1      11.711  59.801  37.102  1.00  0.00     0.171 C 
BRANCH  18  19
HETATM   19  C3  UNL     1      10.816  60.473  36.057  1.00  0.00     0.212 C 
BRANCH  19  20
HETATM   20  O2  UNL     1      10.168  59.556  35.214  1.00  0.00    -0.319 OA
BRANCH  20  21
HETATM   21  C2  UNL     1       8.784  59.548  35.140  1.00  0.00     0.254 C 
HETATM   22  C1  UNL     1       8.045  58.329  34.702  1.00  0.00     0.126 C 
HETATM   23  O1  UNL     1       8.142  60.577  35.445  1.00  0.00    -0.266 OA
ENDBRANCH  20  21
ENDBRANCH  19  20
ENDBRANCH  18  19
BRANCH  18  24
HETATM   24  O3  UNL     1      11.162  59.952  38.321  1.00  0.00    -0.313 OA
BRANCH  24  25
HETATM   25  C5  UNL     1      10.019  60.578  38.658  1.00  0.00     0.255 C 
HETATM   26  C6  UNL     1       9.810  61.995  38.999  1.00  0.00     0.126 C 
HETATM   27  O4  UNL     1       9.051  59.811  38.661  1.00  0.00    -0.266 OA
ENDBRANCH  24  25
ENDBRANCH  18  24
ENDBRANCH   1  18
BRANCH   3  28
HETATM   28  O5  UNL     1      14.171  59.030  34.731  1.00  0.00    -0.315 OA
BRANCH  28  29
HETATM   29  C10 UNL     1      14.602  58.153  33.785  1.00  0.00     0.255 C 
HETATM   30  C11 UNL     1      13.625  57.136  33.284  1.00  0.00     0.126 C 
HETATM   31  O6  UNL     1      15.759  58.185  33.347  1.00  0.00    -0.266 OA
ENDBRANCH  28  29
ENDBRANCH   3  28
TORSDOF 8
ENDMDL
MODEL 4
REMARK VINA RESULT: -6.890333939      1.954      5.763
REMARK  8 active torsions:
REMARK  status: ('A' for Active; 'I' for Inactive)
REMARK    1  A    between atoms: C2_2  and  O2_4 
REMARK    2  A    between atoms: O2_4  and  C3_5 
REMARK    3  A    between atoms: C3_5  and  C4_6 
REMARK    4  A    between atoms: C4_6  and  O3_7 
REMARK    5  A    between atoms: C4_6  and  C7_11 
REMARK    6  A    between atoms: O3_7  and  C5_8 
REMARK    7  A    between atoms: C9_13  and  O5_14 
REMARK    8  A    between atoms: O5_14  and  C10_15 
ROOT
HETATM    1  C7  UNL     1      13.865  60.489  38.730  1.00  0.00     0.036 C 
HETATM    2  C8  UNL     1      13.252  60.573  37.308  1.00  0.00     0.025 C 
HETATM    3  C9  UNL     1      12.694  60.931  39.596  1.00  0.00     0.147 C 
HETATM    4  C12 UNL     1      12.373  59.973  40.732  1.00  0.00     0.034 C 
HETATM    5  C13 UNL     1      13.537  59.454  41.456  1.00  0.00     0.011 C 
HETATM    6  C14 UNL     1      14.652  59.051  40.516  1.00  0.00     0.016 C 
HETATM    7  C15 UNL     1      15.119  57.617  40.853  1.00  0.00     0.010 C 
HETATM    8  C16 UNL     1      16.474  57.553  40.187  1.00  0.00     0.014 C 
HETATM    9  C17 UNL     1      16.199  57.486  38.701  1.00  0.00    -0.019 C 
HETATM   10  C18 UNL     1      17.428  57.865  37.961  1.00  0.00     0.020 C 
HETATM   11  C19 UNL     1      16.152  55.946  38.463  1.00  0.00     0.021 C 
HETATM   12  C20 UNL     1      15.531  55.709  37.100  1.00  0.00     0.079 C 
HETATM   13  C21 UNL     1      15.517  56.922  36.263  1.00  0.00     0.131 C 
HETATM   14  O7  UNL     1      15.957  56.894  35.143  1.00  0.00    -0.298 OA
HETATM   15  C22 UNL     1      14.952  58.241  36.776  1.00  0.00     0.113 C 
HETATM   16  C23 UNL     1      14.898  58.108  38.272  1.00  0.00    -0.061 C 
HETATM   17  C24 UNL     1      14.206  59.097  39.074  1.00  0.00    -0.059 C 
ENDROOT
BRANCH   1  18
HETATM   18  C4  UNL     1      14.895  61.549  38.785  1.00  0.00     0.171 C 
BRANCH  18  19
HETATM   19  C3  UNL     1      14.535  62.807  37.990  1.00  0.00     0.212 C 
BRANCH  19  20
HETATM   20  O2  UNL     1      15.167  63.964  38.473  1.00  0.00    -0.319 OA
BRANCH  20  21
HETATM   21  C2  UNL     1      14.806  64.482  39.707  1.00  0.00     0.254 C 
HETATM   22  C1  UNL     1      13.379  64.526  40.134  1.00  0.00     0.126 C 
HETATM   23  O1  UNL     1      15.690  64.920  40.476  1.00  0.00    -0.266 OA
ENDBRANCH  20  21
ENDBRANCH  19  20
ENDBRANCH  18  19
BRANCH  18  24
HETATM   24  O3  UNL     1      16.222  61.340  38.710  1.00  0.00    -0.313 OA
BRANCH  24  25
HETATM   25  C5  UNL     1      17.131  61.338  39.703  1.00  0.00     0.255 C 
HETATM   26  C6  UNL     1      18.540  60.916  39.662  1.00  0.00     0.126 C 
HETATM   27  O4  UNL     1      16.660  61.759  40.765  1.00  0.00    -0.266 OA
ENDBRANCH  24  25
ENDBRANCH  18  24
ENDBRANCH   1  18
BRANCH   3  28
HETATM   28  O5  UNL     1      11.446  60.947  38.892  1.00  0.00    -0.315 OA
BRANCH  28  29
HETATM   29  C10 UNL     1      10.540  61.961  38.898  1.00  0.00     0.255 C 
HETATM   30  C11 UNL     1      10.760  63.096  37.947  1.00  0.00     0.126 C 
HETATM   31  O6  UNL     1       9.563  61.956  39.659  1.00  0.00    -0.266 OA
ENDBRANCH  28  29
ENDBRANCH   3  28
TORSDOF 8
ENDMDL
MODEL 5
REMARK VINA RESULT: -6.855858453      5.077      8.547
REMARK  8 active torsions:
REMARK  status: ('A' for Active; 'I' for Inactive)
REMARK    1  A    between atoms: C2_2  and  O2_4 
REMARK    2  A    between atoms: O2_4  and  C3_5 
REMARK    3  A    between atoms: C3_5  and  C4_6 
REMARK    4  A    between atoms: C4_6  and  O3_7 
REMARK    5  A    between atoms: C4_6  and  C7_11 
REMARK    6  A    between atoms: O3_7  and  C5_8 
REMARK    7  A    between atoms: C9_13  and  O5_14 
REMARK    8  A    between atoms: O5_14  and  C10_15 
ROOT
HETATM    1  C7  UNL     1      17.321  56.120  35.305  1.00  0.00     0.036 C 
HETATM    2  C8  UNL     1      16.053  56.818  34.747  1.00  0.00     0.025 C 
HETATM    3  C9  UNL     1      18.298  56.290  34.151  1.00  0.00     0.147 C 
HETATM    4  C12 UNL     1      19.633  56.892  34.561  1.00  0.00     0.034 C 
HETATM    5  C13 UNL     1      20.203  56.358  35.801  1.00  0.00     0.011 C 
HETATM    6  C14 UNL     1      19.157  56.213  36.885  1.00  0.00     0.016 C 
HETATM    7  C15 UNL     1      19.658  56.889  38.181  1.00  0.00     0.010 C 
HETATM    8  C16 UNL     1      18.766  56.272  39.234  1.00  0.00     0.014 C 
HETATM    9  C17 UNL     1      17.400  56.889  39.030  1.00  0.00    -0.019 C 
HETATM   10  C18 UNL     1      16.380  56.043  39.696  1.00  0.00     0.020 C 
HETATM   11  C19 UNL     1      17.467  58.116  39.989  1.00  0.00     0.021 C 
HETATM   12  C20 UNL     1      16.318  59.040  39.635  1.00  0.00     0.079 C 
HETATM   13  C21 UNL     1      15.289  58.379  38.813  1.00  0.00     0.131 C 
HETATM   14  O7  UNL     1      14.130  58.424  39.136  1.00  0.00    -0.298 OA
HETATM   15  C22 UNL     1      15.646  57.621  37.541  1.00  0.00     0.113 C 
HETATM   16  C23 UNL     1      17.123  57.354  37.625  1.00  0.00    -0.061 C 
HETATM   17  C24 UNL     1      17.845  56.841  36.478  1.00  0.00    -0.059 C 
ENDROOT
BRANCH   1  18
HETATM   18  C4  UNL     1      16.978  54.684  35.399  1.00  0.00     0.171 C 
BRANCH  18  19
HETATM   19  C3  UNL     1      16.992  53.952  34.054  1.00  0.00     0.212 C 
BRANCH  19  20
HETATM   20  O2  UNL     1      17.931  52.911  34.003  1.00  0.00    -0.319 OA
BRANCH  20  21
HETATM   21  C2  UNL     1      19.040  53.024  33.178  1.00  0.00     0.254 C 
HETATM   22  C1  UNL     1      18.900  53.460  31.759  1.00  0.00     0.126 C 
HETATM   23  O1  UNL     1      20.176  52.757  33.628  1.00  0.00    -0.266 OA
ENDBRANCH  20  21
ENDBRANCH  19  20
ENDBRANCH  18  19
BRANCH  18  24
HETATM   24  O3  UNL     1      16.003  54.173  36.174  1.00  0.00    -0.313 OA
BRANCH  24  25
HETATM   25  C5  UNL     1      16.085  53.191  37.091  1.00  0.00     0.255 C 
HETATM   26  C6  UNL     1      15.124  52.114  37.378  1.00  0.00     0.126 C 
HETATM   27  O4  UNL     1      17.130  53.254  37.747  1.00  0.00    -0.266 OA
ENDBRANCH  24  25
ENDBRANCH  18  24
ENDBRANCH   1  18
BRANCH   3  28
HETATM   28  O5  UNL     1      17.859  57.242  33.175  1.00  0.00    -0.315 OA
BRANCH  28  29
HETATM   29  C10 UNL     1      17.941  57.096  31.825  1.00  0.00     0.255 C 
HETATM   30  C11 UNL     1      16.694  56.719  31.089  1.00  0.00     0.126 C 
HETATM   31  O6  UNL     1      19.005  57.268  31.216  1.00  0.00    -0.266 OA
ENDBRANCH  28  29
ENDBRANCH   3  28
TORSDOF 8
ENDMDL
