MODEL 1
REMARK VINA RESULT: -5.755259069      0.000      0.000
REMARK  8 active torsions:
REMARK  status: ('A' for Active; 'I' for Inactive)
REMARK    1  A    between atoms: N1_1  and  C1_4 
REMARK    2  A    between atoms: C5_15  and  N5_16 
REMARK    3  A    between atoms: N6_19  and  C6_20 
REMARK    4  A    between atoms: N7_22  and  N8_23 
REMARK    5  A    between atoms: C9_25  and  N9_26 
REMARK    6  A    between atoms: C10_30  and  O2_31 
REMARK    7  A    between atoms: C11_33  and  O3_34 
REMARK    8  A    between atoms: C12_36  and  N10_37 
ROOT
HETATM    1  C6  UNL     1      17.082  49.484  10.885  1.00  0.00     0.262 C 
HETATM    2  C7  UNL     1      17.956  50.298   9.958  1.00  0.00     0.165 C 
HETATM    3  N7  UNL     1      16.839  50.968   9.256  1.00  0.00    -0.220 NA
HETATM    4  C13 UNL     1      16.018  49.863   8.948  1.00  0.00     0.279 C 
HETATM    5  O4  UNL     1      16.155  48.949  10.000  1.00  0.00    -0.349 OA
ENDROOT
BRANCH   1   6
HETATM    6  N6  UNL     1      17.762  48.549  11.705  1.00  0.00    -0.146 N 
HETATM    7  C3  UNL     1      18.649  48.962  12.656  1.00  0.00     0.167 A 
HETATM    8  C2  UNL     1      19.115  50.183  13.081  1.00  0.00     0.291 A 
HETATM    9  C4  UNL     1      19.150  47.847  13.289  1.00  0.00     0.169 A 
HETATM   10  N2  UNL     1      20.021  50.340  14.069  1.00  0.00    -0.154 N 
HETATM   11  O1  UNL     1      18.668  51.225  12.511  1.00  0.00    -0.265 OA
HETATM   12  C1  UNL     1      20.485  49.233  14.662  1.00  0.00     0.680 A 
ATOM     13  H2  UNL     1      20.340  51.266  14.353  1.00  0.00     0.187 HD
HETATM   14  N3  UNL     1      20.064  48.013  14.286  1.00  0.00    -0.174 N 
ATOM     15  H3  UNL     1      20.438  47.191  14.760  1.00  0.00     0.186 HD
HETATM   16  N4  UNL     1      18.581  46.764  12.739  1.00  0.00    -0.174 N 
HETATM   17  C5  UNL     1      17.750  47.224  11.787  1.00  0.00     0.682 A 
ATOM     18  H4  UNL     1      18.745  45.790  12.991  1.00  0.00     0.186 HD
BRANCH  12  19
HETATM   19  N1  UNL     1      21.358  49.392  15.614  1.00  0.00    -0.234 N 
ATOM     20  H12 UNL     1      21.212  50.061  16.370  1.00  0.00     0.174 HD
ATOM     21  H11 UNL     1      22.200  48.815  15.574  1.00  0.00     0.174 HD
ENDBRANCH  12  19
BRANCH  17  22
HETATM   22  N5  UNL     1      17.044  46.453  11.058  1.00  0.00    -0.234 N 
ATOM     23  H52 UNL     1      16.537  45.634  11.393  1.00  0.00     0.174 HD
ATOM     24  H51 UNL     1      16.924  46.599  10.056  1.00  0.00     0.174 HD
ENDBRANCH  17  22
ENDBRANCH   1   6
BRANCH   3  25
HETATM   25  N8  UNL     1      17.224  51.805   8.277  1.00  0.00    -0.213 NA
HETATM   26  C8  UNL     1      18.069  52.902   8.618  1.00  0.00     0.146 C 
HETATM   27  C9  UNL     1      18.091  53.833   7.397  1.00  0.00     0.229 C 
HETATM   28  C10 UNL     1      18.622  53.170   6.181  1.00  0.00     0.181 C 
HETATM   29  C11 UNL     1      18.156  51.753   5.998  1.00  0.00     0.195 C 
HETATM   30  C12 UNL     1      17.955  51.012   7.274  1.00  0.00     0.303 C 
BRANCH  27  31
HETATM   31  N9  UNL     1      16.730  54.277   7.178  1.00  0.00    -0.071 N 
ATOM     32  H93 UNL     1      16.391  54.082   6.236  1.00  0.00     0.274 HD
ATOM     33  H92 UNL     1      16.041  53.720   7.683  1.00  0.00     0.274 HD
ATOM     34  H91 UNL     1      16.698  55.268   7.419  1.00  0.00     0.274 HD
ENDBRANCH  27  31
BRANCH  28  35
HETATM   35  O2  UNL     1      18.154  53.894   5.061  1.00  0.00    -0.391 OA
ATOM     36  H2  UNL     1      18.875  53.969   4.446  1.00  0.00     0.210 HD
ENDBRANCH  28  35
BRANCH  29  37
HETATM   37  O3  UNL     1      19.132  51.085   5.258  1.00  0.00    -0.390 OA
ATOM     38  H3  UNL     1      19.180  51.506   4.407  1.00  0.00     0.210 HD
ENDBRANCH  29  37
BRANCH  30  39
HETATM   39  N10 UNL     1      17.238  49.782   6.982  1.00  0.00    -0.059 N 
ATOM     40 3H10 UNL     1      16.231  49.934   6.920  1.00  0.00     0.276 HD
ATOM     41 2H10 UNL     1      17.402  49.464   6.027  1.00  0.00     0.276 HD
ATOM     42 1H10 UNL     1      17.473  49.064   7.667  1.00  0.00     0.276 HD
ENDBRANCH  30  39
ENDBRANCH   3  25
TORSDOF 8
ENDMDL
MODEL 2
REMARK VINA RESULT: -5.174154889      0.923      1.796
REMARK  8 active torsions:
REMARK  status: ('A' for Active; 'I' for Inactive)
REMARK    1  A    between atoms: N1_1  and  C1_4 
REMARK    2  A    between atoms: C5_15  and  N5_16 
REMARK    3  A    between atoms: N6_19  and  C6_20 
REMARK    4  A    between atoms: N7_22  and  N8_23 
REMARK    5  A    between atoms: C9_25  and  N9_26 
REMARK    6  A    between atoms: C10_30  and  O2_31 
REMARK    7  A    between atoms: C11_33  and  O3_34 
REMARK    8  A    between atoms: C12_36  and  N10_37 
ROOT
HETATM    1  C6  UNL     1      17.369  49.535  10.848  1.00  0.00     0.262 C 
HETATM    2  C7  UNL     1      18.294  50.057   9.772  1.00  0.00     0.165 C 
HETATM    3  N7  UNL     1      17.252  50.807   9.036  1.00  0.00    -0.220 NA
HETATM    4  C13 UNL     1      16.244  49.826   8.930  1.00  0.00     0.279 C 
HETATM    5  O4  UNL     1      16.307  49.051  10.095  1.00  0.00    -0.349 OA
ENDROOT
BRANCH   1   6
HETATM    6  N6  UNL     1      17.947  48.616  11.759  1.00  0.00    -0.146 N 
HETATM    7  C3  UNL     1      18.809  49.035  12.730  1.00  0.00     0.167 A 
HETATM    8  C2  UNL     1      19.329  50.252  13.104  1.00  0.00     0.291 A 
HETATM    9  C4  UNL     1      19.206  47.936  13.457  1.00  0.00     0.169 A 
HETATM   10  N2  UNL     1      20.192  50.418  14.128  1.00  0.00    -0.154 N 
HETATM   11  O1  UNL     1      18.977  51.280  12.447  1.00  0.00    -0.265 OA
HETATM   12  C1  UNL     1      20.554  49.326  14.812  1.00  0.00     0.680 A 
ATOM     13  H2  UNL     1      20.554  51.340  14.372  1.00  0.00     0.187 HD
HETATM   14  N3  UNL     1      20.077  48.112  14.490  1.00  0.00    -0.174 N 
ATOM     15  H3  UNL     1      20.375  47.302  15.033  1.00  0.00     0.186 HD
HETATM   16  N4  UNL     1      18.599  46.856  12.944  1.00  0.00    -0.174 N 
HETATM   17  C5  UNL     1      17.847  47.302  11.922  1.00  0.00     0.682 A 
ATOM     18  H4  UNL     1      18.688  45.892  13.264  1.00  0.00     0.186 HD
BRANCH  12  19
HETATM   19  N1  UNL     1      21.387  49.494  15.799  1.00  0.00    -0.234 N 
ATOM     20  H12 UNL     1      21.294  48.976  16.672  1.00  0.00     0.174 HD
ATOM     21  H11 UNL     1      22.141  50.168  15.662  1.00  0.00     0.174 HD
ENDBRANCH  12  19
BRANCH  17  22
HETATM   22  N5  UNL     1      17.131  46.528  11.205  1.00  0.00    -0.234 N 
ATOM     23  H52 UNL     1      16.977  45.538  11.389  1.00  0.00     0.174 HD
ATOM     24  H51 UNL     1      16.642  46.848  10.369  1.00  0.00     0.174 HD
ENDBRANCH  17  22
ENDBRANCH   1   6
BRANCH   3  25
HETATM   25  N8  UNL     1      17.696  51.428   7.929  1.00  0.00    -0.213 NA
HETATM   26  C8  UNL     1      17.241  50.958   6.662  1.00  0.00     0.146 C 
HETATM   27  C9  UNL     1      18.126  51.633   5.603  1.00  0.00     0.229 C 
HETATM   28  C10 UNL     1      18.031  53.113   5.636  1.00  0.00     0.181 C 
HETATM   29  C11 UNL     1      17.991  53.697   7.020  1.00  0.00     0.195 C 
HETATM   30  C12 UNL     1      17.294  52.842   8.020  1.00  0.00     0.303 C 
BRANCH  27  31
HETATM   31  N9  UNL     1      19.487  51.207   5.854  1.00  0.00    -0.071 N 
ATOM     32  H93 UNL     1      20.184  51.867   5.508  1.00  0.00     0.274 HD
ATOM     33  H92 UNL     1      19.745  51.250   6.839  1.00  0.00     0.274 HD
ATOM     34  H91 UNL     1      19.585  50.273   5.455  1.00  0.00     0.274 HD
ENDBRANCH  27  31
BRANCH  28  35
HETATM   35  O2  UNL     1      19.191  53.630   5.016  1.00  0.00    -0.391 OA
ATOM     36  H2  UNL     1      18.924  54.036   4.200  1.00  0.00     0.210 HD
ENDBRANCH  28  35
BRANCH  29  37
HETATM   37  O3  UNL     1      17.312  54.913   6.941  1.00  0.00    -0.390 OA
ATOM     38  H3  UNL     1      17.304  55.291   7.813  1.00  0.00     0.210 HD
ENDBRANCH  29  37
BRANCH  30  39
HETATM   39  N10 UNL     1      17.575  53.363   9.346  1.00  0.00    -0.059 N 
ATOM     40 3H10 UNL     1      16.981  52.935  10.057  1.00  0.00     0.276 HD
ATOM     41 2H10 UNL     1      18.480  53.047   9.695  1.00  0.00     0.276 HD
ATOM     42 1H10 UNL     1      17.500  54.380   9.350  1.00  0.00     0.276 HD
ENDBRANCH  30  39
ENDBRANCH   3  25
TORSDOF 8
ENDMDL
MODEL 3
REMARK VINA RESULT: -4.501588933      2.269      7.106
REMARK  8 active torsions:
REMARK  status: ('A' for Active; 'I' for Inactive)
REMARK    1  A    between atoms: N1_1  and  C1_4 
REMARK    2  A    between atoms: C5_15  and  N5_16 
REMARK    3  A    between atoms: N6_19  and  C6_20 
REMARK    4  A    between atoms: N7_22  and  N8_23 
REMARK    5  A    between atoms: C9_25  and  N9_26 
REMARK    6  A    between atoms: C10_30  and  O2_31 
REMARK    7  A    between atoms: C11_33  and  O3_34 
REMARK    8  A    between atoms: C12_36  and  N10_37 
ROOT
HETATM    1  C6  UNL     1      17.800  49.400   9.300  1.00  0.00     0.262 C 
HETATM    2  C7  UNL     1      18.215  50.361  10.391  1.00  0.00     0.165 C 
HETATM    3  N7  UNL     1      18.568  49.316  11.378  1.00  0.00    -0.220 NA
HETATM    4  C13 UNL     1      17.422  48.495  11.316  1.00  0.00     0.279 C 
HETATM    5  O4  UNL     1      16.967  48.531   9.992  1.00  0.00    -0.349 OA
ENDROOT
BRANCH   1   6
HETATM    6  N6  UNL     1      17.242  49.995   8.140  1.00  0.00    -0.146 N 
HETATM    7  C3  UNL     1      17.986  50.816   7.343  1.00  0.00     0.167 A 
HETATM    8  C2  UNL     1      19.281  51.274   7.366  1.00  0.00     0.291 A 
HETATM    9  C4  UNL     1      17.190  51.242   6.303  1.00  0.00     0.169 A 
HETATM   10  N2  UNL     1      19.801  52.105   6.438  1.00  0.00    -0.154 N 
HETATM   11  O1  UNL     1      20.033  50.895   8.316  1.00  0.00    -0.265 OA
HETATM   12  C1  UNL     1      18.998  52.497   5.442  1.00  0.00     0.680 A 
ATOM     13  H2  UNL     1      20.769  52.422   6.494  1.00  0.00     0.187 HD
HETATM   14  N3  UNL     1      17.723  52.080   5.370  1.00  0.00    -0.174 N 
ATOM     15  H3  UNL     1      17.139  52.398   4.597  1.00  0.00     0.186 HD
HETATM   16  N4  UNL     1      15.976  50.693   6.456  1.00  0.00    -0.174 N 
HETATM   17  C5  UNL     1      16.043  49.947   7.573  1.00  0.00     0.682 A 
ATOM     18  H4  UNL     1      15.167  50.815   5.848  1.00  0.00     0.186 HD
BRANCH  12  19
HETATM   19  N1  UNL     1      19.506  53.298   4.550  1.00  0.00    -0.234 N 
ATOM     20  H12 UNL     1      18.941  54.006   4.081  1.00  0.00     0.174 HD
ATOM     21  H11 UNL     1      20.499  53.190   4.340  1.00  0.00     0.174 HD
ENDBRANCH  12  19
BRANCH  17  22
HETATM   22  N5  UNL     1      15.050  49.282   8.017  1.00  0.00    -0.234 N 
ATOM     23  H52 UNL     1      14.874  48.296   7.827  1.00  0.00     0.174 HD
ATOM     24  H51 UNL     1      14.334  49.695   8.616  1.00  0.00     0.174 HD
ENDBRANCH  17  22
ENDBRANCH   1   6
BRANCH   3  25
HETATM   25  N8  UNL     1      18.982  49.794  12.564  1.00  0.00    -0.213 NA
HETATM   26  C8  UNL     1      18.139  49.610  13.699  1.00  0.00     0.146 C 
HETATM   27  C9  UNL     1      18.706  50.501  14.814  1.00  0.00     0.229 C 
HETATM   28  C10 UNL     1      20.099  50.144  15.180  1.00  0.00     0.181 C 
HETATM   29  C11 UNL     1      20.977  49.810  14.007  1.00  0.00     0.195 C 
HETATM   30  C12 UNL     1      20.263  49.141  12.885  1.00  0.00     0.303 C 
BRANCH  27  31
HETATM   31  N9  UNL     1      18.641  51.867  14.339  1.00  0.00    -0.071 N 
ATOM     32  H93 UNL     1      19.512  52.185  13.912  1.00  0.00     0.274 HD
ATOM     33  H92 UNL     1      18.046  51.978  13.518  1.00  0.00     0.274 HD
ATOM     34  H91 UNL     1      18.347  52.443  15.127  1.00  0.00     0.274 HD
ENDBRANCH  27  31
BRANCH  28  35
HETATM   35  O2  UNL     1      20.678  51.270  15.807  1.00  0.00    -0.391 OA
ATOM     36  H2  UNL     1      21.621  51.192  15.725  1.00  0.00     0.210 HD
ENDBRANCH  28  35
BRANCH  29  37
HETATM   37  O3  UNL     1      21.972  48.946  14.464  1.00  0.00    -0.390 OA
ATOM     38  H3  UNL     1      22.269  48.436  13.719  1.00  0.00     0.210 HD
ENDBRANCH  29  37
BRANCH  30  39
HETATM   39  N10 UNL     1      21.134  49.139  11.723  1.00  0.00    -0.059 N 
ATOM     40 3H10 UNL     1      21.750  49.952  11.707  1.00  0.00     0.276 HD
ATOM     41 2H10 UNL     1      21.846  48.410  11.782  1.00  0.00     0.276 HD
ATOM     42 1H10 UNL     1      20.583  49.062  10.867  1.00  0.00     0.276 HD
ENDBRANCH  30  39
ENDBRANCH   3  25
TORSDOF 8
ENDMDL
MODEL 4
REMARK VINA RESULT: -3.684309059      2.002      7.214
REMARK  8 active torsions:
REMARK  status: ('A' for Active; 'I' for Inactive)
REMARK    1  A    between atoms: N1_1  and  C1_4 
REMARK    2  A    between atoms: C5_15  and  N5_16 
REMARK    3  A    between atoms: N6_19  and  C6_20 
REMARK    4  A    between atoms: N7_22  and  N8_23 
REMARK    5  A    between atoms: C9_25  and  N9_26 
REMARK    6  A    between atoms: C10_30  and  O2_31 
REMARK    7  A    between atoms: C11_33  and  O3_34 
REMARK    8  A    between atoms: C12_36  and  N10_37 
ROOT
HETATM    1  C6  UNL     1      17.755  49.183   9.306  1.00  0.00     0.262 C 
HETATM    2  C7  UNL     1      18.561  49.874  10.383  1.00  0.00     0.165 C 
HETATM    3  N7  UNL     1      18.824  48.652  11.175  1.00  0.00    -0.220 NA
HETATM    4  C13 UNL     1      17.525  48.108  11.260  1.00  0.00     0.279 C 
HETATM    5  O4  UNL     1      16.873  48.421  10.061  1.00  0.00    -0.349 OA
ENDROOT
BRANCH   1   6
HETATM    6  N6  UNL     1      17.162  50.036   8.342  1.00  0.00    -0.146 N 
HETATM    7  C3  UNL     1      17.929  50.797   7.509  1.00  0.00     0.167 A 
HETATM    8  C2  UNL     1      19.281  50.980   7.334  1.00  0.00     0.291 A 
HETATM    9  C4  UNL     1      17.090  51.518   6.689  1.00  0.00     0.169 A 
HETATM   10  N2  UNL     1      19.814  51.814   6.416  1.00  0.00    -0.154 N 
HETATM   11  O1  UNL     1      20.074  50.326   8.079  1.00  0.00    -0.265 OA
HETATM   12  C1  UNL     1      18.967  52.496   5.637  1.00  0.00     0.680 A 
ATOM     13  H2  UNL     1      20.824  51.919   6.321  1.00  0.00     0.187 HD
HETATM   14  N3  UNL     1      17.636  52.357   5.765  1.00  0.00    -0.174 N 
ATOM     15  H3  UNL     1      17.020  52.893   5.154  1.00  0.00     0.186 HD
HETATM   16  N4  UNL     1      15.826  51.206   7.011  1.00  0.00    -0.174 N 
HETATM   17  C5  UNL     1      15.906  50.310   8.011  1.00  0.00     0.682 A 
ATOM     18  H4  UNL     1      14.976  51.573   6.583  1.00  0.00     0.186 HD
BRANCH  12  19
HETATM   19  N1  UNL     1      19.488  53.299   4.754  1.00  0.00    -0.234 N 
ATOM     20  H12 UNL     1      19.837  52.957   3.859  1.00  0.00     0.174 HD
ATOM     21  H11 UNL     1      19.534  54.289   4.996  1.00  0.00     0.174 HD
ENDBRANCH  12  19
BRANCH  17  22
HETATM   22  N5  UNL     1      14.876  49.801   8.563  1.00  0.00    -0.234 N 
ATOM     23  H52 UNL     1      14.270  50.282   9.226  1.00  0.00     0.174 HD
ATOM     24  H51 UNL     1      14.567  48.847   8.377  1.00  0.00     0.174 HD
ENDBRANCH  17  22
ENDBRANCH   1   6
BRANCH   3  25
HETATM   25  N8  UNL     1      19.533  48.863  12.297  1.00  0.00    -0.213 NA
HETATM   26  C8  UNL     1      20.929  49.125  12.176  1.00  0.00     0.146 C 
HETATM   27  C9  UNL     1      21.518  49.020  13.590  1.00  0.00     0.229 C 
HETATM   28  C10 UNL     1      20.920  49.996  14.534  1.00  0.00     0.181 C 
HETATM   29  C11 UNL     1      19.435  50.168  14.382  1.00  0.00     0.195 C 
HETATM   30  C12 UNL     1      18.948  50.027  12.983  1.00  0.00     0.303 C 
BRANCH  27  31
HETATM   31  N9  UNL     1      21.285  47.665  14.047  1.00  0.00    -0.071 N 
ATOM     32  H93 UNL     1      21.412  46.968  13.313  1.00  0.00     0.274 HD
ATOM     33  H92 UNL     1      22.010  47.324  14.678  1.00  0.00     0.274 HD
ATOM     34  H91 UNL     1      20.353  47.647  14.461  1.00  0.00     0.274 HD
ENDBRANCH  27  31
BRANCH  28  35
HETATM   35  O2  UNL     1      21.137  49.512  15.844  1.00  0.00    -0.391 OA
ATOM     36  H2  UNL     1      21.292  50.262  16.405  1.00  0.00     0.210 HD
ENDBRANCH  28  35
BRANCH  29  37
HETATM   37  O3  UNL     1      19.117  51.452  14.825  1.00  0.00    -0.390 OA
ATOM     38  H3  UNL     1      19.643  51.624  15.598  1.00  0.00     0.210 HD
ENDBRANCH  29  37
BRANCH  30  39
HETATM   39  N10 UNL     1      17.499  49.922  13.009  1.00  0.00    -0.059 N 
ATOM     40 3H10 UNL     1      17.117  50.162  13.925  1.00  0.00     0.276 HD
ATOM     41 2H10 UNL     1      17.054  50.659  12.462  1.00  0.00     0.276 HD
ATOM     42 1H10 UNL     1      17.205  48.994  12.706  1.00  0.00     0.276 HD
ENDBRANCH  30  39
ENDBRANCH   3  25
TORSDOF 8
ENDMDL
MODEL 5
REMARK VINA RESULT: -3.264694574      2.157      7.305
REMARK  8 active torsions:
REMARK  status: ('A' for Active; 'I' for Inactive)
REMARK    1  A    between atoms: N1_1  and  C1_4 
REMARK    2  A    between atoms: C5_15  and  N5_16 
REMARK    3  A    between atoms: N6_19  and  C6_20 
REMARK    4  A    between atoms: N7_22  and  N8_23 
REMARK    5  A    between atoms: C9_25  and  N9_26 
REMARK    6  A    between atoms: C10_30  and  O2_31 
REMARK    7  A    between atoms: C11_33  and  O3_34 
REMARK    8  A    between atoms: C12_36  and  N10_37 
ROOT
HETATM    1  C6  UNL     1      17.760  49.509   8.936  1.00  0.00     0.262 C 
HETATM    2  C7  UNL     1      18.473  50.187  10.084  1.00  0.00     0.165 C 
HETATM    3  N7  UNL     1      18.591  48.972  10.920  1.00  0.00    -0.220 NA
HETATM    4  C13 UNL     1      17.268  48.486  10.869  1.00  0.00     0.279 C 
HETATM    5  O4  UNL     1      16.766  48.802   9.600  1.00  0.00    -0.349 OA
ENDROOT
BRANCH   1   6
HETATM    6  N6  UNL     1      17.317  50.366   7.898  1.00  0.00    -0.146 N 
HETATM    7  C3  UNL     1      18.206  51.046   7.118  1.00  0.00     0.167 A 
HETATM    8  C2  UNL     1      19.577  51.134   7.064  1.00  0.00     0.291 A 
HETATM    9  C4  UNL     1      17.496  51.792   6.205  1.00  0.00     0.169 A 
HETATM   10  N2  UNL     1      20.247  51.899   6.177  1.00  0.00    -0.154 N 
HETATM   11  O1  UNL     1      20.253  50.455   7.897  1.00  0.00    -0.265 OA
HETATM   12  C1  UNL     1      19.522  52.609   5.304  1.00  0.00     0.680 A 
ATOM     13  H2  UNL     1      21.267  51.934   6.171  1.00  0.00     0.187 HD
HETATM   14  N3  UNL     1      18.179  52.562   5.313  1.00  0.00    -0.174 N 
ATOM     15  H3  UNL     1      17.659  53.116   4.633  1.00  0.00     0.186 HD
HETATM   16  N4  UNL     1      16.190  51.576   6.417  1.00  0.00    -0.174 N 
HETATM   17  C5  UNL     1      16.118  50.711   7.445  1.00  0.00     0.682 A 
ATOM     18  H4  UNL     1      15.409  51.984   5.903  1.00  0.00     0.186 HD
BRANCH  12  19
HETATM   19  N1  UNL     1      20.175  53.345   4.451  1.00  0.00    -0.234 N 
ATOM     20  H12 UNL     1      20.487  52.976   3.553  1.00  0.00     0.174 HD
ATOM     21  H11 UNL     1      20.363  54.312   4.720  1.00  0.00     0.174 HD
ENDBRANCH  12  19
BRANCH  17  22
HETATM   22  N5  UNL     1      15.009  50.290   7.913  1.00  0.00    -0.234 N 
ATOM     23  H52 UNL     1      14.145  50.829   7.946  1.00  0.00     0.174 HD
ATOM     24  H51 UNL     1      14.896  49.353   8.301  1.00  0.00     0.174 HD
ENDBRANCH  17  22
ENDBRANCH   1   6
BRANCH   3  25
HETATM   25  N8  UNL     1      19.180  49.176  12.111  1.00  0.00    -0.213 NA
HETATM   26  C8  UNL     1      19.015  50.445  12.739  1.00  0.00     0.146 C 
HETATM   27  C9  UNL     1      20.022  50.494  13.898  1.00  0.00     0.229 C 
HETATM   28  C10 UNL     1      19.796  49.422  14.898  1.00  0.00     0.181 C 
HETATM   29  C11 UNL     1      19.446  48.088  14.303  1.00  0.00     0.195 C 
HETATM   30  C12 UNL     1      18.649  48.173  13.049  1.00  0.00     0.303 C 
BRANCH  27  31
HETATM   31  N9  UNL     1      21.343  50.374  13.316  1.00  0.00    -0.071 N 
ATOM     32  H93 UNL     1      22.060  50.126  13.998  1.00  0.00     0.274 HD
ATOM     33  H92 UNL     1      21.444  49.554  12.717  1.00  0.00     0.274 HD
ATOM     34  H91 UNL     1      21.536  51.250  12.831  1.00  0.00     0.274 HD
ENDBRANCH  27  31
BRANCH  28  35
HETATM   35  O2  UNL     1      21.004  49.241  15.610  1.00  0.00    -0.391 OA
ATOM     36  H2  UNL     1      20.782  49.111  16.524  1.00  0.00     0.210 HD
ENDBRANCH  28  35
BRANCH  29  37
HETATM   37  O3  UNL     1      18.693  47.394  15.250  1.00  0.00    -0.390 OA
ATOM     38  H3  UNL     1      19.177  46.608  15.478  1.00  0.00     0.210 HD
ENDBRANCH  29  37
BRANCH  30  39
HETATM   39  N10 UNL     1      18.628  46.860  12.427  1.00  0.00    -0.059 N 
ATOM     40 3H10 UNL     1      17.993  46.222  12.907  1.00  0.00     0.276 HD
ATOM     41 2H10 UNL     1      18.168  46.877  11.517  1.00  0.00     0.276 HD
ATOM     42 1H10 UNL     1      19.574  46.482  12.367  1.00  0.00     0.276 HD
ENDBRANCH  30  39
ENDBRANCH   3  25
TORSDOF 8
ENDMDL
