MODEL 1
REMARK VINA RESULT: -7.383310538      0.000      0.000
REMARK  6 active torsions:
REMARK  status: ('A' for Active; 'I' for Inactive)
REMARK    1  A    between atoms: C1_4  and  C2_5 
REMARK    2  A    between atoms: C2_5  and  N2_6 
REMARK    3  A    between atoms: N2_6  and  C3_8 
REMARK    4  A    between atoms: C8_13  and  C9_14 
REMARK    5  A    between atoms: C9_14  and  N3_15 
REMARK    6  A    between atoms: N3_15  and  C10_17 
ROOT
HETATM    1  C3  UNL     1      35.872  11.639  53.210  1.00  0.00     0.036 A 
HETATM    2  C4  UNL     1      34.716  10.885  53.199  1.00  0.00     0.030 A 
HETATM    3  C5  UNL     1      34.440   9.959  52.218  1.00  0.00     0.002 A 
HETATM    4  C6  UNL     1      35.343   9.772  51.207  1.00  0.00     0.001 A 
HETATM    5  C7  UNL     1      36.500  10.523  51.213  1.00  0.00     0.011 A 
HETATM    6  C8  UNL     1      36.777  11.447  52.190  1.00  0.00    -0.014 A 
ENDROOT
BRANCH   6   7
HETATM    7  C9  UNL     1      38.063  12.235  52.137  1.00  0.00     0.178 C 
BRANCH   7   8
HETATM    8  N3  UNL     1      39.107  11.475  52.798  1.00  0.00    -0.222 N 
ATOM      9  H3  UNL     1      39.158  11.465  53.817  1.00  0.00     0.178 HD
BRANCH   8  10
HETATM   10  C10 UNL     1      39.972  10.812  52.107  1.00  0.00     0.677 A 
HETATM   11  N4  UNL     1      40.027  11.049  50.801  1.00  0.00    -0.202 N 
HETATM   12  C11 UNL     1      40.897  10.405  50.007  1.00  0.00     0.107 A 
ATOM     13  H4  UNL     1      39.394  11.736  50.393  1.00  0.00     0.183 HD
HETATM   14  C12 UNL     1      41.744   9.483  50.565  1.00  0.00     0.035 A 
HETATM   15  C13 UNL     1      41.682   9.246  51.904  1.00  0.00     0.107 A 
HETATM   16  N5  UNL     1      40.797   9.914  52.659  1.00  0.00    -0.202 N 
ATOM     17  H5  UNL     1      40.752   9.736  53.662  1.00  0.00     0.183 HD
ENDBRANCH   8  10
ENDBRANCH   7   8
ENDBRANCH   6   7
BRANCH   1  18
HETATM   18  N2  UNL     1      36.170  12.590  54.218  1.00  0.00    -0.385 N 
ATOM     19  H2  UNL     1      37.136  12.904  54.308  1.00  0.00     0.160 HD
BRANCH  18  20
HETATM   20  C2  UNL     1      35.192  13.140  55.123  1.00  0.00     0.163 C 
BRANCH  20  21
HETATM   21  C1  UNL     1      34.412  14.272  54.530  1.00  0.00     0.072 C 
HETATM   22  N1  UNL     1      34.828  14.923  53.518  1.00  0.00    -0.410 N 
ATOM     23  H12 UNL     1      35.723  14.652  53.111  1.00  0.00     0.155 HD
ATOM     24  H11 UNL     1      34.296  15.694  53.114  1.00  0.00     0.155 HD
ENDBRANCH  20  21
ENDBRANCH  18  20
ENDBRANCH   1  18
TORSDOF 6
ENDMDL
MODEL 2
REMARK VINA RESULT: -7.328475844      1.202      1.394
REMARK  6 active torsions:
REMARK  status: ('A' for Active; 'I' for Inactive)
REMARK    1  A    between atoms: C1_4  and  C2_5 
REMARK    2  A    between atoms: C2_5  and  N2_6 
REMARK    3  A    between atoms: N2_6  and  C3_8 
REMARK    4  A    between atoms: C8_13  and  C9_14 
REMARK    5  A    between atoms: C9_14  and  N3_15 
REMARK    6  A    between atoms: N3_15  and  C10_17 
ROOT
HETATM    1  C3  UNL     1      35.172  12.340  52.284  1.00  0.00     0.036 A 
HETATM    2  C4  UNL     1      33.991  11.775  51.850  1.00  0.00     0.030 A 
HETATM    3  C5  UNL     1      33.870  10.436  51.552  1.00  0.00     0.002 A 
HETATM    4  C6  UNL     1      34.962   9.623  51.689  1.00  0.00     0.001 A 
HETATM    5  C7  UNL     1      36.146  10.183  52.123  1.00  0.00     0.011 A 
HETATM    6  C8  UNL     1      36.269  11.518  52.420  1.00  0.00    -0.014 A 
ENDROOT
BRANCH   6   7
HETATM    7  C9  UNL     1      37.594  12.066  52.890  1.00  0.00     0.178 C 
BRANCH   7   8
HETATM    8  N3  UNL     1      38.414  12.369  51.732  1.00  0.00    -0.222 N 
ATOM      9  H3  UNL     1      38.217  13.201  51.176  1.00  0.00     0.178 HD
BRANCH   8  10
HETATM   10  C10 UNL     1      39.391  11.593  51.401  1.00  0.00     0.677 A 
HETATM   11  N4  UNL     1      39.568  11.345  50.108  1.00  0.00    -0.202 N 
HETATM   12  C11 UNL     1      40.559  10.550  49.676  1.00  0.00     0.107 A 
ATOM     13  H4  UNL     1      38.935  11.767  49.429  1.00  0.00     0.183 HD
HETATM   14  C12 UNL     1      41.404   9.987  50.596  1.00  0.00     0.035 A 
HETATM   15  C13 UNL     1      41.217  10.245  51.918  1.00  0.00     0.107 A 
HETATM   16  N5  UNL     1      40.213  11.047  52.305  1.00  0.00    -0.202 N 
ATOM     17  H5  UNL     1      40.075  11.241  53.297  1.00  0.00     0.183 HD
ENDBRANCH   8  10
ENDBRANCH   7   8
ENDBRANCH   6   7
BRANCH   1  18
HETATM   18  N2  UNL     1      35.307  13.715  52.600  1.00  0.00    -0.385 N 
ATOM     19  H2  UNL     1      35.964  14.271  52.052  1.00  0.00     0.160 HD
BRANCH  18  20
HETATM   20  C2  UNL     1      34.572  14.377  53.650  1.00  0.00     0.163 C 
BRANCH  20  21
HETATM   21  C1  UNL     1      34.691  13.691  54.976  1.00  0.00     0.072 C 
HETATM   22  N1  UNL     1      34.078  12.605  55.232  1.00  0.00    -0.410 N 
ATOM     23  H12 UNL     1      33.491  12.202  54.500  1.00  0.00     0.155 HD
ATOM     24  H11 UNL     1      34.159  12.137  56.134  1.00  0.00     0.155 HD
ENDBRANCH  20  21
ENDBRANCH  18  20
ENDBRANCH   1  18
TORSDOF 6
ENDMDL
MODEL 3
REMARK VINA RESULT: -6.164043584      1.723      6.476
REMARK  6 active torsions:
REMARK  status: ('A' for Active; 'I' for Inactive)
REMARK    1  A    between atoms: C1_4  and  C2_5 
REMARK    2  A    between atoms: C2_5  and  N2_6 
REMARK    3  A    between atoms: N2_6  and  C3_8 
REMARK    4  A    between atoms: C8_13  and  C9_14 
REMARK    5  A    between atoms: C9_14  and  N3_15 
REMARK    6  A    between atoms: N3_15  and  C10_17 
ROOT
HETATM    1  C3  UNL     1      40.442   9.782  51.862  1.00  0.00     0.036 A 
HETATM    2  C4  UNL     1      41.135   9.485  50.707  1.00  0.00     0.030 A 
HETATM    3  C5  UNL     1      41.043  10.249  49.565  1.00  0.00     0.002 A 
HETATM    4  C6  UNL     1      40.231  11.351  49.566  1.00  0.00     0.001 A 
HETATM    5  C7  UNL     1      39.536  11.653  50.718  1.00  0.00     0.011 A 
HETATM    6  C8  UNL     1      39.626  10.892  51.858  1.00  0.00    -0.014 A 
ENDROOT
BRANCH   6   7
HETATM    7  C9  UNL     1      38.838  11.278  53.085  1.00  0.00     0.178 C 
BRANCH   7   8
HETATM    8  N3  UNL     1      37.804  12.222  52.701  1.00  0.00    -0.222 N 
ATOM      9  H3  UNL     1      38.060  13.172  52.431  1.00  0.00     0.178 HD
BRANCH   8  10
HETATM   10  C10 UNL     1      36.563  11.867  52.699  1.00  0.00     0.677 A 
HETATM   11  N4  UNL     1      35.677  12.731  53.183  1.00  0.00    -0.202 N 
HETATM   12  C11 UNL     1      34.366  12.444  53.219  1.00  0.00     0.107 A 
ATOM     13  H4  UNL     1      36.000  13.631  53.535  1.00  0.00     0.183 HD
HETATM   14  C12 UNL     1      33.941  11.232  52.743  1.00  0.00     0.035 A 
HETATM   15  C13 UNL     1      34.854  10.352  52.250  1.00  0.00     0.107 A 
HETATM   16  N5  UNL     1      36.155  10.681  52.233  1.00  0.00    -0.202 N 
ATOM     17  H5  UNL     1      36.838  10.021  51.861  1.00  0.00     0.183 HD
ENDBRANCH   8  10
ENDBRANCH   7   8
ENDBRANCH   6   7
BRANCH   1  18
HETATM   18  N2  UNL     1      40.534   9.008  53.045  1.00  0.00    -0.385 N 
ATOM     19  H2  UNL     1      40.514   9.496  53.940  1.00  0.00     0.160 HD
BRANCH  18  20
HETATM   20  C2  UNL     1      40.655   7.570  53.061  1.00  0.00     0.163 C 
BRANCH  20  21
HETATM   21  C1  UNL     1      42.071   7.100  53.187  1.00  0.00     0.072 C 
HETATM   22  N1  UNL     1      42.537   6.641  54.280  1.00  0.00    -0.410 N 
ATOM     23  H12 UNL     1      41.912   6.600  55.086  1.00  0.00     0.155 HD
ATOM     24  H11 UNL     1      43.501   6.321  54.365  1.00  0.00     0.155 HD
ENDBRANCH  20  21
ENDBRANCH  18  20
ENDBRANCH   1  18
TORSDOF 6
ENDMDL
MODEL 4
REMARK VINA RESULT: -6.156586611      1.721      6.488
REMARK  6 active torsions:
REMARK  status: ('A' for Active; 'I' for Inactive)
REMARK    1  A    between atoms: C1_4  and  C2_5 
REMARK    2  A    between atoms: C2_5  and  N2_6 
REMARK    3  A    between atoms: N2_6  and  C3_8 
REMARK    4  A    between atoms: C8_13  and  C9_14 
REMARK    5  A    between atoms: C9_14  and  N3_15 
REMARK    6  A    between atoms: N3_15  and  C10_17 
ROOT
HETATM    1  C3  UNL     1      40.411   9.764  51.859  1.00  0.00     0.036 A 
HETATM    2  C4  UNL     1      41.116   9.456  50.714  1.00  0.00     0.030 A 
HETATM    3  C5  UNL     1      41.047  10.218  49.568  1.00  0.00     0.002 A 
HETATM    4  C6  UNL     1      40.247  11.328  49.555  1.00  0.00     0.001 A 
HETATM    5  C7  UNL     1      39.540  11.641  50.697  1.00  0.00     0.011 A 
HETATM    6  C8  UNL     1      39.607  10.883  51.840  1.00  0.00    -0.014 A 
ENDROOT
BRANCH   6   7
HETATM    7  C9  UNL     1      38.806  11.282  53.055  1.00  0.00     0.178 C 
BRANCH   7   8
HETATM    8  N3  UNL     1      37.798  12.246  52.657  1.00  0.00    -0.222 N 
ATOM      9  H3  UNL     1      38.081  13.176  52.346  1.00  0.00     0.178 HD
BRANCH   8  10
HETATM   10  C10 UNL     1      36.545  11.937  52.695  1.00  0.00     0.677 A 
HETATM   11  N4  UNL     1      36.197  10.730  52.262  1.00  0.00    -0.202 N 
HETATM   12  C11 UNL     1      34.917  10.327  52.266  1.00  0.00     0.107 A 
ATOM     13  H4  UNL     1      36.918  10.097  51.919  1.00  0.00     0.183 HD
HETATM   14  C12 UNL     1      33.954  11.185  52.729  1.00  0.00     0.035 A 
HETATM   15  C13 UNL     1      34.318  12.420  53.170  1.00  0.00     0.107 A 
HETATM   16  N5  UNL     1      35.610  12.781  53.148  1.00  0.00    -0.202 N 
ATOM     17  H5  UNL     1      35.882  13.706  53.481  1.00  0.00     0.183 HD
ENDBRANCH   8  10
ENDBRANCH   7   8
ENDBRANCH   6   7
BRANCH   1  18
HETATM   18  N2  UNL     1      40.479   8.993  53.045  1.00  0.00    -0.385 N 
ATOM     19  H2  UNL     1      40.408   9.480  53.938  1.00  0.00     0.160 HD
BRANCH  18  20
HETATM   20  C2  UNL     1      40.642   7.560  53.068  1.00  0.00     0.163 C 
BRANCH  20  21
HETATM   21  C1  UNL     1      42.072   7.132  53.189  1.00  0.00     0.072 C 
HETATM   22  N1  UNL     1      42.540   6.635  54.263  1.00  0.00    -0.410 N 
ATOM     23  H12 UNL     1      41.908   6.532  55.058  1.00  0.00     0.155 HD
ATOM     24  H11 UNL     1      43.514   6.344  54.345  1.00  0.00     0.155 HD
ENDBRANCH  20  21
ENDBRANCH  18  20
ENDBRANCH   1  18
TORSDOF 6
ENDMDL
MODEL 5
REMARK VINA RESULT: -5.902377907      2.510      7.441
REMARK  6 active torsions:
REMARK  status: ('A' for Active; 'I' for Inactive)
REMARK    1  A    between atoms: C1_4  and  C2_5 
REMARK    2  A    between atoms: C2_5  and  N2_6 
REMARK    3  A    between atoms: N2_6  and  C3_8 
REMARK    4  A    between atoms: C8_13  and  C9_14 
REMARK    5  A    between atoms: C9_14  and  N3_15 
REMARK    6  A    between atoms: N3_15  and  C10_17 
ROOT
HETATM    1  C3  UNL     1      41.759   8.407  50.653  1.00  0.00     0.036 A 
HETATM    2  C4  UNL     1      43.022   8.139  51.140  1.00  0.00     0.030 A 
HETATM    3  C5  UNL     1      43.858   9.120  51.625  1.00  0.00     0.002 A 
HETATM    4  C6  UNL     1      43.427  10.419  51.629  1.00  0.00     0.001 A 
HETATM    5  C7  UNL     1      42.165  10.693  51.143  1.00  0.00     0.011 A 
HETATM    6  C8  UNL     1      41.330   9.717  50.659  1.00  0.00    -0.014 A 
ENDROOT
BRANCH   6   7
HETATM    7  C9  UNL     1      39.961  10.085  50.142  1.00  0.00     0.178 C 
BRANCH   7   8
HETATM    8  N3  UNL     1      39.494  11.262  50.850  1.00  0.00    -0.222 N 
ATOM      9  H3  UNL     1      40.087  12.090  50.905  1.00  0.00     0.178 HD
BRANCH   8  10
HETATM   10  C10 UNL     1      38.331  11.269  51.412  1.00  0.00     0.677 A 
HETATM   11  N4  UNL     1      38.185  12.000  52.512  1.00  0.00    -0.202 N 
HETATM   12  C11 UNL     1      37.011  12.064  53.160  1.00  0.00     0.107 A 
ATOM     13  H4  UNL     1      38.983  12.523  52.872  1.00  0.00     0.183 HD
HETATM   14  C12 UNL     1      35.945  11.358  52.668  1.00  0.00     0.035 A 
HETATM   15  C13 UNL     1      36.102  10.612  51.542  1.00  0.00     0.107 A 
HETATM   16  N5  UNL     1      37.294  10.577  50.926  1.00  0.00    -0.202 N 
ATOM     17  H5  UNL     1      37.410  10.018  50.081  1.00  0.00     0.183 HD
ENDBRANCH   8  10
ENDBRANCH   7   8
ENDBRANCH   6   7
BRANCH   1  18
HETATM   18  N2  UNL     1      40.888   7.406  50.157  1.00  0.00    -0.385 N 
ATOM     19  H2  UNL     1      40.173   7.683  49.485  1.00  0.00     0.160 HD
BRANCH  18  20
HETATM   20  C2  UNL     1      40.950   6.018  50.546  1.00  0.00     0.163 C 
BRANCH  20  21
HETATM   21  C1  UNL     1      42.133   5.300  49.976  1.00  0.00     0.072 C 
HETATM   22  N1  UNL     1      42.311   5.179  48.721  1.00  0.00    -0.410 N 
ATOM     23  H12 UNL     1      41.615   5.590  48.098  1.00  0.00     0.155 HD
ATOM     24  H11 UNL     1      43.117   4.689  48.333  1.00  0.00     0.155 HD
ENDBRANCH  20  21
ENDBRANCH  18  20
ENDBRANCH   1  18
TORSDOF 6
ENDMDL
