MODEL 1
REMARK VINA RESULT: -5.266699768      0.000      0.000
REMARK  3 active torsions:
REMARK  status: ('A' for Active; 'I' for Inactive)
REMARK    1  A    between atoms: C2_2  and  O1_5 
REMARK    2  A    between atoms: O1_5  and  C5_6 
REMARK    3  A    between atoms: C5_6  and  C6_7 
ROOT
HETATM    1  C6  UNL     1       2.567  17.131 -19.712  1.00  0.00     0.133 C 
HETATM    2  C7  UNL     1       2.872  17.178 -21.194  1.00  0.00     0.206 C 
HETATM    3  O2  UNL     1       1.608  17.322 -21.830  1.00  0.00    -0.320 OA
HETATM    4  C8  UNL     1       0.583  17.208 -20.900  1.00  0.00     0.213 C 
HETATM    5  N1  UNL     1      -0.681  17.517 -21.060  1.00  0.00    -0.365 N 
ATOM      6  H11 UNL     1      -1.434  17.434 -20.377  1.00  0.00     0.159 HD
ATOM      7  H12 UNL     1      -1.115  17.895 -21.902  1.00  0.00     0.159 HD
HETATM    8  N2  UNL     1       1.187  16.681 -19.724  1.00  0.00    -0.348 N 
ATOM      9  H2  UNL     1       0.735  16.095 -19.022  1.00  0.00     0.163 HD
ENDROOT
BRANCH   1  10
HETATM   10  C5  UNL     1       2.578  18.567 -19.174  1.00  0.00     0.196 C 
BRANCH  10  11
HETATM   11  O1  UNL     1       3.169  19.352 -20.119  1.00  0.00    -0.379 OA
BRANCH  11  12
HETATM   12  C2  UNL     1       2.622  20.572 -20.340  1.00  0.00     0.050 C 
HETATM   13  C1  UNL     1       1.428  20.576 -21.261  1.00  0.00     0.045 C 
HETATM   14  C3  UNL     1       3.642  21.537 -20.926  1.00  0.00     0.045 C 
HETATM   15  C4  UNL     1       2.166  21.142 -19.003  1.00  0.00     0.045 C 
ENDBRANCH  11  12
ENDBRANCH  10  11
ENDBRANCH   1  10
TORSDOF 3
ENDMDL
MODEL 2
REMARK VINA RESULT: -5.208250249      0.050      1.220
REMARK  3 active torsions:
REMARK  status: ('A' for Active; 'I' for Inactive)
REMARK    1  A    between atoms: C2_2  and  O1_5 
REMARK    2  A    between atoms: O1_5  and  C5_6 
REMARK    3  A    between atoms: C5_6  and  C6_7 
ROOT
HETATM    1  C6  UNL     1       2.592  17.137 -19.713  1.00  0.00     0.133 C 
HETATM    2  C7  UNL     1       2.890  17.169 -21.197  1.00  0.00     0.206 C 
HETATM    3  O2  UNL     1       1.623  17.297 -21.829  1.00  0.00    -0.320 OA
HETATM    4  C8  UNL     1       0.602  17.187 -20.894  1.00  0.00     0.213 C 
HETATM    5  N1  UNL     1      -0.664  17.485 -21.052  1.00  0.00    -0.365 N 
ATOM      6  H11 UNL     1      -1.414  17.405 -20.365  1.00  0.00     0.159 HD
ATOM      7  H12 UNL     1      -1.104  17.851 -21.897  1.00  0.00     0.159 HD
HETATM    8  N2  UNL     1       1.215  16.677 -19.715  1.00  0.00    -0.348 N 
ATOM      9  H2  UNL     1       0.770  16.096 -19.004  1.00  0.00     0.163 HD
ENDROOT
BRANCH   1  10
HETATM   10  C5  UNL     1       2.595  18.579 -19.192  1.00  0.00     0.196 C 
BRANCH  10  11
HETATM   11  O1  UNL     1       3.163  19.359 -20.154  1.00  0.00    -0.379 OA
BRANCH  11  12
HETATM   12  C2  UNL     1       2.678  20.616 -20.298  1.00  0.00     0.050 C 
HETATM   13  C1  UNL     1       3.647  21.606 -20.895  1.00  0.00     0.045 C 
HETATM   14  C3  UNL     1       2.220  21.189 -18.964  1.00  0.00     0.045 C 
HETATM   15  C4  UNL     1       1.464  20.559 -21.215  1.00  0.00     0.045 C 
ENDBRANCH  11  12
ENDBRANCH  10  11
ENDBRANCH   1  10
TORSDOF 3
ENDMDL
MODEL 3
REMARK VINA RESULT: -5.028575476      0.280      1.315
REMARK  3 active torsions:
REMARK  status: ('A' for Active; 'I' for Inactive)
REMARK    1  A    between atoms: C2_2  and  O1_5 
REMARK    2  A    between atoms: O1_5  and  C5_6 
REMARK    3  A    between atoms: C5_6  and  C6_7 
ROOT
HETATM    1  C6  UNL     1       2.589  17.194 -19.725  1.00  0.00     0.133 C 
HETATM    2  C7  UNL     1       2.881  17.136 -21.210  1.00  0.00     0.206 C 
HETATM    3  O2  UNL     1       1.613  17.243 -21.844  1.00  0.00    -0.320 OA
HETATM    4  C8  UNL     1       0.595  17.201 -20.900  1.00  0.00     0.213 C 
HETATM    5  N1  UNL     1      -0.668  17.507 -21.070  1.00  0.00    -0.365 N 
ATOM      6  H11 UNL     1      -1.416  17.476 -20.377  1.00  0.00     0.159 HD
ATOM      7  H12 UNL     1      -1.107  17.828 -21.933  1.00  0.00     0.159 HD
HETATM    8  N2  UNL     1       1.207  16.753 -19.695  1.00  0.00    -0.348 N 
ATOM      9  H2  UNL     1       0.757  16.220 -18.950  1.00  0.00     0.163 HD
ENDROOT
BRANCH   1  10
HETATM   10  C5  UNL     1       2.613  18.664 -19.289  1.00  0.00     0.196 C 
BRANCH  10  11
HETATM   11  O1  UNL     1       3.248  19.369 -20.267  1.00  0.00    -0.379 OA
BRANCH  11  12
HETATM   12  C2  UNL     1       2.787  20.616 -20.530  1.00  0.00     0.050 C 
HETATM   13  C1  UNL     1       2.625  21.502 -19.320  1.00  0.00     0.045 C 
HETATM   14  C3  UNL     1       1.438  20.570 -21.234  1.00  0.00     0.045 C 
HETATM   15  C4  UNL     1       3.771  21.303 -21.467  1.00  0.00     0.045 C 
ENDBRANCH  11  12
ENDBRANCH  10  11
ENDBRANCH   1  10
TORSDOF 3
ENDMDL
MODEL 4
REMARK VINA RESULT: -4.694748392      2.259      4.319
REMARK  3 active torsions:
REMARK  status: ('A' for Active; 'I' for Inactive)
REMARK    1  A    between atoms: C2_2  and  O1_5 
REMARK    2  A    between atoms: O1_5  and  C5_6 
REMARK    3  A    between atoms: C5_6  and  C6_7 
ROOT
HETATM    1  C6  UNL     1       1.839  20.783 -21.674  1.00  0.00     0.133 C 
HETATM    2  C7  UNL     1       3.141  21.497 -21.974  1.00  0.00     0.206 C 
HETATM    3  O2  UNL     1       3.780  21.651 -20.714  1.00  0.00    -0.320 OA
HETATM    4  C8  UNL     1       2.933  21.250 -19.689  1.00  0.00     0.213 C 
HETATM    5  N1  UNL     1       3.243  21.023 -18.436  1.00  0.00    -0.365 N 
ATOM      6  H11 UNL     1       2.620  20.728 -17.683  1.00  0.00     0.159 HD
ATOM      7  H12 UNL     1       4.166  21.105 -18.012  1.00  0.00     0.159 HD
HETATM    8  N2  UNL     1       1.642  21.135 -20.280  1.00  0.00    -0.348 N 
ATOM      9  H2  UNL     1       0.747  21.274 -19.811  1.00  0.00     0.163 HD
ENDROOT
BRANCH   1  10
HETATM   10  C5  UNL     1       2.094  19.272 -21.737  1.00  0.00     0.196 C 
BRANCH  10  11
HETATM   11  O1  UNL     1       1.344  18.691 -20.759  1.00  0.00    -0.379 OA
BRANCH  11  12
HETATM   12  C2  UNL     1       1.778  17.505 -20.268  1.00  0.00     0.050 C 
HETATM   13  C1  UNL     1       0.716  16.442 -20.143  1.00  0.00     0.045 C 
HETATM   14  C3  UNL     1       2.406  17.672 -18.892  1.00  0.00     0.045 C 
HETATM   15  C4  UNL     1       2.854  16.965 -21.201  1.00  0.00     0.045 C 
ENDBRANCH  11  12
ENDBRANCH  10  11
ENDBRANCH   1  10
TORSDOF 3
ENDMDL
MODEL 5
REMARK VINA RESULT: -4.683909095      2.246      4.308
REMARK  3 active torsions:
REMARK  status: ('A' for Active; 'I' for Inactive)
REMARK    1  A    between atoms: C2_2  and  O1_5 
REMARK    2  A    between atoms: O1_5  and  C5_6 
REMARK    3  A    between atoms: C5_6  and  C6_7 
ROOT
HETATM    1  C6  UNL     1       1.877  20.799 -21.714  1.00  0.00     0.133 C 
HETATM    2  C7  UNL     1       3.194  21.500 -21.975  1.00  0.00     0.206 C 
HETATM    3  O2  UNL     1       3.802  21.638 -20.697  1.00  0.00    -0.320 OA
HETATM    4  C8  UNL     1       2.923  21.239 -19.698  1.00  0.00     0.213 C 
HETATM    5  N1  UNL     1       3.198  20.999 -18.438  1.00  0.00    -0.365 N 
ATOM      6  H11 UNL     1       2.553  20.706 -17.704  1.00  0.00     0.159 HD
ATOM      7  H12 UNL     1       4.111  21.068 -17.990  1.00  0.00     0.159 HD
HETATM    8  N2  UNL     1       1.648  21.142 -20.323  1.00  0.00    -0.348 N 
ATOM      9  H2  UNL     1       0.742  21.288 -19.876  1.00  0.00     0.163 HD
ENDROOT
BRANCH   1  10
HETATM   10  C5  UNL     1       2.118  19.286 -21.782  1.00  0.00     0.196 C 
BRANCH  10  11
HETATM   11  O1  UNL     1       1.394  18.713 -20.779  1.00  0.00    -0.379 OA
BRANCH  11  12
HETATM   12  C2  UNL     1       1.855  17.543 -20.273  1.00  0.00     0.050 C 
HETATM   13  C1  UNL     1       2.411  17.633 -18.873  1.00  0.00     0.045 C 
HETATM   14  C3  UNL     1       2.949  16.953 -21.151  1.00  0.00     0.045 C 
HETATM   15  C4  UNL     1       0.703  16.547 -20.241  1.00  0.00     0.045 C 
ENDBRANCH  11  12
ENDBRANCH  10  11
ENDBRANCH   1  10
TORSDOF 3
ENDMDL
