MODEL 1
REMARK VINA RESULT: -7.337379758      0.000      0.000
REMARK  8 active torsions:
REMARK  status: ('A' for Active; 'I' for Inactive)
REMARK    1  A    between atoms: C2_2  and  N1_3 
REMARK    2  A    between atoms: C2_2  and  C3_7 
REMARK       I    between atoms: C3_7  and  N2_9 
REMARK    3  A    between atoms: N2_9  and  C4_11 
REMARK    4  A    between atoms: C8_21  and  O3_22 
REMARK    5  A    between atoms: C9_24  and  O4_25 
REMARK    6  A    between atoms: C10_27  and  N6_28 
REMARK    7  A    between atoms: C10_27  and  C11_32 
REMARK    8  A    between atoms: C13_36  and  N8_37 
ROOT
HETATM    1  C4  UNL     1      -3.664 -32.891  45.040  1.00  0.00     0.153 C 
HETATM    2  C5  UNL     1      -2.454 -32.662  44.142  1.00  0.00     0.092 C 
HETATM    3  N3  UNL     1      -1.630 -33.784  43.977  1.00  0.00    -0.325 N 
HETATM    4  C6  UNL     1      -0.372 -33.695  44.669  1.00  0.00     0.255 C 
HETATM    5  N4  UNL     1       0.629 -32.994  43.885  1.00  0.00    -0.327 N 
ATOM      6  H4  UNL     1       1.305 -32.351  44.296  1.00  0.00     0.165 HD
HETATM    7  C7  UNL     1       0.581 -33.285  42.494  1.00  0.00     0.321 C 
HETATM    8  O2  UNL     1       1.316 -32.685  41.658  1.00  0.00    -0.247 OA
HETATM    9  N5  UNL     1      -0.340 -34.287  42.109  1.00  0.00    -0.291 N 
ATOM     10  H5  UNL     1      -0.094 -34.893  41.327  1.00  0.00     0.169 HD
HETATM   11  C8  UNL     1      -1.619 -34.500  42.767  1.00  0.00     0.250 C 
HETATM   12  C9  UNL     1      -2.662 -34.174  41.761  1.00  0.00     0.241 C 
HETATM   13  C10 UNL     1      -4.062 -34.492  42.025  1.00  0.00     0.234 C 
HETATM   14  C12 UNL     1      -4.522 -34.623  43.432  1.00  0.00     0.086 C 
HETATM   15  C13 UNL     1      -4.776 -33.326  44.138  1.00  0.00     0.214 C 
ENDROOT
BRANCH   1  16
HETATM   16  N2  UNL     1      -3.337 -33.811  46.075  1.00  0.00    -0.348 N 
HETATM   17  C3  UNL     1      -2.984 -33.449  47.397  1.00  0.00     0.248 C 
HETATM   18  O1  UNL     1      -2.952 -32.231  47.687  1.00  0.00    -0.271 OA
ATOM     19  H2  UNL     1      -3.360 -34.805  45.847  1.00  0.00     0.163 HD
BRANCH  17  20
HETATM   20  C2  UNL     1      -2.646 -34.414  48.463  1.00  0.00     0.270 C 
HETATM   21  C1  UNL     1      -1.187 -34.249  48.906  1.00  0.00     0.050 C 
BRANCH  20  22
HETATM   22  N1  UNL     1      -3.443 -34.172  49.651  1.00  0.00    -0.067 N 
ATOM     23  H13 UNL     1      -3.172 -34.745  50.450  1.00  0.00     0.275 HD
ATOM     24  H12 UNL     1      -3.266 -33.267  50.086  1.00  0.00     0.275 HD
ATOM     25  H11 UNL     1      -4.412 -34.305  49.361  1.00  0.00     0.275 HD
ENDBRANCH  20  22
ENDBRANCH  17  20
ENDBRANCH   1  16
BRANCH  15  26
HETATM   26  N8  UNL     1      -6.044 -33.346  44.887  1.00  0.00    -0.073 N 
ATOM     27  H83 UNL     1      -6.100 -34.140  45.526  1.00  0.00     0.274 HD
ATOM     28  H82 UNL     1      -6.094 -32.597  45.577  1.00  0.00     0.274 HD
ATOM     29  H81 UNL     1      -6.828 -33.322  44.235  1.00  0.00     0.274 HD
ENDBRANCH  15  26
BRANCH  11  30
HETATM   30  O3  UNL     1      -1.604 -35.868  43.109  1.00  0.00    -0.351 OA
ATOM     31  H3  UNL     1      -2.409 -36.038  43.583  1.00  0.00     0.214 HD
ENDBRANCH  11  30
BRANCH  13  32
HETATM   32  N6  UNL     1      -4.873 -33.410  41.428  1.00  0.00    -0.059 N 
ATOM     33  H63 UNL     1      -4.404 -32.939  40.654  1.00  0.00     0.275 HD
ATOM     34  H62 UNL     1      -5.676 -33.756  40.902  1.00  0.00     0.275 HD
ATOM     35  H61 UNL     1      -5.132 -32.778  42.185  1.00  0.00     0.275 HD
ENDBRANCH  13  32
BRANCH  13  36
HETATM   36  C11 UNL     1      -4.495 -35.745  41.320  1.00  0.00     0.270 C 
HETATM   37  N7  UNL     1      -4.008 -37.035  41.682  1.00  0.00    -0.060 NA
HETATM   38  O5  UNL     1      -5.316 -35.735  40.363  1.00  0.00    -0.274 OA
ENDBRANCH  13  36
BRANCH  12  39
HETATM   39  O4  UNL     1      -2.310 -34.872  40.571  1.00  0.00    -0.386 OA
ATOM     40  H4  UNL     1      -3.092 -34.901  40.034  1.00  0.00     0.210 HD
ENDBRANCH  12  39
TORSDOF 8
ENDMDL
MODEL 2
REMARK VINA RESULT: -5.925695229      2.312      5.369
REMARK  8 active torsions:
REMARK  status: ('A' for Active; 'I' for Inactive)
REMARK    1  A    between atoms: C2_2  and  N1_3 
REMARK    2  A    between atoms: C2_2  and  C3_7 
REMARK       I    between atoms: C3_7  and  N2_9 
REMARK    3  A    between atoms: N2_9  and  C4_11 
REMARK    4  A    between atoms: C8_21  and  O3_22 
REMARK    5  A    between atoms: C9_24  and  O4_25 
REMARK    6  A    between atoms: C10_27  and  N6_28 
REMARK    7  A    between atoms: C10_27  and  C11_32 
REMARK    8  A    between atoms: C13_36  and  N8_37 
ROOT
HETATM    1  C4  UNL     1      -4.393 -33.869  44.202  1.00  0.00     0.153 C 
HETATM    2  C5  UNL     1      -3.495 -34.894  43.520  1.00  0.00     0.092 C 
HETATM    3  N3  UNL     1      -2.581 -34.352  42.605  1.00  0.00    -0.325 N 
HETATM    4  C6  UNL     1      -2.903 -34.617  41.228  1.00  0.00     0.255 C 
HETATM    5  N4  UNL     1      -2.394 -35.905  40.791  1.00  0.00    -0.327 N 
ATOM      6  H4  UNL     1      -2.910 -36.522  40.165  1.00  0.00     0.165 HD
HETATM    7  C7  UNL     1      -1.112 -36.227  41.315  1.00  0.00     0.321 C 
HETATM    8  O2  UNL     1      -0.568 -37.351  41.114  1.00  0.00    -0.247 OA
HETATM    9  N5  UNL     1      -0.487 -35.209  42.073  1.00  0.00    -0.291 N 
ATOM     10  H5  UNL     1       0.529 -35.130  42.028  1.00  0.00     0.169 HD
HETATM   11  C8  UNL     1      -1.212 -34.270  42.914  1.00  0.00     0.250 C 
HETATM   12  C9  UNL     1      -0.800 -34.561  44.310  1.00  0.00     0.241 C 
HETATM   13  C10 UNL     1      -1.175 -33.653  45.390  1.00  0.00     0.234 C 
HETATM   14  C12 UNL     1      -2.369 -32.783  45.223  1.00  0.00     0.086 C 
HETATM   15  C13 UNL     1      -3.684 -33.462  45.455  1.00  0.00     0.214 C 
ENDROOT
BRANCH   1  16
HETATM   16  N2  UNL     1      -4.685 -32.803  43.306  1.00  0.00    -0.348 N 
HETATM   17  C3  UNL     1      -5.872 -32.692  42.542  1.00  0.00     0.248 C 
HETATM   18  O1  UNL     1      -6.734 -33.593  42.655  1.00  0.00    -0.271 OA
ATOM     19  H2  UNL     1      -3.989 -32.065  43.207  1.00  0.00     0.163 HD
BRANCH  17  20
HETATM   20  C2  UNL     1      -6.164 -31.580  41.614  1.00  0.00     0.270 C 
HETATM   21  C1  UNL     1      -6.086 -32.050  40.157  1.00  0.00     0.050 C 
BRANCH  20  22
HETATM   22  N1  UNL     1      -7.520 -31.098  41.795  1.00  0.00    -0.067 N 
ATOM     23  H13 UNL     1      -8.213 -31.843  41.871  1.00  0.00     0.275 HD
ATOM     24  H12 UNL     1      -7.689 -30.682  42.711  1.00  0.00     0.275 HD
ATOM     25  H11 UNL     1      -7.689 -30.460  41.017  1.00  0.00     0.275 HD
ENDBRANCH  20  22
ENDBRANCH  17  20
ENDBRANCH   1  16
BRANCH  15  26
HETATM   26  N8  UNL     1      -4.582 -32.648  46.292  1.00  0.00    -0.073 N 
ATOM     27  H83 UNL     1      -4.827 -31.764  45.846  1.00  0.00     0.274 HD
ATOM     28  H82 UNL     1      -5.519 -33.048  46.351  1.00  0.00     0.274 HD
ATOM     29  H81 UNL     1      -4.165 -32.511  47.213  1.00  0.00     0.274 HD
ENDBRANCH  15  26
BRANCH  11  30
HETATM   30  O3  UNL     1      -0.775 -33.005  42.470  1.00  0.00    -0.351 OA
ATOM     31  H3  UNL     1      -0.639 -32.477  43.248  1.00  0.00     0.214 HD
ENDBRANCH  11  30
BRANCH  13  32
HETATM   32  N6  UNL     1      -1.439 -34.485  46.584  1.00  0.00    -0.059 N 
ATOM     33  H63 UNL     1      -0.664 -34.491  47.247  1.00  0.00     0.275 HD
ATOM     34  H62 UNL     1      -2.139 -34.082  47.206  1.00  0.00     0.275 HD
ATOM     35  H61 UNL     1      -1.688 -35.417  46.251  1.00  0.00     0.275 HD
ENDBRANCH  13  32
BRANCH  13  36
HETATM   36  C11 UNL     1      -0.043 -32.748  45.783  1.00  0.00     0.270 C 
HETATM   37  N7  UNL     1       0.557 -32.789  47.075  1.00  0.00    -0.060 NA
HETATM   38  O5  UNL     1       0.447 -31.895  44.994  1.00  0.00    -0.274 OA
ENDBRANCH  13  36
BRANCH  12  39
HETATM   39  O4  UNL     1       0.623 -34.616  44.310  1.00  0.00    -0.386 OA
ATOM     40  H4  UNL     1       0.916 -34.004  43.645  1.00  0.00     0.210 HD
ENDBRANCH  12  39
TORSDOF 8
ENDMDL
MODEL 3
REMARK VINA RESULT: -4.513071487      2.397      5.128
REMARK  8 active torsions:
REMARK  status: ('A' for Active; 'I' for Inactive)
REMARK    1  A    between atoms: C2_2  and  N1_3 
REMARK    2  A    between atoms: C2_2  and  C3_7 
REMARK       I    between atoms: C3_7  and  N2_9 
REMARK    3  A    between atoms: N2_9  and  C4_11 
REMARK    4  A    between atoms: C8_21  and  O3_22 
REMARK    5  A    between atoms: C9_24  and  O4_25 
REMARK    6  A    between atoms: C10_27  and  N6_28 
REMARK    7  A    between atoms: C10_27  and  C11_32 
REMARK    8  A    between atoms: C13_36  and  N8_37 
ROOT
HETATM    1  C4  UNL     1      -2.170 -35.427  42.523  1.00  0.00     0.153 C 
HETATM    2  C5  UNL     1      -3.214 -35.169  43.602  1.00  0.00     0.092 C 
HETATM    3  N3  UNL     1      -3.778 -33.886  43.575  1.00  0.00    -0.325 N 
HETATM    4  C6  UNL     1      -3.342 -33.031  44.646  1.00  0.00     0.255 C 
HETATM    5  N4  UNL     1      -4.133 -33.222  45.848  1.00  0.00    -0.327 N 
ATOM      6  H4  UNL     1      -3.732 -33.207  46.786  1.00  0.00     0.165 HD
HETATM    7  C7  UNL     1      -5.518 -33.432  45.601  1.00  0.00     0.321 C 
HETATM    8  O2  UNL     1      -6.330 -33.713  46.529  1.00  0.00    -0.247 OA
HETATM    9  N5  UNL     1      -5.925 -33.306  44.252  1.00  0.00    -0.291 N 
ATOM     10  H5  UNL     1      -6.853 -32.929  44.062  1.00  0.00     0.169 HD
HETATM   11  C8  UNL     1      -5.094 -33.685  43.121  1.00  0.00     0.250 C 
HETATM   12  C9  UNL     1      -5.781 -34.826  42.465  1.00  0.00     0.241 C 
HETATM   13  C10 UNL     1      -5.325 -35.308  41.165  1.00  0.00     0.234 C 
HETATM   14  C12 UNL     1      -3.918 -35.062  40.753  1.00  0.00     0.086 C 
HETATM   15  C13 UNL     1      -2.911 -35.995  41.354  1.00  0.00     0.214 C 
ENDROOT
BRANCH   1  16
HETATM   16  N2  UNL     1      -1.445 -34.234  42.251  1.00  0.00    -0.348 N 
HETATM   17  C3  UNL     1      -0.217 -33.877  42.858  1.00  0.00     0.248 C 
HETATM   18  O1  UNL     1       0.276 -34.664  43.699  1.00  0.00    -0.271 OA
ATOM     19  H2  UNL     1      -1.839 -33.587  41.567  1.00  0.00     0.163 HD
BRANCH  17  20
HETATM   20  C2  UNL     1       0.527 -32.635  42.567  1.00  0.00     0.270 C 
HETATM   21  C1  UNL     1       1.717 -32.475  43.521  1.00  0.00     0.050 C 
BRANCH  20  22
HETATM   22  N1  UNL     1       1.099 -32.674  41.235  1.00  0.00    -0.067 N 
ATOM     23  H13 UNL     1       1.740 -33.454  41.087  1.00  0.00     0.275 HD
ATOM     24  H12 UNL     1       0.430 -32.929  40.508  1.00  0.00     0.275 HD
ATOM     25  H11 UNL     1       1.528 -31.759  41.094  1.00  0.00     0.275 HD
ENDBRANCH  20  22
ENDBRANCH  17  20
ENDBRANCH   1  16
BRANCH  15  26
HETATM   26  N8  UNL     1      -1.952 -36.488  40.350  1.00  0.00    -0.073 N 
ATOM     27  H83 UNL     1      -2.094 -37.476  40.137  1.00  0.00     0.274 HD
ATOM     28  H82 UNL     1      -2.139 -36.109  39.422  1.00  0.00     0.274 HD
ATOM     29  H81 UNL     1      -1.000 -36.295  40.660  1.00  0.00     0.274 HD
ENDBRANCH  15  26
BRANCH  11  30
HETATM   30  O3  UNL     1      -5.067 -32.529  42.313  1.00  0.00    -0.351 OA
ATOM     31  H3  UNL     1      -5.839 -32.567  41.761  1.00  0.00     0.214 HD
ENDBRANCH  11  30
BRANCH  13  32
HETATM   32  N6  UNL     1      -5.502 -36.776  41.160  1.00  0.00    -0.059 N 
ATOM     33  H63 UNL     1      -5.919 -37.132  42.021  1.00  0.00     0.275 HD
ATOM     34  H62 UNL     1      -6.233 -37.089  40.522  1.00  0.00     0.275 HD
ATOM     35  H61 UNL     1      -4.591 -37.187  40.957  1.00  0.00     0.275 HD
ENDBRANCH  13  32
BRANCH  13  36
HETATM   36  C11 UNL     1      -6.188 -34.803  40.044  1.00  0.00     0.270 C 
HETATM   37  N7  UNL     1      -6.129 -33.457  39.580  1.00  0.00    -0.060 NA
HETATM   38  O5  UNL     1      -7.019 -35.539  39.446  1.00  0.00    -0.274 OA
ENDBRANCH  13  36
BRANCH  12  39
HETATM   39  O4  UNL     1      -7.139 -34.437  42.294  1.00  0.00    -0.386 OA
ATOM     40  H4  UNL     1      -7.135 -33.696  41.699  1.00  0.00     0.210 HD
ENDBRANCH  12  39
TORSDOF 8
ENDMDL
MODEL 4
REMARK VINA RESULT: -4.376595678      2.327      4.979
REMARK  8 active torsions:
REMARK  status: ('A' for Active; 'I' for Inactive)
REMARK    1  A    between atoms: C2_2  and  N1_3 
REMARK    2  A    between atoms: C2_2  and  C3_7 
REMARK       I    between atoms: C3_7  and  N2_9 
REMARK    3  A    between atoms: N2_9  and  C4_11 
REMARK    4  A    between atoms: C8_21  and  O3_22 
REMARK    5  A    between atoms: C9_24  and  O4_25 
REMARK    6  A    between atoms: C10_27  and  N6_28 
REMARK    7  A    between atoms: C10_27  and  C11_32 
REMARK    8  A    between atoms: C13_36  and  N8_37 
ROOT
HETATM    1  C4  UNL     1      -2.261 -35.476  42.500  1.00  0.00     0.153 C 
HETATM    2  C5  UNL     1      -3.343 -35.222  43.542  1.00  0.00     0.092 C 
HETATM    3  N3  UNL     1      -3.630 -33.869  43.768  1.00  0.00    -0.325 N 
HETATM    4  C6  UNL     1      -3.150 -33.371  45.030  1.00  0.00     0.255 C 
HETATM    5  N4  UNL     1      -4.090 -33.626  46.106  1.00  0.00    -0.327 N 
ATOM      6  H4  UNL     1      -3.799 -33.893  47.046  1.00  0.00     0.165 HD
HETATM    7  C7  UNL     1      -5.453 -33.469  45.731  1.00  0.00     0.321 C 
HETATM    8  O2  UNL     1      -6.402 -33.749  46.519  1.00  0.00    -0.247 OA
HETATM    9  N5  UNL     1      -5.676 -32.981  44.422  1.00  0.00    -0.291 N 
ATOM     10  H5  UNL     1      -6.483 -32.377  44.264  1.00  0.00     0.169 HD
HETATM   11  C8  UNL     1      -4.819 -33.292  43.289  1.00  0.00     0.250 C 
HETATM   12  C9  UNL     1      -5.647 -34.093  42.352  1.00  0.00     0.241 C 
HETATM   13  C10 UNL     1      -5.158 -34.385  41.008  1.00  0.00     0.234 C 
HETATM   14  C12 UNL     1      -3.694 -34.377  40.752  1.00  0.00     0.086 C 
HETATM   15  C13 UNL     1      -2.968 -35.613  41.189  1.00  0.00     0.214 C 
ENDROOT
BRANCH   1  16
HETATM   16  N2  UNL     1      -1.284 -34.443  42.549  1.00  0.00    -0.348 N 
HETATM   17  C3  UNL     1      -0.047 -34.531  43.232  1.00  0.00     0.248 C 
HETATM   18  O1  UNL     1       0.217 -35.593  43.841  1.00  0.00    -0.271 OA
ATOM     19  H2  UNL     1      -1.491 -33.574  42.056  1.00  0.00     0.163 HD
BRANCH  17  20
HETATM   20  C2  UNL     1       0.959 -33.450  43.275  1.00  0.00     0.270 C 
HETATM   21  C1  UNL     1       0.703 -32.421  42.168  1.00  0.00     0.050 C 
BRANCH  20  22
HETATM   22  N1  UNL     1       0.871 -32.711  44.521  1.00  0.00    -0.067 N 
ATOM     23  H13 UNL     1       1.531 -31.937  44.586  1.00  0.00     0.275 HD
ATOM     24  H12 UNL     1       0.022 -32.153  44.607  1.00  0.00     0.275 HD
ATOM     25  H11 UNL     1       0.981 -33.407  45.259  1.00  0.00     0.275 HD
ENDBRANCH  20  22
ENDBRANCH  17  20
ENDBRANCH   1  16
BRANCH  15  26
HETATM   26  N8  UNL     1      -2.025 -36.088  40.163  1.00  0.00    -0.073 N 
ATOM     27  H83 UNL     1      -2.151 -35.606  39.272  1.00  0.00     0.274 HD
ATOM     28  H82 UNL     1      -1.067 -35.793  40.355  1.00  0.00     0.274 HD
ATOM     29  H81 UNL     1      -2.103 -37.100  40.066  1.00  0.00     0.274 HD
ENDBRANCH  15  26
BRANCH  11  30
HETATM   30  O3  UNL     1      -4.472 -32.030  42.766  1.00  0.00    -0.351 OA
ATOM     31  H3  UNL     1      -3.845 -31.649  43.369  1.00  0.00     0.214 HD
ENDBRANCH  11  30
BRANCH  13  32
HETATM   32  N6  UNL     1      -5.626 -35.745  40.662  1.00  0.00    -0.059 N 
ATOM     33  H63 UNL     1      -6.574 -35.758  40.285  1.00  0.00     0.275 HD
ATOM     34  H62 UNL     1      -5.156 -36.134  39.845  1.00  0.00     0.275 HD
ATOM     35  H61 UNL     1      -5.520 -36.320  41.498  1.00  0.00     0.275 HD
ENDBRANCH  13  32
BRANCH  13  36
HETATM   36  C11 UNL     1      -5.773 -33.483  39.978  1.00  0.00     0.270 C 
HETATM   37  N7  UNL     1      -5.564 -32.073  39.972  1.00  0.00    -0.060 NA
HETATM   38  O5  UNL     1      -6.515 -33.915  39.053  1.00  0.00    -0.274 OA
ENDBRANCH  13  36
BRANCH  12  39
HETATM   39  O4  UNL     1      -6.872 -33.386  42.188  1.00  0.00    -0.386 OA
ATOM     40  H4  UNL     1      -7.469 -33.980  41.749  1.00  0.00     0.210 HD
ENDBRANCH  12  39
TORSDOF 8
ENDMDL
MODEL 5
REMARK VINA RESULT: -4.341792255      2.327      5.482
REMARK  8 active torsions:
REMARK  status: ('A' for Active; 'I' for Inactive)
REMARK    1  A    between atoms: C2_2  and  N1_3 
REMARK    2  A    between atoms: C2_2  and  C3_7 
REMARK       I    between atoms: C3_7  and  N2_9 
REMARK    3  A    between atoms: N2_9  and  C4_11 
REMARK    4  A    between atoms: C8_21  and  O3_22 
REMARK    5  A    between atoms: C9_24  and  O4_25 
REMARK    6  A    between atoms: C10_27  and  N6_28 
REMARK    7  A    between atoms: C10_27  and  C11_32 
REMARK    8  A    between atoms: C13_36  and  N8_37 
ROOT
HETATM    1  C4  UNL     1      -4.671 -34.223  43.601  1.00  0.00     0.153 C 
HETATM    2  C5  UNL     1      -3.697 -35.302  43.143  1.00  0.00     0.092 C 
HETATM    3  N3  UNL     1      -2.774 -34.881  42.176  1.00  0.00    -0.325 N 
HETATM    4  C6  UNL     1      -3.025 -35.401  40.859  1.00  0.00     0.255 C 
HETATM    5  N4  UNL     1      -2.437 -36.716  40.675  1.00  0.00    -0.327 N 
ATOM      6  H4  UNL     1      -2.896 -37.461  40.151  1.00  0.00     0.165 HD
HETATM    7  C7  UNL     1      -1.164 -36.870  41.288  1.00  0.00     0.321 C 
HETATM    8  O2  UNL     1      -0.559 -37.980  41.309  1.00  0.00    -0.247 OA
HETATM    9  N5  UNL     1      -0.620 -35.702  41.873  1.00  0.00    -0.291 N 
ATOM     10  H5  UNL     1       0.391 -35.576  41.847  1.00  0.00     0.169 HD
HETATM   11  C8  UNL     1      -1.424 -34.671  42.509  1.00  0.00     0.250 C 
HETATM   12  C9  UNL     1      -1.056 -34.688  43.948  1.00  0.00     0.241 C 
HETATM   13  C10 UNL     1      -1.520 -33.626  44.836  1.00  0.00     0.234 C 
HETATM   14  C12 UNL     1      -2.746 -32.866  44.478  1.00  0.00     0.086 C 
HETATM   15  C13 UNL     1      -4.036 -33.564  44.784  1.00  0.00     0.214 C 
ENDROOT
BRANCH   1  16
HETATM   16  N2  UNL     1      -4.977 -33.350  42.521  1.00  0.00    -0.348 N 
HETATM   17  C3  UNL     1      -6.091 -33.490  41.658  1.00  0.00     0.248 C 
HETATM   18  O1  UNL     1      -6.870 -34.451  41.852  1.00  0.00    -0.271 OA
ATOM     19  H2  UNL     1      -4.348 -32.565  42.356  1.00  0.00     0.163 HD
BRANCH  17  20
HETATM   20  C2  UNL     1      -6.398 -32.576  40.539  1.00  0.00     0.270 C 
HETATM   21  C1  UNL     1      -6.770 -31.182  41.059  1.00  0.00     0.050 C 
BRANCH  20  22
HETATM   22  N1  UNL     1      -5.232 -32.378  39.698  1.00  0.00    -0.067 N 
ATOM     23  H13 UNL     1      -5.142 -31.428  39.339  1.00  0.00     0.275 HD
ATOM     24  H12 UNL     1      -4.349 -32.398  40.210  1.00  0.00     0.275 HD
ATOM     25  H11 UNL     1      -5.298 -33.088  38.968  1.00  0.00     0.275 HD
ENDBRANCH  20  22
ENDBRANCH  17  20
ENDBRANCH   1  16
BRANCH  15  26
HETATM   26  N8  UNL     1      -5.006 -32.666  45.434  1.00  0.00    -0.073 N 
ATOM     27  H83 UNL     1      -5.556 -32.139  44.755  1.00  0.00     0.274 HD
ATOM     28  H82 UNL     1      -5.769 -33.179  45.874  1.00  0.00     0.274 HD
ATOM     29  H81 UNL     1      -4.522 -32.056  46.093  1.00  0.00     0.274 HD
ENDBRANCH  15  26
BRANCH  11  30
HETATM   30  O3  UNL     1      -1.030 -33.482  41.861  1.00  0.00    -0.351 OA
ATOM     31  H3  UNL     1      -1.212 -32.771  42.465  1.00  0.00     0.214 HD
ENDBRANCH  11  30
BRANCH  13  32
HETATM   32  N6  UNL     1      -1.793 -34.248  46.150  1.00  0.00    -0.059 N 
ATOM     33  H63 UNL     1      -2.312 -35.123  46.078  1.00  0.00     0.275 HD
ATOM     34  H62 UNL     1      -0.957 -34.628  46.594  1.00  0.00     0.275 HD
ATOM     35  H61 UNL     1      -2.266 -33.547  46.720  1.00  0.00     0.275 HD
ENDBRANCH  13  32
BRANCH  13  36
HETATM   36  C11 UNL     1      -0.450 -32.606  45.097  1.00  0.00     0.270 C 
HETATM   37  N7  UNL     1      -0.002 -32.285  46.412  1.00  0.00    -0.060 NA
HETATM   38  O5  UNL     1       0.119 -31.967  44.170  1.00  0.00    -0.274 OA
ENDBRANCH  13  36
BRANCH  12  39
HETATM   39  O4  UNL     1       0.366 -34.664  44.003  1.00  0.00    -0.386 OA
ATOM     40  H4  UNL     1       0.612 -33.777  44.236  1.00  0.00     0.210 HD
ENDBRANCH  12  39
TORSDOF 8
ENDMDL
