MODEL 1
REMARK VINA RESULT: -7.239744999      0.000      0.000
REMARK  2 active torsions:
REMARK  status: ('A' for Active; 'I' for Inactive)
REMARK       I    between atoms: C1_4  and  N2_5 
REMARK       I    between atoms: C1_4  and  N5_18 
REMARK    1  A    between atoms: N2_5  and  C2_7 
REMARK    2  A    between atoms: N5_18  and  N6_20 
ROOT
HETATM    1  C2  UNL     1      24.548  44.064  69.912  1.00  0.00     0.125 C 
HETATM    2  C3  UNL     1      24.962  43.699  68.648  1.00  0.00     0.054 C 
HETATM    3  C4  UNL     1      24.633  42.540  67.965  1.00  0.00     0.078 C 
HETATM    4  C5  UNL     1      23.938  41.451  68.450  1.00  0.00     0.249 C 
HETATM    5  O1  UNL     1      23.512  40.648  67.583  1.00  0.00    -0.268 OA
HETATM    6  N3  UNL     1      23.650  41.122  69.724  1.00  0.00    -0.275 N 
ATOM      7  H3  UNL     1      23.354  40.161  69.898  1.00  0.00     0.173 HD
HETATM    8  C6  UNL     1      23.717  41.939  70.784  1.00  0.00     0.328 C 
HETATM    9  O2  UNL     1      23.607  41.455  71.940  1.00  0.00    -0.247 OA
HETATM   10  N4  UNL     1      23.897  43.291  70.803  1.00  0.00    -0.294 N 
ATOM     11  H4  UNL     1      23.483  43.782  71.595  1.00  0.00     0.172 HD
ENDROOT
BRANCH   1  12
HETATM   12  N2  UNL     1      24.838  45.266  70.219  1.00  0.00    -0.176 N 
HETATM   13  C1  UNL     1      24.502  46.412  69.478  1.00  0.00     0.691 C 
HETATM   14  N1  UNL     1      25.419  47.086  68.910  1.00  0.00    -0.233 N 
HETATM   15  N5  UNL     1      23.158  46.810  69.367  1.00  0.00    -0.139 N 
ATOM     16  H12 UNL     1      26.394  46.798  68.991  1.00  0.00     0.174 HD
ATOM     17  H11 UNL     1      25.176  47.918  68.372  1.00  0.00     0.174 HD
ATOM     18  H5  UNL     1      22.679  46.748  68.468  1.00  0.00     0.205 HD
ATOM     19  H2  UNL     1      25.362  45.410  71.082  1.00  0.00     0.186 HD
BRANCH  15  20
HETATM   20  N6  UNL     1      22.487  47.285  70.479  1.00  0.00    -0.331 N 
ATOM     21  H62 UNL     1      22.593  48.265  70.742  1.00  0.00     0.177 HD
ATOM     22  H61 UNL     1      21.896  46.655  71.022  1.00  0.00     0.177 HD
ENDBRANCH  15  20
ENDBRANCH   1  12
TORSDOF 2
ENDMDL
MODEL 2
REMARK VINA RESULT: -6.782906529      1.621      1.697
REMARK  2 active torsions:
REMARK  status: ('A' for Active; 'I' for Inactive)
REMARK       I    between atoms: C1_4  and  N2_5 
REMARK       I    between atoms: C1_4  and  N5_18 
REMARK    1  A    between atoms: N2_5  and  C2_7 
REMARK    2  A    between atoms: N5_18  and  N6_20 
ROOT
HETATM    1  C2  UNL     1      23.800  45.190  69.650  1.00  0.00     0.125 C 
HETATM    2  C3  UNL     1      24.704  44.357  69.027  1.00  0.00     0.054 C 
HETATM    3  C4  UNL     1      24.533  43.017  68.725  1.00  0.00     0.078 C 
HETATM    4  C5  UNL     1      23.484  42.201  69.100  1.00  0.00     0.249 C 
HETATM    5  O1  UNL     1      23.393  41.112  68.481  1.00  0.00    -0.268 OA
HETATM    6  N3  UNL     1      22.540  42.405  70.039  1.00  0.00    -0.275 N 
ATOM      7  H3  UNL     1      22.008  41.590  70.345  1.00  0.00     0.173 HD
HETATM    8  C6  UNL     1      22.234  43.580  70.609  1.00  0.00     0.328 C 
HETATM    9  O2  UNL     1      21.467  43.596  71.606  1.00  0.00    -0.247 OA
HETATM   10  N4  UNL     1      22.650  44.828  70.253  1.00  0.00    -0.294 N 
ATOM     11  H4  UNL     1      22.006  45.588  70.470  1.00  0.00     0.172 HD
ENDROOT
BRANCH   1  12
HETATM   12  N2  UNL     1      24.134  46.420  69.627  1.00  0.00    -0.176 N 
HETATM   13  C1  UNL     1      23.353  47.480  69.136  1.00  0.00     0.691 C 
HETATM   14  N1  UNL     1      23.716  48.094  68.082  1.00  0.00    -0.233 N 
HETATM   15  N5  UNL     1      22.177  47.857  69.807  1.00  0.00    -0.139 N 
ATOM     16  H12 UNL     1      24.569  47.820  67.596  1.00  0.00     0.174 HD
ATOM     17  H11 UNL     1      23.149  48.863  67.725  1.00  0.00     0.174 HD
ATOM     18  H5  UNL     1      21.267  47.699  69.374  1.00  0.00     0.205 HD
ATOM     19  H2  UNL     1      25.054  46.656  69.999  1.00  0.00     0.186 HD
BRANCH  15  20
HETATM   20  N6  UNL     1      22.257  48.445  71.057  1.00  0.00    -0.331 N 
ATOM     21  H62 UNL     1      21.414  48.512  71.628  1.00  0.00     0.177 HD
ATOM     22  H61 UNL     1      23.150  48.802  71.393  1.00  0.00     0.177 HD
ENDBRANCH  15  20
ENDBRANCH   1  12
TORSDOF 2
ENDMDL
MODEL 3
REMARK VINA RESULT: -6.764515407      1.697      2.246
REMARK  2 active torsions:
REMARK  status: ('A' for Active; 'I' for Inactive)
REMARK       I    between atoms: C1_4  and  N2_5 
REMARK       I    between atoms: C1_4  and  N5_18 
REMARK    1  A    between atoms: N2_5  and  C2_7 
REMARK    2  A    between atoms: N5_18  and  N6_20 
ROOT
HETATM    1  C2  UNL     1      23.630  44.700  69.256  1.00  0.00     0.125 C 
HETATM    2  C3  UNL     1      24.370  43.676  68.702  1.00  0.00     0.054 C 
HETATM    3  C4  UNL     1      24.061  42.327  68.706  1.00  0.00     0.078 C 
HETATM    4  C5  UNL     1      23.025  41.707  69.375  1.00  0.00     0.249 C 
HETATM    5  O1  UNL     1      22.766  40.534  69.010  1.00  0.00    -0.268 OA
HETATM    6  N3  UNL     1      22.248  42.180  70.369  1.00  0.00    -0.275 N 
ATOM      7  H3  UNL     1      21.711  41.496  70.903  1.00  0.00     0.173 HD
HETATM    8  C6  UNL     1      22.115  43.467  70.721  1.00  0.00     0.328 C 
HETATM    9  O2  UNL     1      21.508  43.751  71.786  1.00  0.00    -0.247 OA
HETATM   10  N4  UNL     1      22.560  44.576  70.065  1.00  0.00    -0.294 N 
ATOM     11  H4  UNL     1      22.012  45.424  70.206  1.00  0.00     0.172 HD
ENDROOT
BRANCH   1  12
HETATM   12  N2  UNL     1      24.044  45.862  68.937  1.00  0.00    -0.176 N 
HETATM   13  C1  UNL     1      24.904  46.671  69.699  1.00  0.00     0.691 C 
HETATM   14  N1  UNL     1      24.463  47.746  70.219  1.00  0.00    -0.233 N 
HETATM   15  N5  UNL     1      26.245  46.292  69.885  1.00  0.00    -0.139 N 
ATOM     16  H12 UNL     1      23.490  48.020  70.084  1.00  0.00     0.174 HD
ATOM     17  H11 UNL     1      25.087  48.332  70.772  1.00  0.00     0.174 HD
ATOM     18  H5  UNL     1      26.574  46.008  70.808  1.00  0.00     0.205 HD
ATOM     19  H2  UNL     1      23.720  46.241  68.047  1.00  0.00     0.186 HD
BRANCH  15  20
HETATM   20  N6  UNL     1      27.119  46.306  68.813  1.00  0.00    -0.331 N 
ATOM     21  H62 UNL     1      27.239  47.169  68.281  1.00  0.00     0.177 HD
ATOM     22  H61 UNL     1      27.632  45.460  68.565  1.00  0.00     0.177 HD
ENDBRANCH  15  20
ENDBRANCH   1  12
TORSDOF 2
ENDMDL
MODEL 4
REMARK VINA RESULT: -6.661139177      3.132      5.107
REMARK  2 active torsions:
REMARK  status: ('A' for Active; 'I' for Inactive)
REMARK       I    between atoms: C1_4  and  N2_5 
REMARK       I    between atoms: C1_4  and  N5_18 
REMARK    1  A    between atoms: N2_5  and  C2_7 
REMARK    2  A    between atoms: N5_18  and  N6_20 
ROOT
HETATM    1  C2  UNL     1      23.307  44.602  69.953  1.00  0.00     0.125 C 
HETATM    2  C3  UNL     1      24.597  44.346  69.538  1.00  0.00     0.054 C 
HETATM    3  C4  UNL     1      25.611  45.270  69.351  1.00  0.00     0.078 C 
HETATM    4  C5  UNL     1      25.513  46.645  69.408  1.00  0.00     0.249 C 
HETATM    5  O1  UNL     1      26.601  47.266  69.491  1.00  0.00    -0.268 OA
HETATM    6  N3  UNL     1      24.412  47.422  69.388  1.00  0.00    -0.275 N 
ATOM      7  H3  UNL     1      24.549  48.413  69.185  1.00  0.00     0.173 HD
HETATM    8  C6  UNL     1      23.154  47.015  69.611  1.00  0.00     0.328 C 
HETATM    9  O2  UNL     1      22.203  47.804  69.373  1.00  0.00    -0.247 OA
HETATM   10  N4  UNL     1      22.724  45.810  70.082  1.00  0.00    -0.294 N 
ATOM     11  H4  UNL     1      21.846  45.825  70.600  1.00  0.00     0.172 HD
ENDROOT
BRANCH   1  12
HETATM   12  N2  UNL     1      22.639  43.552  70.231  1.00  0.00    -0.176 N 
HETATM   13  C1  UNL     1      22.053  42.676  69.302  1.00  0.00     0.691 C 
HETATM   14  N1  UNL     1      20.785  42.601  69.220  1.00  0.00    -0.233 N 
HETATM   15  N5  UNL     1      22.864  41.887  68.468  1.00  0.00    -0.139 N 
ATOM     16  H12 UNL     1      20.196  43.173  69.825  1.00  0.00     0.174 HD
ATOM     17  H11 UNL     1      20.358  41.966  68.546  1.00  0.00     0.174 HD
ATOM     18  H5  UNL     1      22.895  42.067  67.464  1.00  0.00     0.205 HD
ATOM     19  H2  UNL     1      22.520  43.327  71.218  1.00  0.00     0.186 HD
BRANCH  15  20
HETATM   20  N6  UNL     1      23.621  40.864  69.012  1.00  0.00    -0.331 N 
ATOM     21  H62 UNL     1      24.545  41.077  69.388  1.00  0.00     0.177 HD
ATOM     22  H61 UNL     1      23.250  39.915  69.032  1.00  0.00     0.177 HD
ENDBRANCH  15  20
ENDBRANCH   1  12
TORSDOF 2
ENDMDL
MODEL 5
REMARK VINA RESULT: -6.596325537      1.509      2.234
REMARK  2 active torsions:
REMARK  status: ('A' for Active; 'I' for Inactive)
REMARK       I    between atoms: C1_4  and  N2_5 
REMARK       I    between atoms: C1_4  and  N5_18 
REMARK    1  A    between atoms: N2_5  and  C2_7 
REMARK    2  A    between atoms: N5_18  and  N6_20 
ROOT
HETATM    1  C2  UNL     1      24.049  44.183  69.619  1.00  0.00     0.125 C 
HETATM    2  C3  UNL     1      22.787  43.793  70.015  1.00  0.00     0.054 C 
HETATM    3  C4  UNL     1      22.178  42.573  69.777  1.00  0.00     0.078 C 
HETATM    4  C5  UNL     1      22.644  41.544  68.985  1.00  0.00     0.249 C 
HETATM    5  O1  UNL     1      22.076  40.435  69.141  1.00  0.00    -0.268 OA
HETATM    6  N3  UNL     1      23.626  41.557  68.062  1.00  0.00    -0.275 N 
ATOM      7  H3  UNL     1      23.656  40.776  67.407  1.00  0.00     0.173 HD
HETATM    8  C6  UNL     1      24.569  42.501  67.926  1.00  0.00     0.328 C 
HETATM    9  O2  UNL     1      25.306  42.488  66.906  1.00  0.00    -0.247 OA
HETATM   10  N4  UNL     1      24.867  43.529  68.770  1.00  0.00    -0.294 N 
ATOM     11  H4  UNL     1      25.836  43.846  68.757  1.00  0.00     0.172 HD
ENDROOT
BRANCH   1  12
HETATM   12  N2  UNL     1      24.434  45.281  70.138  1.00  0.00    -0.176 N 
HETATM   13  C1  UNL     1      24.307  46.557  69.563  1.00  0.00     0.691 C 
HETATM   14  N1  UNL     1      25.349  47.188  69.193  1.00  0.00    -0.233 N 
HETATM   15  N5  UNL     1      23.035  47.131  69.398  1.00  0.00    -0.139 N 
ATOM     16  H12 UNL     1      26.271  46.771  69.313  1.00  0.00     0.174 HD
ATOM     17  H11 UNL     1      25.257  48.114  68.775  1.00  0.00     0.174 HD
ATOM     18  H5  UNL     1      22.651  47.264  68.462  1.00  0.00     0.205 HD
ATOM     19  H2  UNL     1      24.875  45.229  71.056  1.00  0.00     0.186 HD
BRANCH  15  20
HETATM   20  N6  UNL     1      22.305  47.517  70.508  1.00  0.00    -0.331 N 
ATOM     21  H62 UNL     1      22.794  47.708  71.382  1.00  0.00     0.177 HD
ATOM     22  H61 UNL     1      21.291  47.606  70.442  1.00  0.00     0.177 HD
ENDBRANCH  15  20
ENDBRANCH   1  12
TORSDOF 2
ENDMDL
