MODEL 1
REMARK VINA RESULT: -7.022845327      0.000      0.000
REMARK  14 active torsions:
REMARK  status: ('A' for Active; 'I' for Inactive)
REMARK    1  A    between atoms: C2_2  and  C3_3 
REMARK    2  A    between atoms: C3_3  and  C5_5 
REMARK    3  A    between atoms: C6_8  and  O1_9 
REMARK    4  A    between atoms: C7_11  and  C8_12 
REMARK    5  A    between atoms: C8_12  and  C9_13 
REMARK    6  A    between atoms: C13_20  and  C14_21 
REMARK    7  A    between atoms: C14_21  and  C15_22 
REMARK    8  A    between atoms: C23_36  and  C24_37 
REMARK    9  A    between atoms: C24_37  and  C25_38 
REMARK   10  A    between atoms: C25_38  and  C26_39 
REMARK   11  A    between atoms: C26_39  and  C27_40 
REMARK   12  A    between atoms: C27_40  and  N5_41 
REMARK   13  A    between atoms: C29_49  and  C30_50 
REMARK   14  A    between atoms: C30_50  and  C31_51 
ROOT
HETATM    1  C5  UNL     1      17.841  26.816  10.414  1.00  0.00     0.084 C 
HETATM    2  N1  UNL     1      18.568  26.506  11.619  1.00  0.00    -0.334 N 
ATOM      3  H1  UNL     1      18.058  25.835  12.193  1.00  0.00     0.168 HD
HETATM    4  C6  UNL     1      19.768  26.863  12.215  1.00  0.00     0.163 C 
HETATM    5  C7  UNL     1      20.240  28.029  12.972  1.00  0.00     0.063 C 
HETATM    6  N2  UNL     1      20.399  29.251  12.207  1.00  0.00    -0.325 N 
ATOM      7  H2  UNL     1      19.814  29.359  11.378  1.00  0.00     0.169 HD
HETATM    8  C12 UNL     1      21.303  30.319  12.509  1.00  0.00     0.244 C 
HETATM    9  O2  UNL     1      20.787  31.462  12.528  1.00  0.00    -0.271 OA
HETATM   10  C13 UNL     1      22.722  30.122  12.783  1.00  0.00     0.177 C 
HETATM   11  N3  UNL     1      23.388  29.549  11.568  1.00  0.00    -0.348 N 
ATOM     12  H3  UNL     1      23.062  29.858  10.652  1.00  0.00     0.163 HD
HETATM   13  C18 UNL     1      24.434  28.613  11.614  1.00  0.00     0.218 C 
HETATM   14  O3  UNL     1      25.542  28.901  11.027  1.00  0.00    -0.274 OA
HETATM   15  C19 UNL     1      24.418  27.290  12.277  1.00  0.00     0.104 C 
HETATM   16  C20 UNL     1      24.452  26.223  11.215  1.00  0.00     0.029 C 
HETATM   17  C21 UNL     1      23.734  26.607   9.939  1.00  0.00     0.123 C 
HETATM   18  N4  UNL     1      24.145  25.604   8.959  1.00  0.00    -0.359 N 
ATOM     19  H4  UNL     1      25.122  25.614   8.666  1.00  0.00     0.162 HD
HETATM   20  C22 UNL     1      23.320  24.632   8.384  1.00  0.00     0.240 C 
HETATM   21  O4  UNL     1      23.655  23.394   8.399  1.00  0.00    -0.271 OA
HETATM   22  C23 UNL     1      21.997  24.897   7.706  1.00  0.00     0.177 C 
HETATM   23  N6  UNL     1      21.035  23.845   7.975  1.00  0.00    -0.342 N 
ATOM     24  H6  UNL     1      21.425  22.999   8.389  1.00  0.00     0.163 HD
HETATM   25  C28 UNL     1      19.669  23.814   7.755  1.00  0.00     0.268 C 
HETATM   26  O5  UNL     1      19.277  22.822   7.022  1.00  0.00    -0.266 OA
HETATM   27  C29 UNL     1      18.548  24.668   8.176  1.00  0.00     0.102 C 
HETATM   28  N7  UNL     1      18.707  26.088   8.070  1.00  0.00    -0.313 N 
HETATM   29  C34 UNL     1      19.019  26.743   6.783  1.00  0.00     0.160 C 
HETATM   30  C35 UNL     1      18.599  27.015   9.183  1.00  0.00     0.271 C 
HETATM   31  O6  UNL     1      19.272  28.089   8.976  1.00  0.00    -0.266 OA
ENDROOT
BRANCH  22  32
HETATM   32  C24 UNL     1      22.377  24.874   6.214  1.00  0.00     0.035 C 
BRANCH  32  33
HETATM   33  C25 UNL     1      23.762  25.338   5.968  1.00  0.00     0.004 C 
BRANCH  33  34
HETATM   34  C26 UNL     1      24.411  24.655   4.793  1.00  0.00     0.027 C 
BRANCH  34  35
HETATM   35  C27 UNL     1      24.465  23.168   4.899  1.00  0.00     0.229 C 
BRANCH  35  36
HETATM   36  N5  UNL     1      25.343  22.802   5.991  1.00  0.00    -0.079 N 
ATOM     37  H53 UNL     1      26.140  22.248   5.678  1.00  0.00     0.274 HD
ATOM     38  H52 UNL     1      25.858  23.602   6.360  1.00  0.00     0.274 HD
ATOM     39  H51 UNL     1      24.800  22.325   6.711  1.00  0.00     0.274 HD
ENDBRANCH  35  36
ENDBRANCH  34  35
ENDBRANCH  33  34
ENDBRANCH  32  33
ENDBRANCH  22  32
BRANCH  27  40
HETATM   40  C30 UNL     1      17.211  24.146   7.856  1.00  0.00     0.012 C 
BRANCH  40  41
HETATM   41  C31 UNL     1      16.071  24.069   8.742  1.00  0.00     0.002 C 
HETATM   42  C32 UNL     1      16.196  23.525  10.115  1.00  0.00     0.013 C 
HETATM   43  C33 UNL     1      15.092  23.075   8.031  1.00  0.00     0.013 C 
ENDBRANCH  40  41
ENDBRANCH  27  40
BRANCH   1  44
HETATM   44  C3  UNL     1      16.617  27.640  10.625  1.00  0.00     0.037 C 
HETATM   45  C4  UNL     1      15.682  27.255  11.716  1.00  0.00     0.016 C 
BRANCH  44  46
HETATM   46  C2  UNL     1      16.803  29.134  10.701  1.00  0.00     0.006 C 
HETATM   47  C1  UNL     1      15.945  29.837  11.690  1.00  0.00     0.006 C 
ENDBRANCH  44  46
ENDBRANCH   1  44
BRANCH  10  48
HETATM   48  C14 UNL     1      23.560  31.190  13.313  1.00  0.00     0.038 C 
BRANCH  48  49
HETATM   49  C15 UNL     1      23.196  32.137  14.344  1.00  0.00    -0.020 C 
HETATM   50  C16 UNL     1      22.718  31.785  15.683  1.00  0.00     0.009 C 
HETATM   51  C17 UNL     1      24.475  33.010  14.594  1.00  0.00     0.009 C 
ENDBRANCH  48  49
ENDBRANCH  10  48
BRANCH   4  52
HETATM   52  O1  UNL     1      20.730  25.962  12.091  1.00  0.00    -0.345 OA
ATOM     53  H1  UNL     1      20.762  25.324  12.794  1.00  0.00     0.219 HD
ENDBRANCH   4  52
BRANCH   5  54
HETATM   54  C8  UNL     1      19.615  28.316  14.293  1.00  0.00     0.065 C 
BRANCH  54  55
HETATM   55  C9  UNL     1      18.429  29.191  14.359  1.00  0.00    -0.017 C 
HETATM   56  C10 UNL     1      17.271  28.300  14.888  1.00  0.00     0.010 C 
HETATM   57  C11 UNL     1      18.499  30.344  15.335  1.00  0.00     0.010 C 
ENDBRANCH  54  55
ENDBRANCH   5  54
TORSDOF 14
ENDMDL
MODEL 2
REMARK VINA RESULT: -6.930132621      0.854      1.032
REMARK  14 active torsions:
REMARK  status: ('A' for Active; 'I' for Inactive)
REMARK    1  A    between atoms: C2_2  and  C3_3 
REMARK    2  A    between atoms: C3_3  and  C5_5 
REMARK    3  A    between atoms: C6_8  and  O1_9 
REMARK    4  A    between atoms: C7_11  and  C8_12 
REMARK    5  A    between atoms: C8_12  and  C9_13 
REMARK    6  A    between atoms: C13_20  and  C14_21 
REMARK    7  A    between atoms: C14_21  and  C15_22 
REMARK    8  A    between atoms: C23_36  and  C24_37 
REMARK    9  A    between atoms: C24_37  and  C25_38 
REMARK   10  A    between atoms: C25_38  and  C26_39 
REMARK   11  A    between atoms: C26_39  and  C27_40 
REMARK   12  A    between atoms: C27_40  and  N5_41 
REMARK   13  A    between atoms: C29_49  and  C30_50 
REMARK   14  A    between atoms: C30_50  and  C31_51 
ROOT
HETATM    1  C5  UNL     1      17.938  26.783  10.408  1.00  0.00     0.084 C 
HETATM    2  N1  UNL     1      18.661  26.487  11.619  1.00  0.00    -0.334 N 
ATOM      3  H1  UNL     1      18.159  25.806  12.188  1.00  0.00     0.168 HD
HETATM    4  C6  UNL     1      19.847  26.869  12.226  1.00  0.00     0.163 C 
HETATM    5  C7  UNL     1      20.289  28.043  12.988  1.00  0.00     0.063 C 
HETATM    6  N2  UNL     1      20.429  29.269  12.225  1.00  0.00    -0.325 N 
ATOM      7  H2  UNL     1      19.850  29.365  11.391  1.00  0.00     0.169 HD
HETATM    8  C12 UNL     1      21.308  30.355  12.535  1.00  0.00     0.244 C 
HETATM    9  O2  UNL     1      20.769  31.487  12.550  1.00  0.00    -0.271 OA
HETATM   10  C13 UNL     1      22.729  30.187  12.822  1.00  0.00     0.177 C 
HETATM   11  N3  UNL     1      23.418  29.629  11.613  1.00  0.00    -0.348 N 
ATOM     12  H3  UNL     1      23.093  29.931  10.694  1.00  0.00     0.163 HD
HETATM   13  C18 UNL     1      24.482  28.714  11.668  1.00  0.00     0.218 C 
HETATM   14  O3  UNL     1      25.589  29.025  11.091  1.00  0.00    -0.274 OA
HETATM   15  C19 UNL     1      24.487  27.391  12.330  1.00  0.00     0.104 C 
HETATM   16  C20 UNL     1      24.553  26.325  11.269  1.00  0.00     0.029 C 
HETATM   17  C21 UNL     1      23.839  26.695   9.986  1.00  0.00     0.123 C 
HETATM   18  N4  UNL     1      24.278  25.702   9.009  1.00  0.00    -0.359 N 
ATOM     19  H4  UNL     1      25.257  25.732   8.726  1.00  0.00     0.162 HD
HETATM   20  C22 UNL     1      23.479  24.713   8.426  1.00  0.00     0.240 C 
HETATM   21  O4  UNL     1      23.839  23.482   8.444  1.00  0.00    -0.271 OA
HETATM   22  C23 UNL     1      22.157  24.951   7.737  1.00  0.00     0.177 C 
HETATM   23  N6  UNL     1      21.214  23.879   7.997  1.00  0.00    -0.342 N 
ATOM     24  H6  UNL     1      21.618  23.041   8.414  1.00  0.00     0.163 HD
HETATM   25  C28 UNL     1      19.851  23.821   7.764  1.00  0.00     0.268 C 
HETATM   26  O5  UNL     1      19.486  22.821   7.028  1.00  0.00    -0.266 OA
HETATM   27  C29 UNL     1      18.709  24.651   8.176  1.00  0.00     0.102 C 
HETATM   28  N7  UNL     1      18.840  26.074   8.071  1.00  0.00    -0.313 N 
HETATM   29  C34 UNL     1      19.150  26.736   6.788  1.00  0.00     0.160 C 
HETATM   30  C35 UNL     1      18.703  26.998   9.184  1.00  0.00     0.271 C 
HETATM   31  O6  UNL     1      19.356  28.086   8.983  1.00  0.00    -0.266 OA
ENDROOT
BRANCH  22  32
HETATM   32  C24 UNL     1      22.551  24.937   6.248  1.00  0.00     0.035 C 
BRANCH  32  33
HETATM   33  C25 UNL     1      21.540  25.587   5.382  1.00  0.00     0.004 C 
BRANCH  33  34
HETATM   34  C26 UNL     1      21.025  24.679   4.298  1.00  0.00     0.027 C 
BRANCH  34  35
HETATM   35  C27 UNL     1      21.667  23.332   4.265  1.00  0.00     0.229 C 
BRANCH  35  36
HETATM   36  N5  UNL     1      20.640  22.314   4.331  1.00  0.00    -0.079 N 
ATOM     37  H53 UNL     1      20.425  21.920   3.415  1.00  0.00     0.274 HD
ATOM     38  H52 UNL     1      20.968  21.460   4.783  1.00  0.00     0.274 HD
ATOM     39  H51 UNL     1      19.814  22.702   4.789  1.00  0.00     0.274 HD
ENDBRANCH  35  36
ENDBRANCH  34  35
ENDBRANCH  33  34
ENDBRANCH  32  33
ENDBRANCH  22  32
BRANCH  27  40
HETATM   40  C30 UNL     1      17.387  24.102   7.844  1.00  0.00     0.012 C 
BRANCH  40  41
HETATM   41  C31 UNL     1      16.213  24.084   8.689  1.00  0.00     0.002 C 
HETATM   42  C32 UNL     1      16.264  23.545  10.068  1.00  0.00     0.013 C 
HETATM   43  C33 UNL     1      15.215  23.131   7.948  1.00  0.00     0.013 C 
ENDBRANCH  40  41
ENDBRANCH  27  40
BRANCH   1  44
HETATM   44  C3  UNL     1      16.696  27.581  10.608  1.00  0.00     0.037 C 
HETATM   45  C4  UNL     1      15.742  27.157  11.669  1.00  0.00     0.016 C 
BRANCH  44  46
HETATM   46  C2  UNL     1      16.854  29.076  10.721  1.00  0.00     0.006 C 
HETATM   47  C1  UNL     1      15.962  29.743  11.705  1.00  0.00     0.006 C 
ENDBRANCH  44  46
ENDBRANCH   1  44
BRANCH  10  48
HETATM   48  C14 UNL     1      23.540  31.271  13.360  1.00  0.00     0.038 C 
BRANCH  48  49
HETATM   49  C15 UNL     1      23.176  32.163  14.440  1.00  0.00    -0.020 C 
HETATM   50  C16 UNL     1      22.732  31.740  15.771  1.00  0.00     0.009 C 
HETATM   51  C17 UNL     1      24.442  33.051  14.705  1.00  0.00     0.009 C 
ENDBRANCH  48  49
ENDBRANCH  10  48
BRANCH   4  52
HETATM   52  O1  UNL     1      20.828  25.988  12.111  1.00  0.00    -0.345 OA
ATOM     53  H1  UNL     1      21.614  26.210  12.596  1.00  0.00     0.219 HD
ENDBRANCH   4  52
BRANCH   5  54
HETATM   54  C8  UNL     1      19.646  28.317  14.304  1.00  0.00     0.065 C 
BRANCH  54  55
HETATM   55  C9  UNL     1      18.458  29.189  14.362  1.00  0.00    -0.017 C 
HETATM   56  C10 UNL     1      17.290  28.287  14.848  1.00  0.00     0.010 C 
HETATM   57  C11 UNL     1      18.506  30.322  15.362  1.00  0.00     0.010 C 
ENDBRANCH  54  55
ENDBRANCH   5  54
TORSDOF 14
ENDMDL
MODEL 3
REMARK VINA RESULT: -6.715595883      9.438     16.501
REMARK  14 active torsions:
REMARK  status: ('A' for Active; 'I' for Inactive)
REMARK    1  A    between atoms: C2_2  and  C3_3 
REMARK    2  A    between atoms: C3_3  and  C5_5 
REMARK    3  A    between atoms: C6_8  and  O1_9 
REMARK    4  A    between atoms: C7_11  and  C8_12 
REMARK    5  A    between atoms: C8_12  and  C9_13 
REMARK    6  A    between atoms: C13_20  and  C14_21 
REMARK    7  A    between atoms: C14_21  and  C15_22 
REMARK    8  A    between atoms: C23_36  and  C24_37 
REMARK    9  A    between atoms: C24_37  and  C25_38 
REMARK   10  A    between atoms: C25_38  and  C26_39 
REMARK   11  A    between atoms: C26_39  and  C27_40 
REMARK   12  A    between atoms: C27_40  and  N5_41 
REMARK   13  A    between atoms: C29_49  and  C30_50 
REMARK   14  A    between atoms: C30_50  and  C31_51 
ROOT
HETATM    1  C5  UNL     1      22.753  39.991  18.097  1.00  0.00     0.084 C 
HETATM    2  N1  UNL     1      22.450  38.911  19.001  1.00  0.00    -0.334 N 
ATOM      3  H1  UNL     1      22.852  39.080  19.922  1.00  0.00     0.168 HD
HETATM    4  C6  UNL     1      21.765  37.706  18.968  1.00  0.00     0.163 C 
HETATM    5  C7  UNL     1      22.056  36.363  18.450  1.00  0.00     0.063 C 
HETATM    6  N2  UNL     1      22.087  36.242  17.005  1.00  0.00    -0.325 N 
ATOM      7  H2  UNL     1      22.330  37.079  16.474  1.00  0.00     0.169 HD
HETATM    8  C12 UNL     1      21.808  35.056  16.256  1.00  0.00     0.244 C 
HETATM    9  O2  UNL     1      22.673  34.752  15.400  1.00  0.00    -0.271 OA
HETATM   10  C13 UNL     1      20.616  34.238  16.454  1.00  0.00     0.177 C 
HETATM   11  N3  UNL     1      19.397  35.047  16.128  1.00  0.00    -0.348 N 
ATOM     12  H3  UNL     1      19.459  35.719  15.363  1.00  0.00     0.163 HD
HETATM   13  C18 UNL     1      18.175  34.937  16.812  1.00  0.00     0.218 C 
HETATM   14  O3  UNL     1      17.116  34.660  16.136  1.00  0.00    -0.274 OA
HETATM   15  C19 UNL     1      17.949  35.109  18.264  1.00  0.00     0.104 C 
HETATM   16  C20 UNL     1      17.148  36.366  18.479  1.00  0.00     0.029 C 
HETATM   17  C21 UNL     1      17.443  37.457  17.472  1.00  0.00     0.123 C 
HETATM   18  N4  UNL     1      16.373  38.435  17.651  1.00  0.00    -0.359 N 
ATOM     19  H4  UNL     1      15.432  38.146  17.384  1.00  0.00     0.162 HD
HETATM   20  C22 UNL     1      16.521  39.732  18.154  1.00  0.00     0.240 C 
HETATM   21  O4  UNL     1      15.788  40.148  19.122  1.00  0.00    -0.271 OA
HETATM   22  C23 UNL     1      17.508  40.757  17.652  1.00  0.00     0.177 C 
HETATM   23  N6  UNL     1      18.050  41.557  18.734  1.00  0.00    -0.342 N 
ATOM     24  H6  UNL     1      17.557  41.472  19.623  1.00  0.00     0.163 HD
HETATM   25  C28 UNL     1      19.132  42.419  18.745  1.00  0.00     0.268 C 
HETATM   26  O5  UNL     1      18.844  43.620  19.133  1.00  0.00    -0.266 OA
HETATM   27  C29 UNL     1      20.557  42.272  18.412  1.00  0.00     0.102 C 
HETATM   28  N7  UNL     1      20.898  41.584  17.202  1.00  0.00    -0.313 N 
HETATM   29  C34 UNL     1      20.403  42.032  15.885  1.00  0.00     0.160 C 
HETATM   30  C35 UNL     1      21.729  40.394  17.137  1.00  0.00     0.271 C 
HETATM   31  O6  UNL     1      21.466  39.686  16.099  1.00  0.00    -0.266 OA
ENDROOT
BRANCH  22  32
HETATM   32  C24 UNL     1      16.635  41.645  16.746  1.00  0.00     0.035 C 
BRANCH  32  33
HETATM   33  C25 UNL     1      15.814  42.611  17.511  1.00  0.00     0.004 C 
BRANCH  33  34
HETATM   34  C26 UNL     1      15.963  44.027  17.022  1.00  0.00     0.027 C 
BRANCH  34  35
HETATM   35  C27 UNL     1      17.109  44.238  16.089  1.00  0.00     0.229 C 
BRANCH  35  36
HETATM   36  N5  UNL     1      18.049  45.159  16.693  1.00  0.00    -0.079 N 
ATOM     37  H53 UNL     1      17.834  45.345  17.673  1.00  0.00     0.274 HD
ATOM     38  H52 UNL     1      18.971  44.741  16.824  1.00  0.00     0.274 HD
ATOM     39  H51 UNL     1      18.086  46.012  16.135  1.00  0.00     0.274 HD
ENDBRANCH  35  36
ENDBRANCH  34  35
ENDBRANCH  33  34
ENDBRANCH  32  33
ENDBRANCH  22  32
BRANCH  27  40
HETATM   40  C30 UNL     1      21.400  43.428  18.753  1.00  0.00     0.012 C 
BRANCH  40  41
HETATM   41  C31 UNL     1      22.449  43.478  19.748  1.00  0.00     0.002 C 
HETATM   42  C32 UNL     1      22.622  42.393  20.742  1.00  0.00     0.013 C 
HETATM   43  C33 UNL     1      22.101  44.734  20.616  1.00  0.00     0.013 C 
ENDBRANCH  40  41
ENDBRANCH  27  40
BRANCH   1  44
HETATM   44  C3  UNL     1      24.179  40.061  17.671  1.00  0.00     0.037 C 
HETATM   45  C4  UNL     1      24.769  41.397  17.381  1.00  0.00     0.016 C 
BRANCH  44  46
HETATM   46  C2  UNL     1      25.180  39.302  18.503  1.00  0.00     0.006 C 
HETATM   47  C1  UNL     1      25.846  40.083  19.577  1.00  0.00     0.006 C 
ENDBRANCH  44  46
ENDBRANCH   1  44
BRANCH  10  48
HETATM   48  C14 UNL     1      20.475  32.920  15.847  1.00  0.00     0.038 C 
BRANCH  48  49
HETATM   49  C15 UNL     1      19.906  32.628  14.550  1.00  0.00    -0.020 C 
HETATM   50  C16 UNL     1      20.638  32.061  13.414  1.00  0.00     0.009 C 
HETATM   51  C17 UNL     1      18.736  31.616  14.815  1.00  0.00     0.009 C 
ENDBRANCH  48  49
ENDBRANCH  10  48
BRANCH   4  52
HETATM   52  O1  UNL     1      20.567  37.743  19.530  1.00  0.00    -0.345 OA
ATOM     53  H1  UNL     1      20.142  36.897  19.604  1.00  0.00     0.219 HD
ENDBRANCH   4  52
BRANCH   5  54
HETATM   54  C8  UNL     1      23.175  35.595  19.064  1.00  0.00     0.065 C 
BRANCH  54  55
HETATM   55  C9  UNL     1      23.545  35.850  20.468  1.00  0.00    -0.017 C 
HETATM   56  C10 UNL     1      22.690  34.872  21.319  1.00  0.00     0.010 C 
HETATM   57  C11 UNL     1      24.974  35.539  20.853  1.00  0.00     0.010 C 
ENDBRANCH  54  55
ENDBRANCH   5  54
TORSDOF 14
ENDMDL
MODEL 4
REMARK VINA RESULT: -6.531983854     11.152     15.997
REMARK  14 active torsions:
REMARK  status: ('A' for Active; 'I' for Inactive)
REMARK    1  A    between atoms: C2_2  and  C3_3 
REMARK    2  A    between atoms: C3_3  and  C5_5 
REMARK    3  A    between atoms: C6_8  and  O1_9 
REMARK    4  A    between atoms: C7_11  and  C8_12 
REMARK    5  A    between atoms: C8_12  and  C9_13 
REMARK    6  A    between atoms: C13_20  and  C14_21 
REMARK    7  A    between atoms: C14_21  and  C15_22 
REMARK    8  A    between atoms: C23_36  and  C24_37 
REMARK    9  A    between atoms: C24_37  and  C25_38 
REMARK   10  A    between atoms: C25_38  and  C26_39 
REMARK   11  A    between atoms: C26_39  and  C27_40 
REMARK   12  A    between atoms: C27_40  and  N5_41 
REMARK   13  A    between atoms: C29_49  and  C30_50 
REMARK   14  A    between atoms: C30_50  and  C31_51 
ROOT
HETATM    1  C5  UNL     1      22.587  41.449  17.341  1.00  0.00     0.084 C 
HETATM    2  N1  UNL     1      22.986  41.719  18.699  1.00  0.00    -0.334 N 
ATOM      3  H1  UNL     1      22.329  42.350  19.156  1.00  0.00     0.168 HD
HETATM    4  C6  UNL     1      24.015  41.362  19.557  1.00  0.00     0.163 C 
HETATM    5  C7  UNL     1      25.415  41.771  19.722  1.00  0.00     0.063 C 
HETATM    6  N2  UNL     1      26.318  41.355  18.667  1.00  0.00    -0.325 N 
ATOM      7  H2  UNL     1      25.915  41.208  17.741  1.00  0.00     0.169 HD
HETATM    8  C12 UNL     1      27.725  41.130  18.806  1.00  0.00     0.244 C 
HETATM    9  O2  UNL     1      28.442  41.712  17.958  1.00  0.00    -0.271 OA
HETATM   10  C13 UNL     1      28.309  40.293  19.849  1.00  0.00     0.177 C 
HETATM   11  N3  UNL     1      27.833  38.882  19.680  1.00  0.00    -0.348 N 
ATOM     12  H3  UNL     1      27.699  38.532  18.731  1.00  0.00     0.163 HD
HETATM   13  C18 UNL     1      27.559  38.012  20.749  1.00  0.00     0.218 C 
HETATM   14  O3  UNL     1      28.179  36.886  20.798  1.00  0.00    -0.274 OA
HETATM   15  C19 UNL     1      26.613  38.240  21.863  1.00  0.00     0.104 C 
HETATM   16  C20 UNL     1      25.459  37.285  21.714  1.00  0.00     0.029 C 
HETATM   17  C21 UNL     1      25.107  36.972  20.275  1.00  0.00     0.123 C 
HETATM   18  N4  UNL     1      24.208  35.822  20.347  1.00  0.00    -0.359 N 
ATOM     19  H4  UNL     1      24.609  34.940  20.667  1.00  0.00     0.162 HD
HETATM   20  C22 UNL     1      22.849  35.821  20.017  1.00  0.00     0.240 C 
HETATM   21  O4  UNL     1      21.974  35.369  20.841  1.00  0.00    -0.271 OA
HETATM   22  C23 UNL     1      22.264  36.322  18.720  1.00  0.00     0.177 C 
HETATM   23  N6  UNL     1      20.990  36.986  18.925  1.00  0.00    -0.342 N 
ATOM     24  H6  UNL     1      20.574  36.846  19.846  1.00  0.00     0.163 HD
HETATM   25  C28 UNL     1      20.254  37.780  18.064  1.00  0.00     0.268 C 
HETATM   26  O5  UNL     1      19.044  37.364  17.869  1.00  0.00    -0.266 OA
HETATM   27  C29 UNL     1      20.543  39.011  17.311  1.00  0.00     0.102 C 
HETATM   28  N7  UNL     1      21.784  39.087  16.598  1.00  0.00    -0.313 N 
HETATM   29  C34 UNL     1      22.149  38.098  15.564  1.00  0.00     0.160 C 
HETATM   30  C35 UNL     1      22.798  40.104  16.816  1.00  0.00     0.271 C 
HETATM   31  O6  UNL     1      23.968  39.688  16.485  1.00  0.00    -0.266 OA
ENDROOT
BRANCH  22  32
HETATM   32  C24 UNL     1      22.040  35.019  17.930  1.00  0.00     0.035 C 
BRANCH  32  33
HETATM   33  C25 UNL     1      23.272  34.530  17.270  1.00  0.00     0.004 C 
BRANCH  33  34
HETATM   34  C26 UNL     1      23.162  34.499  15.769  1.00  0.00     0.027 C 
BRANCH  34  35
HETATM   35  C27 UNL     1      24.344  35.062  15.053  1.00  0.00     0.229 C 
BRANCH  35  36
HETATM   36  N5  UNL     1      25.353  34.033  14.919  1.00  0.00    -0.079 N 
ATOM     37  H53 UNL     1      25.093  33.171  15.399  1.00  0.00     0.274 HD
ATOM     38  H52 UNL     1      25.403  33.660  13.970  1.00  0.00     0.274 HD
ATOM     39  H51 UNL     1      26.249  34.400  15.239  1.00  0.00     0.274 HD
ENDBRANCH  35  36
ENDBRANCH  34  35
ENDBRANCH  33  34
ENDBRANCH  32  33
ENDBRANCH  22  32
BRANCH  27  40
HETATM   40  C30 UNL     1      19.383  39.625  16.650  1.00  0.00     0.012 C 
BRANCH  40  41
HETATM   41  C31 UNL     1      18.777  40.900  16.962  1.00  0.00     0.002 C 
HETATM   42  C32 UNL     1      19.022  41.575  18.258  1.00  0.00     0.013 C 
HETATM   43  C33 UNL     1      17.239  40.608  16.973  1.00  0.00     0.013 C 
ENDBRANCH  40  41
ENDBRANCH  27  40
BRANCH   1  44
HETATM   44  C3  UNL     1      22.748  42.599  16.407  1.00  0.00     0.037 C 
HETATM   45  C4  UNL     1      21.615  43.553  16.254  1.00  0.00     0.016 C 
BRANCH  44  46
HETATM   46  C2  UNL     1      24.006  43.418  16.541  1.00  0.00     0.006 C 
HETATM   47  C1  UNL     1      23.814  44.820  16.995  1.00  0.00     0.006 C 
ENDBRANCH  44  46
ENDBRANCH   1  44
BRANCH  10  48
HETATM   48  C14 UNL     1      29.743  40.273  20.107  1.00  0.00     0.038 C 
BRANCH  48  49
HETATM   49  C15 UNL     1      30.385  40.329  21.402  1.00  0.00    -0.020 C 
HETATM   50  C16 UNL     1      29.707  40.616  22.669  1.00  0.00     0.009 C 
HETATM   51  C17 UNL     1      31.046  38.922  21.613  1.00  0.00     0.009 C 
ENDBRANCH  48  49
ENDBRANCH  10  48
BRANCH   4  52
HETATM   52  O1  UNL     1      23.686  40.440  20.449  1.00  0.00    -0.345 OA
ATOM     53  H1  UNL     1      22.997  39.849  20.167  1.00  0.00     0.219 HD
ENDBRANCH   4  52
BRANCH   5  54
HETATM   54  C8  UNL     1      25.699  43.175  20.130  1.00  0.00     0.065 C 
BRANCH  54  55
HETATM   55  C9  UNL     1      26.352  43.435  21.427  1.00  0.00    -0.017 C 
HETATM   56  C10 UNL     1      26.242  42.112  22.233  1.00  0.00     0.010 C 
HETATM   57  C11 UNL     1      27.833  43.733  21.384  1.00  0.00     0.010 C 
ENDBRANCH  54  55
ENDBRANCH   5  54
TORSDOF 14
ENDMDL
MODEL 5
REMARK VINA RESULT: -6.446231280      9.378     16.527
REMARK  14 active torsions:
REMARK  status: ('A' for Active; 'I' for Inactive)
REMARK    1  A    between atoms: C2_2  and  C3_3 
REMARK    2  A    between atoms: C3_3  and  C5_5 
REMARK    3  A    between atoms: C6_8  and  O1_9 
REMARK    4  A    between atoms: C7_11  and  C8_12 
REMARK    5  A    between atoms: C8_12  and  C9_13 
REMARK    6  A    between atoms: C13_20  and  C14_21 
REMARK    7  A    between atoms: C14_21  and  C15_22 
REMARK    8  A    between atoms: C23_36  and  C24_37 
REMARK    9  A    between atoms: C24_37  and  C25_38 
REMARK   10  A    between atoms: C25_38  and  C26_39 
REMARK   11  A    between atoms: C26_39  and  C27_40 
REMARK   12  A    between atoms: C27_40  and  N5_41 
REMARK   13  A    between atoms: C29_49  and  C30_50 
REMARK   14  A    between atoms: C30_50  and  C31_51 
ROOT
HETATM    1  C5  UNL     1      23.461  40.205  18.184  1.00  0.00     0.084 C 
HETATM    2  N1  UNL     1      23.191  39.168  19.148  1.00  0.00    -0.334 N 
ATOM      3  H1  UNL     1      23.509  39.440  20.078  1.00  0.00     0.168 HD
HETATM    4  C6  UNL     1      22.620  37.905  19.165  1.00  0.00     0.163 C 
HETATM    5  C7  UNL     1      23.065  36.562  18.773  1.00  0.00     0.063 C 
HETATM    6  N2  UNL     1      23.211  36.342  17.347  1.00  0.00    -0.325 N 
ATOM      7  H2  UNL     1      23.416  37.157  16.770  1.00  0.00     0.169 HD
HETATM    8  C12 UNL     1      23.093  35.083  16.676  1.00  0.00     0.244 C 
HETATM    9  O2  UNL     1      24.041  34.801  15.905  1.00  0.00    -0.271 OA
HETATM   10  C13 UNL     1      21.967  34.173  16.860  1.00  0.00     0.177 C 
HETATM   11  N3  UNL     1      20.708  34.840  16.392  1.00  0.00    -0.348 N 
ATOM     12  H3  UNL     1      20.765  35.458  15.583  1.00  0.00     0.163 HD
HETATM   13  C18 UNL     1      19.454  34.665  17.002  1.00  0.00     0.218 C 
HETATM   14  O3  UNL     1      18.476  34.241  16.282  1.00  0.00    -0.274 OA
HETATM   15  C19 UNL     1      19.110  34.918  18.418  1.00  0.00     0.104 C 
HETATM   16  C20 UNL     1      18.187  36.106  18.482  1.00  0.00     0.029 C 
HETATM   17  C21 UNL     1      18.456  37.145  17.414  1.00  0.00     0.123 C 
HETATM   18  N4  UNL     1      17.293  38.029  17.446  1.00  0.00    -0.359 N 
ATOM     19  H4  UNL     1      16.403  37.635  17.142  1.00  0.00     0.162 HD
HETATM   20  C22 UNL     1      17.289  39.366  17.855  1.00  0.00     0.240 C 
HETATM   21  O4  UNL     1      16.454  39.781  18.738  1.00  0.00    -0.271 OA
HETATM   22  C23 UNL     1      18.215  40.441  17.340  1.00  0.00     0.177 C 
HETATM   23  N6  UNL     1      18.604  41.364  18.390  1.00  0.00    -0.342 N 
ATOM     24  H6  UNL     1      18.058  41.297  19.248  1.00  0.00     0.163 HD
HETATM   25  C28 UNL     1      19.602  42.323  18.404  1.00  0.00     0.268 C 
HETATM   26  O5  UNL     1      19.181  43.516  18.677  1.00  0.00    -0.266 OA
HETATM   27  C29 UNL     1      21.055  42.286  18.177  1.00  0.00     0.102 C 
HETATM   28  N7  UNL     1      21.542  41.548  17.049  1.00  0.00    -0.313 N 
HETATM   29  C34 UNL     1      21.105  41.853  15.672  1.00  0.00     0.160 C 
HETATM   30  C35 UNL     1      22.477  40.440  17.132  1.00  0.00     0.271 C 
HETATM   31  O6  UNL     1      22.354  39.637  16.137  1.00  0.00    -0.266 OA
ENDROOT
BRANCH  22  32
HETATM   32  C24 UNL     1      17.334  41.176  16.313  1.00  0.00     0.035 C 
BRANCH  32  33
HETATM   33  C25 UNL     1      16.432  42.170  16.939  1.00  0.00     0.004 C 
BRANCH  33  34
HETATM   34  C26 UNL     1      16.573  43.547  16.347  1.00  0.00     0.027 C 
BRANCH  34  35
HETATM   35  C27 UNL     1      16.143  44.653  17.250  1.00  0.00     0.229 C 
BRANCH  35  36
HETATM   36  N5  UNL     1      16.270  44.219  18.626  1.00  0.00    -0.079 N 
ATOM     37  H53 UNL     1      16.228  44.998  19.283  1.00  0.00     0.274 HD
ATOM     38  H52 UNL     1      15.445  43.713  18.950  1.00  0.00     0.274 HD
ATOM     39  H51 UNL     1      17.125  43.673  18.727  1.00  0.00     0.274 HD
ENDBRANCH  35  36
ENDBRANCH  34  35
ENDBRANCH  33  34
ENDBRANCH  32  33
ENDBRANCH  22  32
BRANCH  27  40
HETATM   40  C30 UNL     1      21.765  43.537  18.481  1.00  0.00     0.012 C 
BRANCH  40  41
HETATM   41  C31 UNL     1      23.178  43.695  18.744  1.00  0.00     0.002 C 
HETATM   42  C32 UNL     1      23.664  44.456  19.919  1.00  0.00     0.013 C 
HETATM   43  C33 UNL     1      23.714  44.510  17.519  1.00  0.00     0.013 C 
ENDBRANCH  40  41
ENDBRANCH  27  40
BRANCH   1  44
HETATM   44  C3  UNL     1      24.902  40.378  17.848  1.00  0.00     0.037 C 
HETATM   45  C4  UNL     1      25.262  41.226  16.679  1.00  0.00     0.016 C 
BRANCH  44  46
HETATM   46  C2  UNL     1      25.828  40.756  18.975  1.00  0.00     0.006 C 
HETATM   47  C1  UNL     1      26.542  42.049  18.812  1.00  0.00     0.006 C 
ENDBRANCH  44  46
ENDBRANCH   1  44
BRANCH  10  48
HETATM   48  C14 UNL     1      21.988  32.808  16.349  1.00  0.00     0.038 C 
BRANCH  48  49
HETATM   49  C15 UNL     1      21.705  32.393  14.993  1.00  0.00    -0.020 C 
HETATM   50  C16 UNL     1      22.713  32.063  13.983  1.00  0.00     0.009 C 
HETATM   51  C17 UNL     1      20.825  31.100  15.116  1.00  0.00     0.009 C 
ENDBRANCH  48  49
ENDBRANCH  10  48
BRANCH   4  52
HETATM   52  O1  UNL     1      21.386  37.870  19.643  1.00  0.00    -0.345 OA
ATOM     53  H1  UNL     1      20.779  37.354  19.125  1.00  0.00     0.219 HD
ENDBRANCH   4  52
BRANCH   5  54
HETATM   54  C8  UNL     1      24.201  35.948  19.517  1.00  0.00     0.065 C 
BRANCH  54  55
HETATM   55  C9  UNL     1      24.672  36.573  20.766  1.00  0.00    -0.017 C 
HETATM   56  C10 UNL     1      25.210  35.413  21.647  1.00  0.00     0.010 C 
HETATM   57  C11 UNL     1      25.838  37.528  20.641  1.00  0.00     0.010 C 
ENDBRANCH  54  55
ENDBRANCH   5  54
TORSDOF 14
ENDMDL
