MODEL 1
REMARK VINA RESULT: -6.372752330      0.000      0.000
REMARK  3 active torsions:
REMARK  status: ('A' for Active; 'I' for Inactive)
REMARK    1  A    between atoms: N1_1  and  N2_4 
REMARK    2  A    between atoms: N3_6  and  C1_8 
REMARK    3  A    between atoms: C5_13  and  O1_14 
ROOT
HETATM    1  C1  UNL     1      29.172 -29.499   0.282  1.00  0.00     0.204 C 
HETATM    2  C2  UNL     1      28.900 -30.481   1.402  1.00  0.00    -0.046 C 
HETATM    3  C3  UNL     1      28.128 -31.696   0.953  1.00  0.00     0.056 C 
HETATM    4  C4  UNL     1      28.506 -32.085  -0.446  1.00  0.00     0.129 C 
HETATM    5  N4  UNL     1      29.818 -31.549  -0.699  1.00  0.00    -0.358 N 
HETATM    6  C5  UNL     1      29.668 -30.208  -0.990  1.00  0.00     0.143 C 
HETATM    7  C6  UNL     1      30.922 -32.323  -0.558  1.00  0.00     0.091 C 
HETATM    8  C7  UNL     1      30.604 -33.414   0.504  1.00  0.00     0.030 C 
HETATM    9  C8  UNL     1      31.019 -32.956   1.867  1.00  0.00     0.036 C 
HETATM   10  C9  UNL     1      31.205 -31.474   2.039  1.00  0.00    -0.073 C 
HETATM   11  C10 UNL     1      29.992 -30.708   2.340  1.00  0.00     0.009 C 
HETATM   12  C11 UNL     1      32.162 -30.875   1.061  1.00  0.00     0.046 C 
HETATM   13  C12 UNL     1      33.634 -30.977   1.490  1.00  0.00     0.160 C 
HETATM   14 CL1  UNL     1      34.138 -29.601   2.447  1.00  0.00    -0.116 Cl
HETATM   15  C13 UNL     1      34.322 -31.066   0.171  1.00  0.00     0.146 C 
HETATM   16  O2  UNL     1      35.516 -30.948  -0.002  1.00  0.00    -0.296 OA
HETATM   17  C14 UNL     1      33.297 -31.326  -0.929  1.00  0.00     0.087 C 
HETATM   18  C15 UNL     1      32.218 -31.853  -0.101  1.00  0.00     0.025 C 
ENDROOT
BRANCH   1  19
HETATM   19  N3  UNL     1      27.986 -28.685  -0.009  1.00  0.00    -0.306 N 
HETATM   20  N2  UNL     1      27.421 -28.787  -1.108  1.00  0.00    -0.253 N 
ATOM     21  H2  UNL     1      28.137 -28.462  -1.759  1.00  0.00     0.207 HD
ATOM     22  H3  UNL     1      27.627 -28.037   0.693  1.00  0.00     0.183 HD
BRANCH  20  23
HETATM   23  N1  UNL     1      26.477 -29.062  -1.858  1.00  0.00    -0.331 N 
ATOM     24  H12 UNL     1      25.741 -29.224  -1.170  1.00  0.00     0.178 HD
ATOM     25  H11 UNL     1      26.034 -29.214  -2.765  1.00  0.00     0.178 HD
ENDBRANCH  20  23
ENDBRANCH   1  19
BRANCH   6  26
HETATM   26  O1  UNL     1      30.570 -29.484  -1.681  1.00  0.00    -0.348 OA
ATOM     27  H1  UNL     1      30.174 -28.934  -2.347  1.00  0.00     0.219 HD
ENDBRANCH   6  26
TORSDOF 3
ENDMDL
MODEL 2
REMARK VINA RESULT: -5.664028238      3.611      5.591
REMARK  3 active torsions:
REMARK  status: ('A' for Active; 'I' for Inactive)
REMARK    1  A    between atoms: N1_1  and  N2_4 
REMARK    2  A    between atoms: N3_6  and  C1_8 
REMARK    3  A    between atoms: C5_13  and  O1_14 
ROOT
HETATM    1  C1  UNL     1      34.423 -31.621   1.709  1.00  0.00     0.204 C 
HETATM    2  C2  UNL     1      34.251 -31.400   3.198  1.00  0.00    -0.046 C 
HETATM    3  C3  UNL     1      33.676 -30.047   3.535  1.00  0.00     0.056 C 
HETATM    4  C4  UNL     1      32.694 -29.607   2.491  1.00  0.00     0.129 C 
HETATM    5  N4  UNL     1      32.214 -30.790   1.828  1.00  0.00    -0.358 N 
HETATM    6  C5  UNL     1      33.180 -31.176   0.920  1.00  0.00     0.143 C 
HETATM    7  C6  UNL     1      31.040 -31.362   2.193  1.00  0.00     0.091 C 
HETATM    8  C7  UNL     1      30.797 -31.032   3.693  1.00  0.00     0.030 C 
HETATM    9  C8  UNL     1      31.345 -32.118   4.564  1.00  0.00     0.036 C 
HETATM   10  C9  UNL     1      32.370 -33.019   3.935  1.00  0.00    -0.073 C 
HETATM   11  C10 UNL     1      33.753 -32.534   3.965  1.00  0.00     0.009 C 
HETATM   12  C11 UNL     1      31.903 -33.661   2.669  1.00  0.00     0.046 C 
HETATM   13  C12 UNL     1      31.095 -34.950   2.889  1.00  0.00     0.160 C 
HETATM   14 CL1  UNL     1      32.120 -36.369   2.937  1.00  0.00    -0.116 Cl
HETATM   15  C13 UNL     1      30.173 -34.925   1.718  1.00  0.00     0.146 C 
HETATM   16  O2  UNL     1      29.487 -35.855   1.351  1.00  0.00    -0.296 OA
HETATM   17  C14 UNL     1      30.222 -33.554   1.052  1.00  0.00     0.087 C 
HETATM   18  C15 UNL     1      30.764 -32.788   2.169  1.00  0.00     0.025 C 
ENDROOT
BRANCH   1  19
HETATM   19  N3  UNL     1      35.624 -30.942   1.208  1.00  0.00    -0.306 N 
HETATM   20  N2  UNL     1      35.886 -30.966  -0.004  1.00  0.00    -0.253 N 
ATOM     21  H2  UNL     1      36.044 -31.958  -0.180  1.00  0.00     0.207 HD
ATOM     22  H3  UNL     1      36.242 -30.453   1.856  1.00  0.00     0.183 HD
BRANCH  20  23
HETATM   23  N1  UNL     1      36.063 -30.460  -1.119  1.00  0.00    -0.331 N 
ATOM     24  H12 UNL     1      37.079 -30.530  -1.190  1.00  0.00     0.178 HD
ATOM     25  H11 UNL     1      35.763 -30.021  -1.990  1.00  0.00     0.178 HD
ENDBRANCH  20  23
ENDBRANCH   1  19
BRANCH   6  26
HETATM   26  O1  UNL     1      32.933 -31.947  -0.157  1.00  0.00    -0.348 OA
ATOM     27  H1  UNL     1      33.594 -32.615  -0.295  1.00  0.00     0.219 HD
ENDBRANCH   6  26
TORSDOF 3
ENDMDL
MODEL 3
REMARK VINA RESULT: -5.595369194      3.492      5.363
REMARK  3 active torsions:
REMARK  status: ('A' for Active; 'I' for Inactive)
REMARK    1  A    between atoms: N1_1  and  N2_4 
REMARK    2  A    between atoms: N3_6  and  C1_8 
REMARK    3  A    between atoms: C5_13  and  O1_14 
ROOT
HETATM    1  C1  UNL     1      33.351 -31.726   0.419  1.00  0.00     0.204 C 
HETATM    2  C2  UNL     1      33.646 -31.345   1.855  1.00  0.00    -0.046 C 
HETATM    3  C3  UNL     1      33.057 -30.015   2.250  1.00  0.00     0.056 C 
HETATM    4  C4  UNL     1      31.744 -29.784   1.562  1.00  0.00     0.129 C 
HETATM    5  N4  UNL     1      31.218 -31.073   1.200  1.00  0.00    -0.358 N 
HETATM    6  C5  UNL     1      31.876 -31.482   0.058  1.00  0.00     0.143 C 
HETATM    7  C6  UNL     1      30.302 -31.694   1.984  1.00  0.00     0.091 C 
HETATM    8  C7  UNL     1      30.522 -31.210   3.446  1.00  0.00     0.030 C 
HETATM    9  C8  UNL     1      31.447 -32.135   4.171  1.00  0.00     0.036 C 
HETATM   10  C9  UNL     1      32.311 -33.016   3.313  1.00  0.00    -0.073 C 
HETATM   11  C10 UNL     1      33.562 -32.418   2.837  1.00  0.00     0.009 C 
HETATM   12  C11 UNL     1      31.537 -33.840   2.336  1.00  0.00     0.046 C 
HETATM   13  C12 UNL     1      31.002 -35.157   2.921  1.00  0.00     0.160 C 
HETATM   14 CL1  UNL     1      32.146 -36.470   2.743  1.00  0.00    -0.116 Cl
HETATM   15  C13 UNL     1      29.754 -35.348   2.129  1.00  0.00     0.146 C 
HETATM   16  O2  UNL     1      29.100 -36.368   2.093  1.00  0.00    -0.296 OA
HETATM   17  C14 UNL     1      29.422 -34.066   1.372  1.00  0.00     0.087 C 
HETATM   18  C15 UNL     1      30.203 -33.130   2.174  1.00  0.00     0.025 C 
ENDROOT
BRANCH   1  19
HETATM   19  N3  UNL     1      34.236 -31.014  -0.511  1.00  0.00    -0.306 N 
HETATM   20  N2  UNL     1      35.398 -30.742  -0.172  1.00  0.00    -0.253 N 
ATOM     21  H2  UNL     1      35.259 -30.102   0.611  1.00  0.00     0.207 HD
ATOM     22  H3  UNL     1      33.896 -30.744  -1.434  1.00  0.00     0.183 HD
BRANCH  20  23
HETATM   23  N1  UNL     1      36.630 -30.813  -0.250  1.00  0.00    -0.331 N 
ATOM     24  H12 UNL     1      36.771 -30.455  -1.196  1.00  0.00     0.178 HD
ATOM     25  H11 UNL     1      37.565 -31.025   0.099  1.00  0.00     0.178 HD
ENDBRANCH  20  23
ENDBRANCH   1  19
BRANCH   6  26
HETATM   26  O1  UNL     1      31.385 -32.394  -0.806  1.00  0.00    -0.348 OA
ATOM     27  H1  UNL     1      30.737 -32.966  -0.414  1.00  0.00     0.219 HD
ENDBRANCH   6  26
TORSDOF 3
ENDMDL
MODEL 4
REMARK VINA RESULT: -5.444528703      4.248      6.264
REMARK  3 active torsions:
REMARK  status: ('A' for Active; 'I' for Inactive)
REMARK    1  A    between atoms: N1_1  and  N2_4 
REMARK    2  A    between atoms: N3_6  and  C1_8 
REMARK    3  A    between atoms: C5_13  and  O1_14 
ROOT
HETATM    1  C1  UNL     1      31.405 -36.370   2.571  1.00  0.00     0.204 C 
HETATM    2  C2  UNL     1      29.944 -36.031   2.361  1.00  0.00    -0.046 C 
HETATM    3  C3  UNL     1      29.155 -35.981   3.646  1.00  0.00     0.056 C 
HETATM    4  C4  UNL     1      29.996 -35.456   4.771  1.00  0.00     0.129 C 
HETATM    5  N4  UNL     1      31.058 -34.681   4.187  1.00  0.00    -0.358 N 
HETATM    6  C5  UNL     1      32.015 -35.566   3.732  1.00  0.00     0.143 C 
HETATM    7  C6  UNL     1      30.962 -33.332   4.093  1.00  0.00     0.091 C 
HETATM    8  C7  UNL     1      29.452 -32.969   4.003  1.00  0.00     0.030 C 
HETATM    9  C8  UNL     1      29.019 -32.880   2.573  1.00  0.00     0.036 C 
HETATM   10  C9  UNL     1      29.902 -33.567   1.569  1.00  0.00    -0.073 C 
HETATM   11  C10 UNL     1      29.656 -34.999   1.374  1.00  0.00     0.009 C 
HETATM   12  C11 UNL     1      31.327 -33.124   1.628  1.00  0.00     0.046 C 
HETATM   13  C12 UNL     1      31.616 -31.850   0.816  1.00  0.00     0.160 C 
HETATM   14 CL1  UNL     1      32.056 -32.210  -0.839  1.00  0.00    -0.116 Cl
HETATM   15  C13 UNL     1      32.724 -31.241   1.605  1.00  0.00     0.146 C 
HETATM   16  O2  UNL     1      33.424 -30.325   1.230  1.00  0.00    -0.296 OA
HETATM   17  C14 UNL     1      32.845 -31.943   2.954  1.00  0.00     0.087 C 
HETATM   18  C15 UNL     1      31.510 -32.529   3.015  1.00  0.00     0.025 C 
ENDROOT
BRANCH   1  19
HETATM   19  N3  UNL     1      31.589 -37.810   2.786  1.00  0.00    -0.306 N 
HETATM   20  N2  UNL     1      32.692 -38.332   2.561  1.00  0.00    -0.253 N 
ATOM     21  H2  UNL     1      32.805 -38.193   1.557  1.00  0.00     0.207 HD
ATOM     22  H3  UNL     1      30.812 -38.381   3.119  1.00  0.00     0.183 HD
BRANCH  20  23
HETATM   23  N1  UNL     1      33.731 -38.926   2.873  1.00  0.00    -0.331 N 
ATOM     24  H12 UNL     1      33.591 -39.807   2.377  1.00  0.00     0.178 HD
ATOM     25  H11 UNL     1      34.633 -39.022   3.340  1.00  0.00     0.178 HD
ENDBRANCH  20  23
ENDBRANCH   1  19
BRANCH   6  26
HETATM   26  O1  UNL     1      33.305 -35.237   3.527  1.00  0.00    -0.348 OA
ATOM     27  H1  UNL     1      33.590 -35.389   2.633  1.00  0.00     0.219 HD
ENDBRANCH   6  26
TORSDOF 3
ENDMDL
MODEL 5
REMARK VINA RESULT: -5.427552694      2.755      4.307
REMARK  3 active torsions:
REMARK  status: ('A' for Active; 'I' for Inactive)
REMARK    1  A    between atoms: N1_1  and  N2_4 
REMARK    2  A    between atoms: N3_6  and  C1_8 
REMARK    3  A    between atoms: C5_13  and  O1_14 
ROOT
HETATM    1  C1  UNL     1      30.293 -33.786   1.345  1.00  0.00     0.204 C 
HETATM    2  C2  UNL     1      30.147 -33.181  -0.035  1.00  0.00    -0.046 C 
HETATM    3  C3  UNL     1      28.815 -32.506  -0.250  1.00  0.00     0.056 C 
HETATM    4  C4  UNL     1      28.329 -31.865   1.016  1.00  0.00     0.129 C 
HETATM    5  N4  UNL     1      29.480 -31.624   1.845  1.00  0.00    -0.358 N 
HETATM    6  C5  UNL     1      29.816 -32.822   2.444  1.00  0.00     0.143 C 
HETATM    7  C6  UNL     1      30.076 -30.407   1.868  1.00  0.00     0.091 C 
HETATM    8  C7  UNL     1      29.822 -29.727   0.492  1.00  0.00     0.030 C 
HETATM    9  C8  UNL     1      30.947 -30.016  -0.451  1.00  0.00     0.036 C 
HETATM   10  C9  UNL     1      31.810 -31.199  -0.111  1.00  0.00    -0.073 C 
HETATM   11  C10 UNL     1      31.320 -32.502  -0.569  1.00  0.00     0.009 C 
HETATM   12  C11 UNL     1      32.391 -31.136   1.264  1.00  0.00     0.046 C 
HETATM   13  C12 UNL     1      33.694 -30.325   1.352  1.00  0.00     0.160 C 
HETATM   14 CL1  UNL     1      35.108 -31.318   1.069  1.00  0.00    -0.116 Cl
HETATM   15  C13 UNL     1      33.616 -29.787   2.739  1.00  0.00     0.146 C 
HETATM   16  O2  UNL     1      34.530 -29.258   3.334  1.00  0.00    -0.296 OA
HETATM   17  C14 UNL     1      32.213 -30.003   3.298  1.00  0.00     0.087 C 
HETATM   18  C15 UNL     1      31.501 -30.178   2.038  1.00  0.00     0.025 C 
ENDROOT
BRANCH   1  19
HETATM   19  N3  UNL     1      29.584 -35.069   1.439  1.00  0.00    -0.306 N 
HETATM   20  N2  UNL     1      29.407 -35.597   2.547  1.00  0.00    -0.253 N 
ATOM     21  H2  UNL     1      30.360 -35.793   2.857  1.00  0.00     0.207 HD
ATOM     22  H3  UNL     1      29.238 -35.524   0.594  1.00  0.00     0.183 HD
BRANCH  20  23
HETATM   23  N1  UNL     1      28.723 -36.019   3.488  1.00  0.00    -0.331 N 
ATOM     24  H12 UNL     1      28.617 -36.995   3.209  1.00  0.00     0.178 HD
ATOM     25  H11 UNL     1      28.217 -35.935   4.370  1.00  0.00     0.178 HD
ENDBRANCH  20  23
ENDBRANCH   1  19
BRANCH   6  26
HETATM   26  O1  UNL     1      30.534 -32.918   3.580  1.00  0.00    -0.348 OA
ATOM     27  H1  UNL     1      30.074 -32.583   4.341  1.00  0.00     0.219 HD
ENDBRANCH   6  26
TORSDOF 3
ENDMDL
