MODEL 1
REMARK VINA RESULT: -5.219068403      0.000      0.000
REMARK  4 active torsions:
REMARK  status: ('A' for Active; 'I' for Inactive)
REMARK    1  A    between atoms: N1_2  and  C4_5 
REMARK    2  A    between atoms: C4_5  and  C5_6 
REMARK    3  A    between atoms: C5_6  and  N2_7 
REMARK    4  A    between atoms: N2_7  and  C6_9 
ROOT
HETATM    1  N2  UNL     1      35.468  53.775  19.388  1.00  0.00    -0.400 N 
ATOM      2  H2  UNL     1      35.272  54.643  19.887  1.00  0.00     0.155 HD
ENDROOT
BRANCH   1   3
HETATM    3  C5  UNL     1      35.096  52.497  19.932  1.00  0.00     0.144 C 
BRANCH   3   4
HETATM    4  C4  UNL     1      34.941  51.438  18.909  1.00  0.00     0.255 C 
BRANCH   4   5
HETATM    5  N1  UNL     1      34.276  50.229  19.235  1.00  0.00    -0.077 N 
HETATM    6  C1  UNL     1      34.837  49.568  20.396  1.00  0.00     0.271 C 
HETATM    7  C2  UNL     1      32.938  50.682  19.721  1.00  0.00     0.271 C 
HETATM    8  C3  UNL     1      33.966  49.361  18.148  1.00  0.00     0.271 C 
ENDBRANCH   4   5
ENDBRANCH   3   4
ENDBRANCH   1   3
BRANCH   1   9
HETATM    9  C6  UNL     1      36.111  53.778  18.143  1.00  0.00     0.179 C 
HETATM   10  C7  UNL     1      37.559  54.187  18.171  1.00  0.00     0.074 C 
HETATM   11  C8  UNL     1      37.814  54.324  16.711  1.00  0.00    -0.006 C 
HETATM   12  C9  UNL     1      36.654  54.550  16.090  1.00  0.00     0.081 C 
HETATM   13  N3  UNL     1      35.594  54.574  17.082  1.00  0.00    -0.378 N 
ATOM     14  H3  UNL     1      34.692  55.050  17.032  1.00  0.00     0.161 HD
ENDBRANCH   1   9
TORSDOF 4
ENDMDL
MODEL 2
REMARK VINA RESULT: -5.200315560      0.950      1.040
REMARK  4 active torsions:
REMARK  status: ('A' for Active; 'I' for Inactive)
REMARK    1  A    between atoms: N1_2  and  C4_5 
REMARK    2  A    between atoms: C4_5  and  C5_6 
REMARK    3  A    between atoms: C5_6  and  N2_7 
REMARK    4  A    between atoms: N2_7  and  C6_9 
ROOT
HETATM    1  N2  UNL     1      35.559  53.764  19.550  1.00  0.00    -0.400 N 
ATOM      2  H2  UNL     1      35.659  54.584  20.147  1.00  0.00     0.155 HD
ENDROOT
BRANCH   1   3
HETATM    3  C5  UNL     1      34.804  52.615  19.974  1.00  0.00     0.144 C 
BRANCH   3   4
HETATM    4  C4  UNL     1      35.643  51.439  20.299  1.00  0.00     0.255 C 
BRANCH   4   5
HETATM    5  N1  UNL     1      35.043  50.168  20.482  1.00  0.00    -0.077 N 
HETATM    6  C1  UNL     1      35.934  49.203  21.094  1.00  0.00     0.271 C 
HETATM    7  C2  UNL     1      34.026  50.409  21.549  1.00  0.00     0.271 C 
HETATM    8  C3  UNL     1      34.278  49.663  19.391  1.00  0.00     0.271 C 
ENDBRANCH   4   5
ENDBRANCH   3   4
ENDBRANCH   1   3
BRANCH   1   9
HETATM    9  C6  UNL     1      36.153  53.707  18.282  1.00  0.00     0.179 C 
HETATM   10  C7  UNL     1      37.592  54.145  18.228  1.00  0.00     0.074 C 
HETATM   11  C8  UNL     1      37.786  54.202  16.754  1.00  0.00    -0.006 C 
HETATM   12  C9  UNL     1      36.598  54.371  16.169  1.00  0.00     0.081 C 
HETATM   13  N3  UNL     1      35.578  54.431  17.200  1.00  0.00    -0.378 N 
ATOM     14  H3  UNL     1      34.665  54.885  17.159  1.00  0.00     0.161 HD
ENDBRANCH   1   9
TORSDOF 4
ENDMDL
MODEL 3
REMARK VINA RESULT: -5.193757455      0.990      1.422
REMARK  4 active torsions:
REMARK  status: ('A' for Active; 'I' for Inactive)
REMARK    1  A    between atoms: N1_2  and  C4_5 
REMARK    2  A    between atoms: C4_5  and  C5_6 
REMARK    3  A    between atoms: C5_6  and  N2_7 
REMARK    4  A    between atoms: N2_7  and  C6_9 
ROOT
HETATM    1  N2  UNL     1      35.508  53.738  19.562  1.00  0.00    -0.400 N 
ATOM      2  H2  UNL     1      35.602  54.553  20.168  1.00  0.00     0.155 HD
ENDROOT
BRANCH   1   3
HETATM    3  C5  UNL     1      34.764  52.578  19.974  1.00  0.00     0.144 C 
BRANCH   3   4
HETATM    4  C4  UNL     1      35.618  51.422  20.335  1.00  0.00     0.255 C 
BRANCH   4   5
HETATM    5  N1  UNL     1      35.024  50.203  20.746  1.00  0.00    -0.077 N 
HETATM    6  C1  UNL     1      33.921  50.392  21.667  1.00  0.00     0.271 C 
HETATM    7  C2  UNL     1      34.348  49.706  19.511  1.00  0.00     0.271 C 
HETATM    8  C3  UNL     1      35.915  49.147  21.094  1.00  0.00     0.271 C 
ENDBRANCH   4   5
ENDBRANCH   3   4
ENDBRANCH   1   3
BRANCH   1   9
HETATM    9  C6  UNL     1      36.098  53.702  18.292  1.00  0.00     0.179 C 
HETATM   10  C7  UNL     1      37.543  54.123  18.245  1.00  0.00     0.074 C 
HETATM   11  C8  UNL     1      37.735  54.210  16.772  1.00  0.00    -0.006 C 
HETATM   12  C9  UNL     1      36.549  54.405  16.193  1.00  0.00     0.081 C 
HETATM   13  N3  UNL     1      35.531  54.456  17.227  1.00  0.00    -0.378 N 
ATOM     14  H3  UNL     1      34.623  54.922  17.197  1.00  0.00     0.161 HD
ENDBRANCH   1   9
TORSDOF 4
ENDMDL
MODEL 4
REMARK VINA RESULT: -5.138842962      0.971      1.542
REMARK  4 active torsions:
REMARK  status: ('A' for Active; 'I' for Inactive)
REMARK    1  A    between atoms: N1_2  and  C4_5 
REMARK    2  A    between atoms: C4_5  and  C5_6 
REMARK    3  A    between atoms: C5_6  and  N2_7 
REMARK    4  A    between atoms: N2_7  and  C6_9 
ROOT
HETATM    1  N2  UNL     1      35.230  53.764  18.741  1.00  0.00    -0.400 N 
ATOM      2  H2  UNL     1      34.329  54.240  18.786  1.00  0.00     0.155 HD
ENDROOT
BRANCH   1   3
HETATM    3  C5  UNL     1      35.607  52.778  19.718  1.00  0.00     0.144 C 
BRANCH   3   4
HETATM    4  C4  UNL     1      35.205  51.399  19.357  1.00  0.00     0.255 C 
BRANCH   4   5
HETATM    5  N1  UNL     1      34.692  50.528  20.350  1.00  0.00    -0.077 N 
HETATM    6  C1  UNL     1      34.445  49.188  19.855  1.00  0.00     0.271 C 
HETATM    7  C2  UNL     1      35.845  50.334  21.279  1.00  0.00     0.271 C 
HETATM    8  C3  UNL     1      33.665  51.051  21.187  1.00  0.00     0.271 C 
ENDBRANCH   4   5
ENDBRANCH   3   4
ENDBRANCH   1   3
BRANCH   1   9
HETATM    9  C6  UNL     1      36.153  54.043  17.724  1.00  0.00     0.179 C 
HETATM   10  C7  UNL     1      37.583  54.173  18.175  1.00  0.00     0.074 C 
HETATM   11  C8  UNL     1      38.196  54.709  16.929  1.00  0.00    -0.006 C 
HETATM   12  C9  UNL     1      37.247  55.308  16.206  1.00  0.00     0.081 C 
HETATM   13  N3  UNL     1      35.986  55.202  16.916  1.00  0.00    -0.378 N 
ATOM     14  H3  UNL     1      35.172  55.815  16.852  1.00  0.00     0.161 HD
ENDBRANCH   1   9
TORSDOF 4
ENDMDL
MODEL 5
REMARK VINA RESULT: -5.136570927      1.112      1.189
REMARK  4 active torsions:
REMARK  status: ('A' for Active; 'I' for Inactive)
REMARK    1  A    between atoms: N1_2  and  C4_5 
REMARK    2  A    between atoms: C4_5  and  C5_6 
REMARK    3  A    between atoms: C5_6  and  N2_7 
REMARK    4  A    between atoms: N2_7  and  C6_9 
ROOT
HETATM    1  N2  UNL     1      34.868  53.685  17.484  1.00  0.00    -0.400 N 
ATOM      2  H2  UNL     1      33.929  53.843  17.119  1.00  0.00     0.155 HD
ENDROOT
BRANCH   1   3
HETATM    3  C5  UNL     1      35.111  52.753  18.552  1.00  0.00     0.144 C 
BRANCH   3   4
HETATM    4  C4  UNL     1      34.589  51.393  18.283  1.00  0.00     0.255 C 
BRANCH   4   5
HETATM    5  N1  UNL     1      34.403  50.481  19.351  1.00  0.00    -0.077 N 
HETATM    6  C1  UNL     1      35.351  50.672  20.431  1.00  0.00     0.271 C 
HETATM    7  C2  UNL     1      33.109  50.911  19.961  1.00  0.00     0.271 C 
HETATM    8  C3  UNL     1      34.174  49.121  18.993  1.00  0.00     0.271 C 
ENDBRANCH   4   5
ENDBRANCH   3   4
ENDBRANCH   1   3
BRANCH   1   9
HETATM    9  C6  UNL     1      35.976  54.369  16.966  1.00  0.00     0.179 C 
HETATM   10  C7  UNL     1      37.216  54.315  17.818  1.00  0.00     0.074 C 
HETATM   11  C8  UNL     1      38.054  55.323  17.114  1.00  0.00    -0.006 C 
HETATM   12  C9  UNL     1      37.253  56.159  16.448  1.00  0.00     0.081 C 
HETATM   13  N3  UNL     1      35.876  55.757  16.670  1.00  0.00    -0.378 N 
ATOM     14  H3  UNL     1      35.035  56.333  16.625  1.00  0.00     0.161 HD
ENDBRANCH   1   9
TORSDOF 4
ENDMDL
