MODEL 1
REMARK VINA RESULT: -3.864067844      0.000      0.000
REMARK  1 active torsions:
REMARK  status: ('A' for Active; 'I' for Inactive)
REMARK    1  A    between atoms: N1_2  and  C2_4 
ROOT
HETATM    1  C2  UNL     1      -4.526   1.154  15.447  1.00  0.00     0.709 A 
HETATM    2  N2  UNL     1      -4.151   2.420  15.663  1.00  0.00    -0.115 N 
ATOM      3  H2  UNL     1      -4.104   2.878  16.573  1.00  0.00     0.207 HD
HETATM    4  N3  UNL     1      -3.853   2.982  14.507  1.00  0.00    -0.213 N 
ATOM      5  H3  UNL     1      -3.538   3.942  14.373  1.00  0.00     0.210 HD
HETATM    6  N4  UNL     1      -4.034   2.086  13.555  1.00  0.00    -0.213 N 
ATOM      7  H4  UNL     1      -3.883   2.231  12.556  1.00  0.00     0.210 HD
HETATM    8  N5  UNL     1      -4.443   0.972  14.120  1.00  0.00    -0.115 N 
ATOM      9  H5  UNL     1      -4.663   0.107  13.629  1.00  0.00     0.207 HD
ENDROOT
BRANCH   1  10
HETATM   10  N1  UNL     1      -4.888   0.311  16.367  1.00  0.00    -0.228 N 
HETATM   11  C1  UNL     1      -5.905   0.583  17.330  1.00  0.00     0.165 C 
ATOM     12  H1  UNL     1      -4.419  -0.594  16.402  1.00  0.00     0.177 HD
ENDBRANCH   1  10
TORSDOF 1
ENDMDL
MODEL 2
REMARK VINA RESULT: -3.835901659      0.038      1.342
REMARK  1 active torsions:
REMARK  status: ('A' for Active; 'I' for Inactive)
REMARK    1  A    between atoms: N1_2  and  C2_4 
ROOT
HETATM    1  C2  UNL     1      -4.531   1.188  15.475  1.00  0.00     0.709 A 
HETATM    2  N2  UNL     1      -4.450   0.955  14.160  1.00  0.00    -0.115 N 
ATOM      3  H2  UNL     1      -4.672   0.073  13.699  1.00  0.00     0.207 HD
HETATM    4  N3  UNL     1      -4.035   2.052  13.556  1.00  0.00    -0.213 N 
ATOM      5  H3  UNL     1      -3.884   2.161  12.553  1.00  0.00     0.210 HD
HETATM    6  N4  UNL     1      -3.851   2.983  14.473  1.00  0.00    -0.213 N 
ATOM      7  H4  UNL     1      -3.533   3.938  14.304  1.00  0.00     0.210 HD
HETATM    8  N5  UNL     1      -4.151   2.464  15.642  1.00  0.00    -0.115 N 
ATOM      9  H5  UNL     1      -4.102   2.953  16.535  1.00  0.00     0.207 HD
ENDROOT
BRANCH   1  10
HETATM   10  N1  UNL     1      -4.906   0.323  16.369  1.00  0.00    -0.228 N 
HETATM   11  C1  UNL     1      -5.900   0.590  17.357  1.00  0.00     0.165 C 
ATOM     12  H1  UNL     1      -4.466  -0.597  16.363  1.00  0.00     0.177 HD
ENDBRANCH   1  10
TORSDOF 1
ENDMDL
MODEL 3
REMARK VINA RESULT: -3.835782344      1.603      3.298
REMARK  1 active torsions:
REMARK  status: ('A' for Active; 'I' for Inactive)
REMARK    1  A    between atoms: N1_2  and  C2_4 
ROOT
HETATM    1  C2  UNL     1      -5.073   1.514  15.900  1.00  0.00     0.709 A 
HETATM    2  N2  UNL     1      -6.221   1.960  16.424  1.00  0.00    -0.115 N 
ATOM      3  H2  UNL     1      -6.697   2.823  16.161  1.00  0.00     0.207 HD
HETATM    4  N3  UNL     1      -6.637   1.103  17.335  1.00  0.00    -0.213 N 
ATOM      5  H3  UNL     1      -7.486   1.189  17.895  1.00  0.00     0.210 HD
HETATM    6  N4  UNL     1      -5.765   0.113  17.399  1.00  0.00    -0.213 N 
ATOM      7  H4  UNL     1      -5.822  -0.698  18.015  1.00  0.00     0.210 HD
HETATM    8  N5  UNL     1      -4.812   0.358  16.529  1.00  0.00    -0.115 N 
ATOM      9  H5  UNL     1      -4.001  -0.237  16.359  1.00  0.00     0.207 HD
ENDROOT
BRANCH   1  10
HETATM   10  N1  UNL     1      -4.387   2.114  14.975  1.00  0.00    -0.228 N 
HETATM   11  C1  UNL     1      -4.951   3.048  14.054  1.00  0.00     0.165 C 
ATOM     12  H1  UNL     1      -3.391   1.906  14.901  1.00  0.00     0.177 HD
ENDBRANCH   1  10
TORSDOF 1
ENDMDL
MODEL 4
REMARK VINA RESULT: -3.835766992      1.617      3.415
REMARK  1 active torsions:
REMARK  status: ('A' for Active; 'I' for Inactive)
REMARK    1  A    between atoms: N1_2  and  C2_4 
ROOT
HETATM    1  C2  UNL     1      -5.114   1.522  15.918  1.00  0.00     0.709 A 
HETATM    2  N2  UNL     1      -4.828   0.378  16.552  1.00  0.00    -0.115 N 
ATOM      3  H2  UNL     1      -4.009  -0.206  16.381  1.00  0.00     0.207 HD
HETATM    4  N3  UNL     1      -5.776   0.129  17.435  1.00  0.00    -0.213 N 
ATOM      5  H3  UNL     1      -5.815  -0.676  18.059  1.00  0.00     0.210 HD
HETATM    6  N4  UNL     1      -6.665   1.103  17.370  1.00  0.00    -0.213 N 
ATOM      7  H4  UNL     1      -7.511   1.182  17.935  1.00  0.00     0.210 HD
HETATM    8  N5  UNL     1      -6.268   1.952  16.449  1.00  0.00    -0.115 N 
ATOM      9  H5  UNL     1      -6.759   2.804  16.181  1.00  0.00     0.207 HD
ENDROOT
BRANCH   1  10
HETATM   10  N1  UNL     1      -4.391   2.063  14.985  1.00  0.00    -0.228 N 
HETATM   11  C1  UNL     1      -4.896   3.013  14.046  1.00  0.00     0.165 C 
ATOM     12  H1  UNL     1      -3.409   1.795  14.919  1.00  0.00     0.177 HD
ENDBRANCH   1  10
TORSDOF 1
ENDMDL
MODEL 5
REMARK VINA RESULT: -3.720560395      3.553      4.462
REMARK  1 active torsions:
REMARK  status: ('A' for Active; 'I' for Inactive)
REMARK    1  A    between atoms: N1_2  and  C2_4 
ROOT
HETATM    1  C2  UNL     1      -3.330   0.089  11.508  1.00  0.00     0.709 A 
HETATM    2  N2  UNL     1      -2.555   1.179  11.557  1.00  0.00    -0.115 N 
ATOM      3  H2  UNL     1      -1.703   1.326  11.015  1.00  0.00     0.207 HD
HETATM    4  N3  UNL     1      -3.071   2.033  12.419  1.00  0.00    -0.213 N 
ATOM      5  H3  UNL     1      -2.689   2.948  12.656  1.00  0.00     0.210 HD
HETATM    6  N4  UNL     1      -4.169   1.499  12.922  1.00  0.00    -0.213 N 
ATOM      7  H4  UNL     1      -4.783   1.927  13.615  1.00  0.00     0.210 HD
HETATM    8  N5  UNL     1      -4.331   0.316  12.371  1.00  0.00    -0.115 N 
ATOM      9  H5  UNL     1      -5.096  -0.327  12.570  1.00  0.00     0.207 HD
ENDROOT
BRANCH   1  10
HETATM   10  N1  UNL     1      -3.115  -0.952  10.761  1.00  0.00    -0.228 N 
HETATM   11  C1  UNL     1      -2.841  -2.253  11.281  1.00  0.00     0.165 C 
ATOM     12  H1  UNL     1      -3.143  -0.833   9.749  1.00  0.00     0.177 HD
ENDBRANCH   1  10
TORSDOF 1
ENDMDL
