MODEL 1
REMARK VINA RESULT: -8.977128617      0.000      0.000
REMARK  14 active torsions:
REMARK  status: ('A' for Active; 'I' for Inactive)
REMARK    1  A    between atoms: C5_5  and  C6_6 
REMARK    2  A    between atoms: C6_6  and  C8_8 
REMARK    3  A    between atoms: C8_8  and  C9_9 
REMARK    4  A    between atoms: C15_16  and  O2_17 
REMARK    5  A    between atoms: C16_19  and  C17_20 
REMARK    6  A    between atoms: C17_20  and  C19_22 
REMARK    7  A    between atoms: C21_26  and  O3_27 
REMARK    8  A    between atoms: C22_29  and  N2_30 
REMARK       I    between atoms: N2_30  and  C23_32 
REMARK    9  A    between atoms: C23_32  and  C24_34 
REMARK   10  A    between atoms: C24_34  and  C25_35 
REMARK   11  A    between atoms: C25_35  and  C26_36 
REMARK   12  A    between atoms: C26_36  and  C27_37 
REMARK   13  A    between atoms: C27_37  and  C28_38 
REMARK   14  A    between atoms: C28_38  and  C29_39 
ROOT
HETATM    1  C1  UNL     1      34.413  38.388  54.733  1.00  0.00     0.015 C 
HETATM    2  C2  UNL     1      35.698  38.107  54.568  1.00  0.00    -0.081 C 
HETATM    3  C3  UNL     1      36.697  38.195  55.672  1.00  0.00     0.034 C 
HETATM    4  C4  UNL     1      37.418  39.504  55.531  1.00  0.00     0.012 C 
HETATM    5  C5  UNL     1      38.444  39.758  56.613  1.00  0.00     0.024 C 
HETATM    6  C12 UNL     1      39.725  39.094  56.160  1.00  0.00     0.061 C 
HETATM    7  C13 UNL     1      40.923  39.972  56.550  1.00  0.00     0.046 C 
HETATM    8  C14 UNL     1      39.992  37.801  56.941  1.00  0.00     0.046 C 
HETATM    9  O1  UNL     1      39.805  38.925  54.781  1.00  0.00    -0.349 OA
HETATM   10  C15 UNL     1      40.692  38.847  53.796  1.00  0.00     0.280 C 
HETATM   11  C16 UNL     1      41.040  39.878  52.755  1.00  0.00     0.142 C 
HETATM   12  N1  UNL     1      41.814  39.293  51.659  1.00  0.00    -0.363 N 
ATOM     13  H1  UNL     1      42.439  39.982  51.241  1.00  0.00     0.162 HD
HETATM   14  C21 UNL     1      41.930  38.078  51.039  1.00  0.00     0.135 C 
HETATM   15  C22 UNL     1      41.134  37.214  50.154  1.00  0.00     0.159 C 
HETATM   16  C30 UNL     1      40.498  35.985  50.687  1.00  0.00     0.035 C 
HETATM   17  C31 UNL     1      38.982  36.070  50.832  1.00  0.00     0.022 C 
HETATM   18  C32 UNL     1      38.529  35.842  52.260  1.00  0.00     0.122 C 
HETATM   19  N5  UNL     1      37.143  35.502  52.346  1.00  0.00    -0.361 N 
ATOM     20  H5  UNL     1      36.842  34.654  51.868  1.00  0.00     0.162 HD
HETATM   21  C33 UNL     1      36.145  36.246  53.044  1.00  0.00     0.221 C 
HETATM   22  O5  UNL     1      35.187  35.596  53.579  1.00  0.00    -0.273 OA
HETATM   23  C34 UNL     1      36.133  37.697  53.193  1.00  0.00     0.136 C 
ENDROOT
BRANCH  15  24
HETATM   24  N2  UNL     1      42.011  36.690  49.071  1.00  0.00    -0.349 N 
HETATM   25  C23 UNL     1      41.453  35.991  47.936  1.00  0.00     0.218 C 
HETATM   26  O4  UNL     1      40.232  35.810  47.832  1.00  0.00    -0.274 OA
ATOM     27  H2  UNL     1      43.020  36.827  49.131  1.00  0.00     0.163 HD
BRANCH  25  28
HETATM   28  C24 UNL     1      42.429  35.526  46.928  1.00  0.00     0.103 C 
BRANCH  28  29
HETATM   29  C25 UNL     1      41.789  34.825  45.786  1.00  0.00     0.009 C 
BRANCH  29  30
HETATM   30  C26 UNL     1      42.794  34.489  44.720  1.00  0.00     0.001 C 
BRANCH  30  31
HETATM   31  C27 UNL     1      42.157  33.960  43.443  1.00  0.00     0.007 C 
BRANCH  31  32
HETATM   32  C28 UNL     1      40.661  34.099  43.582  1.00  0.00     0.072 C 
BRANCH  32  33
HETATM   33  C29 UNL     1      39.969  34.236  42.291  1.00  0.00     0.086 C 
HETATM   34  N3  UNL     1      40.178  35.230  41.470  1.00  0.00    -0.391 N 
ATOM     35  H32 UNL     1      40.829  35.946  41.792  1.00  0.00     0.157 HD
ATOM     36  H31 UNL     1      39.698  35.324  40.575  1.00  0.00     0.157 HD
HETATM   37  N4  UNL     1      39.054  33.228  41.839  1.00  0.00    -0.088 NA
ENDBRANCH  32  33
ENDBRANCH  31  32
ENDBRANCH  30  31
ENDBRANCH  29  30
ENDBRANCH  28  29
ENDBRANCH  25  28
ENDBRANCH  15  24
BRANCH  14  38
HETATM   38  O3  UNL     1      43.090  37.484  51.285  1.00  0.00    -0.348 OA
ATOM     39  H3  UNL     1      43.829  37.952  50.915  1.00  0.00     0.219 HD
ENDBRANCH  14  38
BRANCH  11  40
HETATM   40  C17 UNL     1      39.896  40.700  52.260  1.00  0.00     0.009 C 
HETATM   41  C18 UNL     1      40.513  41.455  51.031  1.00  0.00     0.012 C 
BRANCH  40  42
HETATM   42  C19 UNL     1      38.790  39.922  51.609  1.00  0.00     0.002 C 
HETATM   43  C20 UNL     1      37.449  40.553  51.841  1.00  0.00     0.005 C 
ENDBRANCH  40  42
ENDBRANCH  11  40
BRANCH  10  44
HETATM   44  O2  UNL     1      41.429  37.788  53.593  1.00  0.00    -0.369 OA
ATOM     45  H2  UNL     1      42.233  37.812  53.087  1.00  0.00     0.212 HD
ENDBRANCH  10  44
BRANCH   5  46
HETATM   46  C6  UNL     1      37.916  39.364  57.960  1.00  0.00    -0.008 C 
HETATM   47  C7  UNL     1      36.422  39.731  57.988  1.00  0.00     0.011 C 
BRANCH  46  48
HETATM   48  C8  UNL     1      38.470  40.088  59.147  1.00  0.00     0.031 C 
BRANCH  48  49
HETATM   49  C9  UNL     1      38.545  41.547  59.071  1.00  0.00    -0.031 C 
HETATM   50  C10 UNL     1      37.829  42.371  59.846  1.00  0.00    -0.035 C 
HETATM   51  C11 UNL     1      37.928  43.825  59.745  1.00  0.00     0.036 C 
ENDBRANCH  48  49
ENDBRANCH  46  48
ENDBRANCH   5  46
TORSDOF 14
ENDMDL
MODEL 2
REMARK VINA RESULT: -8.924603880      3.960     10.820
REMARK  14 active torsions:
REMARK  status: ('A' for Active; 'I' for Inactive)
REMARK    1  A    between atoms: C5_5  and  C6_6 
REMARK    2  A    between atoms: C6_6  and  C8_8 
REMARK    3  A    between atoms: C8_8  and  C9_9 
REMARK    4  A    between atoms: C15_16  and  O2_17 
REMARK    5  A    between atoms: C16_19  and  C17_20 
REMARK    6  A    between atoms: C17_20  and  C19_22 
REMARK    7  A    between atoms: C21_26  and  O3_27 
REMARK    8  A    between atoms: C22_29  and  N2_30 
REMARK       I    between atoms: N2_30  and  C23_32 
REMARK    9  A    between atoms: C23_32  and  C24_34 
REMARK   10  A    between atoms: C24_34  and  C25_35 
REMARK   11  A    between atoms: C25_35  and  C26_36 
REMARK   12  A    between atoms: C26_36  and  C27_37 
REMARK   13  A    between atoms: C27_37  and  C28_38 
REMARK   14  A    between atoms: C28_38  and  C29_39 
ROOT
HETATM    1  C1  UNL     1      36.328  35.388  52.735  1.00  0.00     0.015 C 
HETATM    2  C2  UNL     1      36.946  36.554  52.857  1.00  0.00    -0.081 C 
HETATM    3  C3  UNL     1      37.981  37.031  51.894  1.00  0.00     0.034 C 
HETATM    4  C4  UNL     1      39.327  36.752  52.498  1.00  0.00     0.012 C 
HETATM    5  C5  UNL     1      40.488  37.147  51.612  1.00  0.00     0.024 C 
HETATM    6  C12 UNL     1      40.759  38.610  51.877  1.00  0.00     0.061 C 
HETATM    7  C13 UNL     1      42.273  38.863  51.860  1.00  0.00     0.046 C 
HETATM    8  C14 UNL     1      40.261  39.491  50.723  1.00  0.00     0.046 C 
HETATM    9  O1  UNL     1      40.312  39.040  53.124  1.00  0.00    -0.349 OA
HETATM   10  C15 UNL     1      40.577  39.937  54.068  1.00  0.00     0.280 C 
HETATM   11  C16 UNL     1      41.232  39.731  55.407  1.00  0.00     0.142 C 
HETATM   12  N1  UNL     1      41.040  40.889  56.281  1.00  0.00    -0.363 N 
ATOM     13  H1  UNL     1      41.816  40.991  56.934  1.00  0.00     0.162 HD
HETATM   14  C21 UNL     1      40.105  41.873  56.465  1.00  0.00     0.135 C 
HETATM   15  C22 UNL     1      38.731  42.005  56.973  1.00  0.00     0.159 C 
HETATM   16  C30 UNL     1      37.606  42.219  56.032  1.00  0.00     0.035 C 
HETATM   17  C31 UNL     1      36.693  41.011  55.851  1.00  0.00     0.022 C 
HETATM   18  C32 UNL     1      36.630  40.550  54.410  1.00  0.00     0.122 C 
HETATM   19  N5  UNL     1      35.494  39.722  54.149  1.00  0.00    -0.361 N 
ATOM     20  H5  UNL     1      34.574  40.133  54.303  1.00  0.00     0.162 HD
HETATM   21  C33 UNL     1      35.535  38.371  53.693  1.00  0.00     0.221 C 
HETATM   22  O5  UNL     1      34.596  37.974  52.927  1.00  0.00    -0.273 OA
HETATM   23  C34 UNL     1      36.571  37.402  54.036  1.00  0.00     0.136 C 
ENDROOT
BRANCH  15  24
HETATM   24  N2  UNL     1      38.654  43.198  57.860  1.00  0.00    -0.349 N 
HETATM   25  C23 UNL     1      37.794  43.206  59.021  1.00  0.00     0.218 C 
HETATM   26  O4  UNL     1      37.100  42.221  59.311  1.00  0.00    -0.274 OA
ATOM     27  H2  UNL     1      39.215  44.021  57.644  1.00  0.00     0.163 HD
BRANCH  25  28
HETATM   28  C24 UNL     1      37.811  44.449  59.821  1.00  0.00     0.103 C 
BRANCH  28  29
HETATM   29  C25 UNL     1      36.562  45.239  59.684  1.00  0.00     0.009 C 
BRANCH  29  30
HETATM   30  C26 UNL     1      36.827  46.570  59.038  1.00  0.00     0.001 C 
BRANCH  30  31
HETATM   31  C27 UNL     1      37.545  46.453  57.700  1.00  0.00     0.007 C 
BRANCH  31  32
HETATM   32  C28 UNL     1      38.488  47.625  57.579  1.00  0.00     0.072 C 
BRANCH  32  33
HETATM   33  C29 UNL     1      39.864  47.229  57.240  1.00  0.00     0.086 C 
HETATM   34  N3  UNL     1      40.884  48.038  57.337  1.00  0.00    -0.391 N 
ATOM     35  H32 UNL     1      40.671  48.994  57.626  1.00  0.00     0.157 HD
ATOM     36  H31 UNL     1      41.837  47.764  57.102  1.00  0.00     0.157 HD
HETATM   37  N4  UNL     1      40.162  45.886  56.834  1.00  0.00    -0.088 NA
ENDBRANCH  32  33
ENDBRANCH  31  32
ENDBRANCH  30  31
ENDBRANCH  29  30
ENDBRANCH  28  29
ENDBRANCH  25  28
ENDBRANCH  15  24
BRANCH  14  38
HETATM   38  O3  UNL     1      40.538  43.070  56.091  1.00  0.00    -0.348 OA
ATOM     39  H3  UNL     1      41.486  43.136  56.090  1.00  0.00     0.219 HD
ENDBRANCH  14  38
BRANCH  11  40
HETATM   40  C17 UNL     1      40.898  38.447  56.094  1.00  0.00     0.009 C 
HETATM   41  C18 UNL     1      41.435  38.678  57.549  1.00  0.00     0.012 C 
BRANCH  40  42
HETATM   42  C19 UNL     1      39.435  38.224  56.346  1.00  0.00     0.002 C 
HETATM   43  C20 UNL     1      39.086  38.386  57.796  1.00  0.00     0.005 C 
ENDBRANCH  40  42
ENDBRANCH  11  40
BRANCH  10  44
HETATM   44  O2  UNL     1      40.281  41.202  53.941  1.00  0.00    -0.369 OA
ATOM     45  H2  UNL     1      39.386  41.518  53.894  1.00  0.00     0.212 HD
ENDBRANCH  10  44
BRANCH   5  46
HETATM   46  C6  UNL     1      40.238  36.752  50.187  1.00  0.00    -0.008 C 
HETATM   47  C7  UNL     1      39.459  35.425  50.214  1.00  0.00     0.011 C 
BRANCH  46  48
HETATM   48  C8  UNL     1      41.436  36.430  49.350  1.00  0.00     0.031 C 
BRANCH  48  49
HETATM   49  C9  UNL     1      41.218  35.645  48.134  1.00  0.00    -0.031 C 
HETATM   50  C10 UNL     1      42.026  35.685  47.067  1.00  0.00    -0.035 C 
HETATM   51  C11 UNL     1      41.779  34.888  45.869  1.00  0.00     0.036 C 
ENDBRANCH  48  49
ENDBRANCH  46  48
ENDBRANCH   5  46
TORSDOF 14
ENDMDL
MODEL 3
REMARK VINA RESULT: -8.796375303      3.982      8.337
REMARK  14 active torsions:
REMARK  status: ('A' for Active; 'I' for Inactive)
REMARK    1  A    between atoms: C5_5  and  C6_6 
REMARK    2  A    between atoms: C6_6  and  C8_8 
REMARK    3  A    between atoms: C8_8  and  C9_9 
REMARK    4  A    between atoms: C15_16  and  O2_17 
REMARK    5  A    between atoms: C16_19  and  C17_20 
REMARK    6  A    between atoms: C17_20  and  C19_22 
REMARK    7  A    between atoms: C21_26  and  O3_27 
REMARK    8  A    between atoms: C22_29  and  N2_30 
REMARK       I    between atoms: N2_30  and  C23_32 
REMARK    9  A    between atoms: C23_32  and  C24_34 
REMARK   10  A    between atoms: C24_34  and  C25_35 
REMARK   11  A    between atoms: C25_35  and  C26_36 
REMARK   12  A    between atoms: C26_36  and  C27_37 
REMARK   13  A    between atoms: C27_37  and  C28_38 
REMARK   14  A    between atoms: C28_38  and  C29_39 
ROOT
HETATM    1  C1  UNL     1      38.610  35.235  49.088  1.00  0.00     0.015 C 
HETATM    2  C2  UNL     1      39.034  36.169  49.928  1.00  0.00    -0.081 C 
HETATM    3  C3  UNL     1      39.121  35.958  51.402  1.00  0.00     0.034 C 
HETATM    4  C4  UNL     1      37.901  36.575  52.023  1.00  0.00     0.012 C 
HETATM    5  C5  UNL     1      37.825  36.405  53.524  1.00  0.00     0.024 C 
HETATM    6  C12 UNL     1      38.613  37.543  54.131  1.00  0.00     0.061 C 
HETATM    7  C13 UNL     1      37.904  38.039  55.399  1.00  0.00     0.046 C 
HETATM    8  C14 UNL     1      39.966  37.063  54.671  1.00  0.00     0.046 C 
HETATM    9  O1  UNL     1      38.722  38.650  53.294  1.00  0.00    -0.349 OA
HETATM   10  C15 UNL     1      38.856  39.971  53.334  1.00  0.00     0.280 C 
HETATM   11  C16 UNL     1      37.824  41.033  53.064  1.00  0.00     0.142 C 
HETATM   12  N1  UNL     1      38.441  42.348  52.885  1.00  0.00    -0.363 N 
ATOM     13  H1  UNL     1      37.812  43.094  53.180  1.00  0.00     0.162 HD
HETATM   14  C21 UNL     1      39.629  42.853  52.429  1.00  0.00     0.135 C 
HETATM   15  C22 UNL     1      40.348  42.996  51.154  1.00  0.00     0.159 C 
HETATM   16  C30 UNL     1      41.516  42.134  50.856  1.00  0.00     0.035 C 
HETATM   17  C31 UNL     1      41.260  41.060  49.804  1.00  0.00     0.022 C 
HETATM   18  C32 UNL     1      41.502  39.664  50.339  1.00  0.00     0.122 C 
HETATM   19  N5  UNL     1      41.679  38.701  49.296  1.00  0.00    -0.361 N 
ATOM     20  H5  UNL     1      42.461  38.846  48.657  1.00  0.00     0.162 HD
HETATM   21  C33 UNL     1      40.858  37.557  49.071  1.00  0.00     0.221 C 
HETATM   22  O5  UNL     1      41.415  36.510  48.601  1.00  0.00    -0.273 OA
HETATM   23  C34 UNL     1      39.424  37.490  49.335  1.00  0.00     0.136 C 
ENDROOT
BRANCH  15  24
HETATM   24  N2  UNL     1      40.917  44.368  51.069  1.00  0.00    -0.349 N 
HETATM   25  C23 UNL     1      41.055  45.038  49.796  1.00  0.00     0.218 C 
HETATM   26  O4  UNL     1      40.702  44.490  48.742  1.00  0.00    -0.274 OA
ATOM     27  H2  UNL     1      41.215  44.843  51.921  1.00  0.00     0.163 HD
BRANCH  25  28
HETATM   28  C24 UNL     1      41.631  46.399  49.848  1.00  0.00     0.103 C 
BRANCH  28  29
HETATM   29  C25 UNL     1      40.845  47.324  50.703  1.00  0.00     0.009 C 
BRANCH  29  30
HETATM   30  C26 UNL     1      39.530  47.673  50.064  1.00  0.00     0.001 C 
BRANCH  30  31
HETATM   31  C27 UNL     1      38.375  47.712  51.055  1.00  0.00     0.007 C 
BRANCH  31  32
HETATM   32  C28 UNL     1      37.865  46.301  51.224  1.00  0.00     0.072 C 
BRANCH  32  33
HETATM   33  C29 UNL     1      37.839  45.859  52.626  1.00  0.00     0.086 C 
HETATM   34  N3  UNL     1      38.775  46.158  53.487  1.00  0.00    -0.391 N 
ATOM     35  H32 UNL     1      39.565  46.690  53.122  1.00  0.00     0.157 HD
ATOM     36  H31 UNL     1      38.756  45.851  54.459  1.00  0.00     0.157 HD
HETATM   37  N4  UNL     1      36.728  45.111  53.139  1.00  0.00    -0.088 NA
ENDBRANCH  32  33
ENDBRANCH  31  32
ENDBRANCH  30  31
ENDBRANCH  29  30
ENDBRANCH  28  29
ENDBRANCH  25  28
ENDBRANCH  15  24
BRANCH  14  38
HETATM   38  O3  UNL     1      40.369  43.380  53.396  1.00  0.00    -0.348 OA
ATOM     39  H3  UNL     1      40.181  44.299  53.544  1.00  0.00     0.219 HD
ENDBRANCH  14  38
BRANCH  11  40
HETATM   40  C17 UNL     1      36.847  40.718  51.978  1.00  0.00     0.009 C 
HETATM   41  C18 UNL     1      35.802  39.800  52.703  1.00  0.00     0.012 C 
BRANCH  40  42
HETATM   42  C19 UNL     1      35.987  41.869  51.545  1.00  0.00     0.002 C 
HETATM   43  C20 UNL     1      34.532  41.505  51.529  1.00  0.00     0.005 C 
ENDBRANCH  40  42
ENDBRANCH  11  40
BRANCH  10  44
HETATM   44  O2  UNL     1      39.983  40.557  53.636  1.00  0.00    -0.369 OA
ATOM     45  H2  UNL     1      40.236  41.399  53.277  1.00  0.00     0.212 HD
ENDBRANCH  10  44
BRANCH   5  46
HETATM   46  C6  UNL     1      38.220  35.016  53.930  1.00  0.00    -0.008 C 
HETATM   47  C7  UNL     1      37.400  34.040  53.068  1.00  0.00     0.011 C 
BRANCH  46  48
HETATM   48  C8  UNL     1      37.893  34.596  55.328  1.00  0.00     0.031 C 
BRANCH  48  49
HETATM   49  C9  UNL     1      36.478  34.476  55.683  1.00  0.00    -0.031 C 
HETATM   50  C10 UNL     1      35.816  35.375  56.422  1.00  0.00    -0.035 C 
HETATM   51  C11 UNL     1      34.403  35.224  56.757  1.00  0.00     0.036 C 
ENDBRANCH  48  49
ENDBRANCH  46  48
ENDBRANCH   5  46
TORSDOF 14
ENDMDL
MODEL 4
REMARK VINA RESULT: -8.722612054      1.414      1.642
REMARK  14 active torsions:
REMARK  status: ('A' for Active; 'I' for Inactive)
REMARK    1  A    between atoms: C5_5  and  C6_6 
REMARK    2  A    between atoms: C6_6  and  C8_8 
REMARK    3  A    between atoms: C8_8  and  C9_9 
REMARK    4  A    between atoms: C15_16  and  O2_17 
REMARK    5  A    between atoms: C16_19  and  C17_20 
REMARK    6  A    between atoms: C17_20  and  C19_22 
REMARK    7  A    between atoms: C21_26  and  O3_27 
REMARK    8  A    between atoms: C22_29  and  N2_30 
REMARK       I    between atoms: N2_30  and  C23_32 
REMARK    9  A    between atoms: C23_32  and  C24_34 
REMARK   10  A    between atoms: C24_34  and  C25_35 
REMARK   11  A    between atoms: C25_35  and  C26_36 
REMARK   12  A    between atoms: C26_36  and  C27_37 
REMARK   13  A    between atoms: C27_37  and  C28_38 
REMARK   14  A    between atoms: C28_38  and  C29_39 
ROOT
HETATM    1  C1  UNL     1      34.734  38.079  54.602  1.00  0.00     0.015 C 
HETATM    2  C2  UNL     1      36.008  37.792  54.377  1.00  0.00    -0.081 C 
HETATM    3  C3  UNL     1      37.062  37.893  55.428  1.00  0.00     0.034 C 
HETATM    4  C4  UNL     1      37.777  39.199  55.233  1.00  0.00     0.012 C 
HETATM    5  C5  UNL     1      38.856  39.464  56.258  1.00  0.00     0.024 C 
HETATM    6  C12 UNL     1      40.112  38.792  55.752  1.00  0.00     0.061 C 
HETATM    7  C13 UNL     1      41.329  39.672  56.069  1.00  0.00     0.046 C 
HETATM    8  C14 UNL     1      40.416  37.508  56.535  1.00  0.00     0.046 C 
HETATM    9  O1  UNL     1      40.122  38.604  54.372  1.00  0.00    -0.349 OA
HETATM   10  C15 UNL     1      40.959  38.511  53.345  1.00  0.00     0.280 C 
HETATM   11  C16 UNL     1      41.255  39.527  52.275  1.00  0.00     0.142 C 
HETATM   12  N1  UNL     1      41.972  38.926  51.149  1.00  0.00    -0.363 N 
ATOM     13  H1  UNL     1      42.577  39.608  50.690  1.00  0.00     0.162 HD
HETATM   14  C21 UNL     1      42.055  37.703  50.540  1.00  0.00     0.135 C 
HETATM   15  C22 UNL     1      41.214  36.829  49.708  1.00  0.00     0.159 C 
HETATM   16  C30 UNL     1      40.604  35.609  50.288  1.00  0.00     0.035 C 
HETATM   17  C31 UNL     1      39.097  35.699  50.508  1.00  0.00     0.022 C 
HETATM   18  C32 UNL     1      38.716  35.491  51.960  1.00  0.00     0.122 C 
HETATM   19  N5  UNL     1      37.336  35.155  52.120  1.00  0.00    -0.361 N 
ATOM     20  H5  UNL     1      37.009  34.301  51.669  1.00  0.00     0.162 HD
HETATM   21  C33 UNL     1      36.376  35.910  52.857  1.00  0.00     0.221 C 
HETATM   22  O5  UNL     1      35.444  35.270  53.449  1.00  0.00    -0.273 OA
HETATM   23  C34 UNL     1      36.373  37.363  52.987  1.00  0.00     0.136 C 
ENDROOT
BRANCH  15  24
HETATM   24  N2  UNL     1      42.035  36.289  48.589  1.00  0.00    -0.349 N 
HETATM   25  C23 UNL     1      41.429  35.516  47.529  1.00  0.00     0.218 C 
HETATM   26  O4  UNL     1      40.212  35.283  47.521  1.00  0.00    -0.274 OA
ATOM     27  H2  UNL     1      43.039  36.467  48.571  1.00  0.00     0.163 HD
BRANCH  25  28
HETATM   28  C24 UNL     1      42.352  35.041  46.476  1.00  0.00     0.103 C 
BRANCH  28  29
HETATM   29  C25 UNL     1      42.716  33.610  46.631  1.00  0.00     0.009 C 
BRANCH  29  30
HETATM   30  C26 UNL     1      43.128  33.007  45.318  1.00  0.00     0.001 C 
BRANCH  30  31
HETATM   31  C27 UNL     1      44.465  33.530  44.812  1.00  0.00     0.007 C 
BRANCH  31  32
HETATM   32  C28 UNL     1      44.452  33.448  43.305  1.00  0.00     0.072 C 
BRANCH  32  33
HETATM   33  C29 UNL     1      44.406  34.766  42.654  1.00  0.00     0.086 C 
HETATM   34  N3  UNL     1      43.361  35.548  42.699  1.00  0.00    -0.391 N 
ATOM     35  H32 UNL     1      42.543  35.176  43.183  1.00  0.00     0.157 HD
ATOM     36  H31 UNL     1      43.329  36.462  42.247  1.00  0.00     0.157 HD
HETATM   37  N4  UNL     1      45.555  35.290  41.974  1.00  0.00    -0.088 NA
ENDBRANCH  32  33
ENDBRANCH  31  32
ENDBRANCH  30  31
ENDBRANCH  29  30
ENDBRANCH  28  29
ENDBRANCH  25  28
ENDBRANCH  15  24
BRANCH  14  38
HETATM   38  O3  UNL     1      43.225  37.109  50.735  1.00  0.00    -0.348 OA
ATOM     39  H3  UNL     1      43.147  36.169  50.851  1.00  0.00     0.219 HD
ENDBRANCH  14  38
BRANCH  11  40
HETATM   40  C17 UNL     1      40.089  40.346  51.826  1.00  0.00     0.009 C 
HETATM   41  C18 UNL     1      40.639  41.069  50.548  1.00  0.00     0.012 C 
BRANCH  40  42
HETATM   42  C19 UNL     1      38.944  39.559  51.257  1.00  0.00     0.002 C 
HETATM   43  C20 UNL     1      37.618  40.162  51.617  1.00  0.00     0.005 C 
ENDBRANCH  40  42
ENDBRANCH  11  40
BRANCH  10  44
HETATM   44  O2  UNL     1      41.683  37.448  53.119  1.00  0.00    -0.369 OA
ATOM     45  H2  UNL     1      42.580  37.365  53.420  1.00  0.00     0.212 HD
ENDBRANCH  10  44
BRANCH   5  46
HETATM   46  C6  UNL     1      38.396  39.089  57.636  1.00  0.00    -0.008 C 
HETATM   47  C7  UNL     1      36.890  39.398  57.712  1.00  0.00     0.011 C 
BRANCH  46  48
HETATM   48  C8  UNL     1      38.964  39.869  58.779  1.00  0.00     0.031 C 
BRANCH  48  49
HETATM   49  C9  UNL     1      38.703  41.309  58.809  1.00  0.00    -0.031 C 
HETATM   50  C10 UNL     1      38.112  41.937  59.834  1.00  0.00    -0.035 C 
HETATM   51  C11 UNL     1      37.866  43.377  59.832  1.00  0.00     0.036 C 
ENDBRANCH  48  49
ENDBRANCH  46  48
ENDBRANCH   5  46
TORSDOF 14
ENDMDL
MODEL 5
REMARK VINA RESULT: -8.557661813      2.044      4.374
REMARK  14 active torsions:
REMARK  status: ('A' for Active; 'I' for Inactive)
REMARK    1  A    between atoms: C5_5  and  C6_6 
REMARK    2  A    between atoms: C6_6  and  C8_8 
REMARK    3  A    between atoms: C8_8  and  C9_9 
REMARK    4  A    between atoms: C15_16  and  O2_17 
REMARK    5  A    between atoms: C16_19  and  C17_20 
REMARK    6  A    between atoms: C17_20  and  C19_22 
REMARK    7  A    between atoms: C21_26  and  O3_27 
REMARK    8  A    between atoms: C22_29  and  N2_30 
REMARK       I    between atoms: N2_30  and  C23_32 
REMARK    9  A    between atoms: C23_32  and  C24_34 
REMARK   10  A    between atoms: C24_34  and  C25_35 
REMARK   11  A    between atoms: C25_35  and  C26_36 
REMARK   12  A    between atoms: C26_36  and  C27_37 
REMARK   13  A    between atoms: C27_37  and  C28_38 
REMARK   14  A    between atoms: C28_38  and  C29_39 
ROOT
HETATM    1  C1  UNL     1      42.202  42.399  56.099  1.00  0.00     0.015 C 
HETATM    2  C2  UNL     1      41.400  41.842  55.202  1.00  0.00    -0.081 C 
HETATM    3  C3  UNL     1      39.913  41.857  55.320  1.00  0.00     0.034 C 
HETATM    4  C4  UNL     1      39.488  40.529  55.878  1.00  0.00     0.012 C 
HETATM    5  C5  UNL     1      37.996  40.407  56.094  1.00  0.00     0.024 C 
HETATM    6  C12 UNL     1      37.401  39.956  54.779  1.00  0.00     0.061 C 
HETATM    7  C13 UNL     1      36.267  38.957  55.045  1.00  0.00     0.046 C 
HETATM    8  C14 UNL     1      36.674  41.106  54.070  1.00  0.00     0.046 C 
HETATM    9  O1  UNL     1      38.311  39.296  53.957  1.00  0.00    -0.349 OA
HETATM   10  C15 UNL     1      38.366  38.369  53.007  1.00  0.00     0.280 C 
HETATM   11  C16 UNL     1      38.838  36.943  53.106  1.00  0.00     0.142 C 
HETATM   12  N1  UNL     1      39.056  36.357  51.783  1.00  0.00    -0.363 N 
ATOM     13  H1  UNL     1      38.896  35.350  51.795  1.00  0.00     0.162 HD
HETATM   14  C21 UNL     1      39.415  36.787  50.534  1.00  0.00     0.135 C 
HETATM   15  C22 UNL     1      40.609  37.307  49.850  1.00  0.00     0.159 C 
HETATM   16  C30 UNL     1      40.700  38.745  49.500  1.00  0.00     0.035 C 
HETATM   17  C31 UNL     1      41.681  39.543  50.352  1.00  0.00     0.022 C 
HETATM   18  C32 UNL     1      41.008  40.688  51.081  1.00  0.00     0.122 C 
HETATM   19  N5  UNL     1      41.941  41.675  51.529  1.00  0.00    -0.361 N 
ATOM     20  H5  UNL     1      42.497  42.146  50.817  1.00  0.00     0.162 HD
HETATM   21  C33 UNL     1      42.160  42.056  52.886  1.00  0.00     0.221 C 
HETATM   22  O5  UNL     1      42.475  43.271  53.117  1.00  0.00    -0.273 OA
HETATM   23  C34 UNL     1      42.054  41.164  54.035  1.00  0.00     0.136 C 
ENDROOT
BRANCH  15  24
HETATM   24  N2  UNL     1      40.744  36.634  48.530  1.00  0.00    -0.349 N 
HETATM   25  C23 UNL     1      42.043  36.281  48.005  1.00  0.00     0.218 C 
HETATM   26  O4  UNL     1      43.079  36.527  48.639  1.00  0.00    -0.274 OA
ATOM     27  H2  UNL     1      39.907  36.420  47.987  1.00  0.00     0.163 HD
BRANCH  25  28
HETATM   28  C24 UNL     1      42.040  35.614  46.685  1.00  0.00     0.103 C 
BRANCH  28  29
HETATM   29  C25 UNL     1      42.428  34.183  46.763  1.00  0.00     0.009 C 
BRANCH  29  30
HETATM   30  C26 UNL     1      42.215  33.488  45.447  1.00  0.00     0.001 C 
BRANCH  30  31
HETATM   31  C27 UNL     1      41.358  34.291  44.479  1.00  0.00     0.007 C 
BRANCH  31  32
HETATM   32  C28 UNL     1      41.094  33.427  43.270  1.00  0.00     0.072 C 
BRANCH  32  33
HETATM   33  C29 UNL     1      39.981  33.913  42.441  1.00  0.00     0.086 C 
HETATM   34  N3  UNL     1      39.803  35.175  42.155  1.00  0.00    -0.391 N 
ATOM     35  H32 UNL     1      40.463  35.828  42.578  1.00  0.00     0.157 HD
ATOM     36  H31 UNL     1      39.031  35.512  41.580  1.00  0.00     0.157 HD
HETATM   37  N4  UNL     1      39.053  32.996  41.846  1.00  0.00    -0.088 NA
ENDBRANCH  32  33
ENDBRANCH  31  32
ENDBRANCH  30  31
ENDBRANCH  29  30
ENDBRANCH  28  29
ENDBRANCH  25  28
ENDBRANCH  15  24
BRANCH  14  38
HETATM   38  O3  UNL     1      38.419  36.722  49.661  1.00  0.00    -0.348 OA
ATOM     39  H3  UNL     1      38.706  36.466  48.792  1.00  0.00     0.219 HD
ENDBRANCH  14  38
BRANCH  11  40
HETATM   40  C17 UNL     1      39.996  36.713  54.021  1.00  0.00     0.009 C 
HETATM   41  C18 UNL     1      40.945  37.918  53.695  1.00  0.00     0.012 C 
BRANCH  40  42
HETATM   42  C19 UNL     1      39.710  36.941  55.477  1.00  0.00     0.002 C 
HETATM   43  C20 UNL     1      40.907  37.479  56.204  1.00  0.00     0.005 C 
ENDBRANCH  40  42
ENDBRANCH  11  40
BRANCH  10  44
HETATM   44  O2  UNL     1      37.989  38.596  51.778  1.00  0.00    -0.369 OA
ATOM     45  H2  UNL     1      38.606  38.713  51.065  1.00  0.00     0.212 HD
ENDBRANCH  10  44
BRANCH   5  46
HETATM   46  C6  UNL     1      37.433  41.659  56.698  1.00  0.00    -0.008 C 
HETATM   47  C7  UNL     1      38.328  42.028  57.895  1.00  0.00     0.011 C 
BRANCH  46  48
HETATM   48  C8  UNL     1      36.068  41.570  57.304  1.00  0.00     0.031 C 
BRANCH  48  49
HETATM   49  C9  UNL     1      35.559  42.754  57.996  1.00  0.00    -0.031 C 
HETATM   50  C10 UNL     1      34.938  42.713  59.182  1.00  0.00    -0.035 C 
HETATM   51  C11 UNL     1      34.441  43.915  59.846  1.00  0.00     0.036 C 
ENDBRANCH  48  49
ENDBRANCH  46  48
ENDBRANCH   5  46
TORSDOF 14
ENDMDL
