MODEL 1
REMARK VINA RESULT: -8.166082908      0.000      0.000
REMARK  11 active torsions:
REMARK  status: ('A' for Active; 'I' for Inactive)
REMARK    1  A    between atoms: N1_1  and  C1_4 
REMARK    2  A    between atoms: C4_14  and  C5_15 
REMARK    3  A    between atoms: C5_15  and  N5_16 
REMARK    4  A    between atoms: N6_20  and  N7_21 
REMARK    5  A    between atoms: N7_21  and  C6_23 
REMARK    6  A    between atoms: N8_24  and  C7_26 
REMARK    7  A    between atoms: C7_26  and  C8_27 
REMARK    8  A    between atoms: C8_27  and  C9_28 
REMARK    9  A    between atoms: C9_28  and  C10_29 
REMARK   10  A    between atoms: C10_29  and  N9_30 
REMARK   11  A    between atoms: N9_30  and  O1_31 
ROOT
HETATM    1  C1  UNL     1      30.432  19.422  44.487  1.00  0.00     0.679 A 
HETATM    2  N2  UNL     1      31.584  18.903  44.082  1.00  0.00    -0.175 N 
ATOM      3  H2  UNL     1      31.613  18.032  43.550  1.00  0.00     0.186 HD
HETATM    4  C2  UNL     1      32.703  19.558  44.394  1.00  0.00     0.145 A 
HETATM    5  N3  UNL     1      33.849  19.064  44.005  1.00  0.00    -0.383 N 
ATOM      6  H31 UNL     1      34.704  19.566  44.244  1.00  0.00     0.157 HD
ATOM      7  H32 UNL     1      33.853  18.193  43.476  1.00  0.00     0.157 HD
HETATM    8  C3  UNL     1      32.697  20.727  45.104  1.00  0.00     0.125 A 
HETATM    9  N4  UNL     1      33.629  21.576  45.547  1.00  0.00    -0.337 N 
ATOM     10  H4  UNL     1      34.637  21.484  45.414  1.00  0.00     0.167 HD
HETATM   11  C4  UNL     1      33.006  22.565  46.197  1.00  0.00     0.132 A 
HETATM   12  N6  UNL     1      31.658  22.370  46.183  1.00  0.00    -0.222 N 
HETATM   13  C11 UNL     1      31.455  21.233  45.508  1.00  0.00     0.174 A 
HETATM   14  N10 UNL     1      30.341  20.562  45.187  1.00  0.00    -0.173 N 
ATOM     15  H10 UNL     1      29.428  20.918  45.472  1.00  0.00     0.186 HD
ENDROOT
BRANCH  12  16
HETATM   16  N7  UNL     1      30.761  23.231  46.775  1.00  0.00    -0.287 N 
ATOM     17  H7  UNL     1      30.903  23.430  47.766  1.00  0.00     0.188 HD
BRANCH  16  18
HETATM   18  C6  UNL     1      29.667  23.866  46.153  1.00  0.00     0.193 C 
HETATM   19  N8  UNL     1      29.025  24.792  46.750  1.00  0.00    -0.385 N 
ATOM     20  H8  UNL     1      29.328  25.056  47.687  1.00  0.00     0.160 HD
BRANCH  19  21
HETATM   21  C7  UNL     1      27.900  25.487  46.183  1.00  0.00     0.120 C 
BRANCH  21  22
HETATM   22  C8  UNL     1      28.176  26.980  46.185  1.00  0.00     0.021 C 
BRANCH  22  23
HETATM   23  C9  UNL     1      26.861  27.689  46.177  1.00  0.00     0.020 C 
BRANCH  23  24
HETATM   24  C10 UNL     1      26.325  27.927  44.789  1.00  0.00     0.142 C 
BRANCH  24  25
HETATM   25  N9  UNL     1      26.300  29.336  44.448  1.00  0.00    -0.104 NA
BRANCH  25  26
HETATM   26  O1  UNL     1      26.342  29.397  43.081  1.00  0.00    -0.296 OA
ATOM     27  H1  UNL     1      25.609  29.943  42.820  1.00  0.00     0.238 HD
ENDBRANCH  25  26
ENDBRANCH  24  25
ENDBRANCH  23  24
ENDBRANCH  22  23
ENDBRANCH  21  22
ENDBRANCH  19  21
ENDBRANCH  16  18
ENDBRANCH  12  16
BRANCH  11  28
HETATM   28  C5  UNL     1      33.735  23.699  46.829  1.00  0.00     0.307 C 
BRANCH  28  29
HETATM   29  N5  UNL     1      34.967  23.994  46.166  1.00  0.00    -0.073 N 
ATOM     30  H53 UNL     1      35.457  23.138  45.904  1.00  0.00     0.274 HD
ATOM     31  H52 UNL     1      34.800  24.378  45.236  1.00  0.00     0.274 HD
ATOM     32  H51 UNL     1      35.567  24.608  46.715  1.00  0.00     0.274 HD
ENDBRANCH  28  29
ENDBRANCH  11  28
BRANCH   1  33
HETATM   33  N1  UNL     1      29.345  18.804  44.196  1.00  0.00    -0.234 N 
ATOM     34  H12 UNL     1      29.402  18.004  43.567  1.00  0.00     0.174 HD
ATOM     35  H11 UNL     1      28.471  19.136  44.604  1.00  0.00     0.174 HD
ENDBRANCH   1  33
TORSDOF 11
ENDMDL
MODEL 2
REMARK VINA RESULT: -7.798984797      1.790      3.361
REMARK  11 active torsions:
REMARK  status: ('A' for Active; 'I' for Inactive)
REMARK    1  A    between atoms: N1_1  and  C1_4 
REMARK    2  A    between atoms: C4_14  and  C5_15 
REMARK    3  A    between atoms: C5_15  and  N5_16 
REMARK    4  A    between atoms: N6_20  and  N7_21 
REMARK    5  A    between atoms: N7_21  and  C6_23 
REMARK    6  A    between atoms: N8_24  and  C7_26 
REMARK    7  A    between atoms: C7_26  and  C8_27 
REMARK    8  A    between atoms: C8_27  and  C9_28 
REMARK    9  A    between atoms: C9_28  and  C10_29 
REMARK   10  A    between atoms: C10_29  and  N9_30 
REMARK   11  A    between atoms: N9_30  and  O1_31 
ROOT
HETATM    1  C1  UNL     1      32.421  20.891  47.965  1.00  0.00     0.679 A 
HETATM    2  N2  UNL     1      33.115  19.902  47.418  1.00  0.00    -0.175 N 
ATOM      3  H2  UNL     1      33.896  19.469  47.912  1.00  0.00     0.186 HD
HETATM    4  C2  UNL     1      32.758  19.493  46.200  1.00  0.00     0.145 A 
HETATM    5  N3  UNL     1      33.430  18.521  45.642  1.00  0.00    -0.383 N 
ATOM      6  H31 UNL     1      33.156  18.208  44.710  1.00  0.00     0.157 HD
ATOM      7  H32 UNL     1      34.207  18.104  46.154  1.00  0.00     0.157 HD
HETATM    8  C3  UNL     1      31.716  20.052  45.512  1.00  0.00     0.125 A 
HETATM    9  N4  UNL     1      31.149  19.855  44.319  1.00  0.00    -0.337 N 
ATOM     10  H4  UNL     1      31.434  19.163  43.625  1.00  0.00     0.167 HD
HETATM   11  C4  UNL     1      30.142  20.726  44.194  1.00  0.00     0.132 A 
HETATM   12  N6  UNL     1      30.043  21.502  45.310  1.00  0.00    -0.222 N 
HETATM   13  C11 UNL     1      31.015  21.092  46.133  1.00  0.00     0.174 A 
HETATM   14  N10 UNL     1      31.386  21.491  47.357  1.00  0.00    -0.173 N 
ATOM     15  H10 UNL     1      30.885  22.247  47.824  1.00  0.00     0.186 HD
ENDROOT
BRANCH  12  16
HETATM   16  N7  UNL     1      29.095  22.489  45.466  1.00  0.00    -0.287 N 
ATOM     17  H7  UNL     1      28.121  22.187  45.499  1.00  0.00     0.188 HD
BRANCH  16  18
HETATM   18  C6  UNL     1      29.333  23.873  45.584  1.00  0.00     0.193 C 
HETATM   19  N8  UNL     1      28.445  24.647  46.075  1.00  0.00    -0.385 N 
ATOM     20  H8  UNL     1      27.564  24.233  46.377  1.00  0.00     0.160 HD
BRANCH  19  21
HETATM   21  C7  UNL     1      28.611  26.068  46.228  1.00  0.00     0.120 C 
BRANCH  21  22
HETATM   22  C8  UNL     1      27.251  26.743  46.185  1.00  0.00     0.021 C 
BRANCH  22  23
HETATM   23  C9  UNL     1      26.613  26.403  44.877  1.00  0.00     0.020 C 
BRANCH  23  24
HETATM   24  C10 UNL     1      25.767  27.519  44.322  1.00  0.00     0.142 C 
BRANCH  24  25
HETATM   25  N9  UNL     1      26.286  28.825  44.679  1.00  0.00    -0.104 NA
BRANCH  25  26
HETATM   26  O1  UNL     1      26.226  29.582  43.540  1.00  0.00    -0.296 OA
ATOM     27  H1  UNL     1      26.014  30.464  43.821  1.00  0.00     0.238 HD
ENDBRANCH  25  26
ENDBRANCH  24  25
ENDBRANCH  23  24
ENDBRANCH  22  23
ENDBRANCH  21  22
ENDBRANCH  19  21
ENDBRANCH  16  18
ENDBRANCH  12  16
BRANCH  11  28
HETATM   28  C5  UNL     1      29.280  20.796  42.983  1.00  0.00     0.307 C 
BRANCH  28  29
HETATM   29  N5  UNL     1      28.549  19.587  42.764  1.00  0.00    -0.073 N 
ATOM     30  H53 UNL     1      29.070  18.776  43.098  1.00  0.00     0.274 HD
ATOM     31  H52 UNL     1      27.741  19.528  43.384  1.00  0.00     0.274 HD
ATOM     32  H51 UNL     1      28.273  19.470  41.789  1.00  0.00     0.274 HD
ENDBRANCH  28  29
ENDBRANCH  11  28
BRANCH   1  33
HETATM   33  N1  UNL     1      32.750  21.298  49.137  1.00  0.00    -0.234 N 
ATOM     34  H12 UNL     1      33.587  21.874  49.226  1.00  0.00     0.174 HD
ATOM     35  H11 UNL     1      32.165  21.032  49.929  1.00  0.00     0.174 HD
ENDBRANCH   1  33
TORSDOF 11
ENDMDL
MODEL 3
REMARK VINA RESULT: -7.775542143      1.454      3.586
REMARK  11 active torsions:
REMARK  status: ('A' for Active; 'I' for Inactive)
REMARK    1  A    between atoms: N1_1  and  C1_4 
REMARK    2  A    between atoms: C4_14  and  C5_15 
REMARK    3  A    between atoms: C5_15  and  N5_16 
REMARK    4  A    between atoms: N6_20  and  N7_21 
REMARK    5  A    between atoms: N7_21  and  C6_23 
REMARK    6  A    between atoms: N8_24  and  C7_26 
REMARK    7  A    between atoms: C7_26  and  C8_27 
REMARK    8  A    between atoms: C8_27  and  C9_28 
REMARK    9  A    between atoms: C9_28  and  C10_29 
REMARK   10  A    between atoms: C10_29  and  N9_30 
REMARK   11  A    between atoms: N9_30  and  O1_31 
ROOT
HETATM    1  C1  UNL     1      32.629  23.313  47.564  1.00  0.00     0.679 A 
HETATM    2  N2  UNL     1      33.692  22.711  47.047  1.00  0.00    -0.175 N 
ATOM      3  H2  UNL     1      34.619  22.829  47.458  1.00  0.00     0.186 HD
HETATM    4  C2  UNL     1      33.508  21.946  45.970  1.00  0.00     0.145 A 
HETATM    5  N3  UNL     1      34.542  21.344  45.443  1.00  0.00    -0.383 N 
ATOM      6  H31 UNL     1      34.401  20.759  44.620  1.00  0.00     0.157 HD
ATOM      7  H32 UNL     1      35.458  21.478  45.871  1.00  0.00     0.157 HD
HETATM    8  C3  UNL     1      32.280  21.766  45.396  1.00  0.00     0.125 A 
HETATM    9  N4  UNL     1      31.809  21.081  44.350  1.00  0.00    -0.337 N 
ATOM     10  H4  UNL     1      32.359  20.498  43.717  1.00  0.00     0.167 HD
HETATM   11  C4  UNL     1      30.491  21.295  44.279  1.00  0.00     0.132 A 
HETATM   12  N6  UNL     1      30.089  22.125  45.282  1.00  0.00    -0.222 N 
HETATM   13  C11 UNL     1      31.190  22.423  45.980  1.00  0.00     0.174 A 
HETATM   14  N10 UNL     1      31.392  23.188  47.062  1.00  0.00    -0.173 N 
ATOM     15  H10 UNL     1      30.608  23.673  47.500  1.00  0.00     0.186 HD
ENDROOT
BRANCH  12  16
HETATM   16  N7  UNL     1      28.782  22.522  45.459  1.00  0.00    -0.287 N 
ATOM     17  H7  UNL     1      28.062  21.823  45.278  1.00  0.00     0.188 HD
BRANCH  16  18
HETATM   18  C6  UNL     1      28.337  23.796  45.867  1.00  0.00     0.193 C 
HETATM   19  N8  UNL     1      27.128  24.155  45.677  1.00  0.00    -0.385 N 
ATOM     20  H8  UNL     1      26.498  23.494  45.224  1.00  0.00     0.160 HD
BRANCH  19  21
HETATM   21  C7  UNL     1      26.598  25.436  46.063  1.00  0.00     0.120 C 
BRANCH  21  22
HETATM   22  C8  UNL     1      27.730  26.447  46.141  1.00  0.00     0.021 C 
BRANCH  22  23
HETATM   23  C9  UNL     1      27.136  27.810  45.997  1.00  0.00     0.020 C 
BRANCH  23  24
HETATM   24  C10 UNL     1      26.370  27.991  44.712  1.00  0.00     0.142 C 
BRANCH  24  25
HETATM   25  N9  UNL     1      26.298  29.381  44.311  1.00  0.00    -0.104 NA
BRANCH  25  26
HETATM   26  O1  UNL     1      26.396  29.388  42.946  1.00  0.00    -0.296 OA
ATOM     27  H1  UNL     1      27.317  29.515  42.748  1.00  0.00     0.238 HD
ENDBRANCH  25  26
ENDBRANCH  24  25
ENDBRANCH  23  24
ENDBRANCH  22  23
ENDBRANCH  21  22
ENDBRANCH  19  21
ENDBRANCH  16  18
ENDBRANCH  12  16
BRANCH  11  28
HETATM   28  C5  UNL     1      29.630  20.686  43.229  1.00  0.00     0.307 C 
BRANCH  28  29
HETATM   29  N5  UNL     1      29.205  19.364  43.570  1.00  0.00    -0.073 N 
ATOM     30  H53 UNL     1      29.906  18.673  43.303  1.00  0.00     0.274 HD
ATOM     31  H52 UNL     1      29.215  19.225  44.580  1.00  0.00     0.274 HD
ATOM     32  H51 UNL     1      28.293  19.135  43.177  1.00  0.00     0.274 HD
ENDBRANCH  28  29
ENDBRANCH  11  28
BRANCH   1  33
HETATM   33  N1  UNL     1      32.787  24.054  48.600  1.00  0.00    -0.234 N 
ATOM     34  H12 UNL     1      33.737  24.217  48.932  1.00  0.00     0.174 HD
ATOM     35  H11 UNL     1      31.960  24.449  49.049  1.00  0.00     0.174 HD
ENDBRANCH   1  33
TORSDOF 11
ENDMDL
MODEL 4
REMARK VINA RESULT: -7.765367047      1.360      1.367
REMARK  11 active torsions:
REMARK  status: ('A' for Active; 'I' for Inactive)
REMARK    1  A    between atoms: N1_1  and  C1_4 
REMARK    2  A    between atoms: C4_14  and  C5_15 
REMARK    3  A    between atoms: C5_15  and  N5_16 
REMARK    4  A    between atoms: N6_20  and  N7_21 
REMARK    5  A    between atoms: N7_21  and  C6_23 
REMARK    6  A    between atoms: N8_24  and  C7_26 
REMARK    7  A    between atoms: C7_26  and  C8_27 
REMARK    8  A    between atoms: C8_27  and  C9_28 
REMARK    9  A    between atoms: C9_28  and  C10_29 
REMARK   10  A    between atoms: C10_29  and  N9_30 
REMARK   11  A    between atoms: N9_30  and  O1_31 
ROOT
HETATM    1  C1  UNL     1      30.388  19.087  44.852  1.00  0.00     0.679 A 
HETATM    2  N2  UNL     1      31.360  18.189  44.950  1.00  0.00    -0.175 N 
ATOM      3  H2  UNL     1      31.277  17.271  44.513  1.00  0.00     0.186 HD
HETATM    4  C2  UNL     1      32.450  18.528  45.640  1.00  0.00     0.145 A 
HETATM    5  N3  UNL     1      33.419  17.658  45.750  1.00  0.00    -0.383 N 
ATOM      6  H31 UNL     1      34.252  17.918  46.278  1.00  0.00     0.157 HD
ATOM      7  H32 UNL     1      33.313  16.747  45.306  1.00  0.00     0.157 HD
HETATM    8  C3  UNL     1      32.593  19.751  46.236  1.00  0.00     0.125 A 
HETATM    9  N4  UNL     1      33.539  20.349  46.966  1.00  0.00    -0.337 N 
ATOM     10  H4  UNL     1      34.434  19.943  47.238  1.00  0.00     0.167 HD
HETATM   11  C4  UNL     1      33.103  21.575  47.275  1.00  0.00     0.132 A 
HETATM   12  N6  UNL     1      31.865  21.788  46.749  1.00  0.00    -0.222 N 
HETATM   13  C11 UNL     1      31.539  20.663  46.103  1.00  0.00     0.174 A 
HETATM   14  N10 UNL     1      30.451  20.307  45.407  1.00  0.00    -0.173 N 
ATOM     15  H10 UNL     1      29.674  20.960  45.299  1.00  0.00     0.186 HD
ENDROOT
BRANCH  12  16
HETATM   16  N7  UNL     1      31.166  22.964  46.906  1.00  0.00    -0.287 N 
ATOM     17  H7  UNL     1      31.513  23.613  47.612  1.00  0.00     0.188 HD
BRANCH  16  18
HETATM   18  C6  UNL     1      30.020  23.364  46.189  1.00  0.00     0.193 C 
HETATM   19  N8  UNL     1      29.258  24.283  46.639  1.00  0.00    -0.385 N 
ATOM     20  H8  UNL     1      29.504  24.716  47.529  1.00  0.00     0.160 HD
BRANCH  19  21
HETATM   21  C7  UNL     1      28.072  24.746  45.969  1.00  0.00     0.120 C 
BRANCH  21  22
HETATM   22  C8  UNL     1      28.080  26.264  45.919  1.00  0.00     0.021 C 
BRANCH  22  23
HETATM   23  C9  UNL     1      26.662  26.731  45.945  1.00  0.00     0.020 C 
BRANCH  23  24
HETATM   24  C10 UNL     1      26.262  27.481  44.701  1.00  0.00     0.142 C 
BRANCH  24  25
HETATM   25  N9  UNL     1      26.382  28.915  44.867  1.00  0.00    -0.104 NA
BRANCH  25  26
HETATM   26  O1  UNL     1      26.254  29.455  43.615  1.00  0.00    -0.296 OA
ATOM     27  H1  UNL     1      25.594  30.134  43.686  1.00  0.00     0.238 HD
ENDBRANCH  25  26
ENDBRANCH  24  25
ENDBRANCH  23  24
ENDBRANCH  22  23
ENDBRANCH  21  22
ENDBRANCH  19  21
ENDBRANCH  16  18
ENDBRANCH  12  16
BRANCH  11  28
HETATM   28  C5  UNL     1      33.902  22.534  48.086  1.00  0.00     0.307 C 
BRANCH  28  29
HETATM   29  N5  UNL     1      33.578  22.474  49.478  1.00  0.00    -0.073 N 
ATOM     30  H53 UNL     1      33.730  23.376  49.930  1.00  0.00     0.274 HD
ATOM     31  H52 UNL     1      32.571  22.391  49.617  1.00  0.00     0.274 HD
ATOM     32  H51 UNL     1      34.079  21.731  49.963  1.00  0.00     0.274 HD
ENDBRANCH  28  29
ENDBRANCH  11  28
BRANCH   1  33
HETATM   33  N1  UNL     1      29.332  18.778  44.192  1.00  0.00    -0.234 N 
ATOM     34  H12 UNL     1      28.973  17.828  44.279  1.00  0.00     0.174 HD
ATOM     35  H11 UNL     1      28.894  19.492  43.609  1.00  0.00     0.174 HD
ENDBRANCH   1  33
TORSDOF 11
ENDMDL
MODEL 5
REMARK VINA RESULT: -7.722759884      1.961      2.371
REMARK  11 active torsions:
REMARK  status: ('A' for Active; 'I' for Inactive)
REMARK    1  A    between atoms: N1_1  and  C1_4 
REMARK    2  A    between atoms: C4_14  and  C5_15 
REMARK    3  A    between atoms: C5_15  and  N5_16 
REMARK    4  A    between atoms: N6_20  and  N7_21 
REMARK    5  A    between atoms: N7_21  and  C6_23 
REMARK    6  A    between atoms: N8_24  and  C7_26 
REMARK    7  A    between atoms: C7_26  and  C8_27 
REMARK    8  A    between atoms: C8_27  and  C9_28 
REMARK    9  A    between atoms: C9_28  and  C10_29 
REMARK   10  A    between atoms: C10_29  and  N9_30 
REMARK   11  A    between atoms: N9_30  and  O1_31 
ROOT
HETATM    1  C1  UNL     1      29.912  19.961  41.220  1.00  0.00     0.679 A 
HETATM    2  N2  UNL     1      31.130  19.587  40.847  1.00  0.00    -0.175 N 
ATOM      3  H2  UNL     1      31.300  19.190  39.923  1.00  0.00     0.186 HD
HETATM    4  C2  UNL     1      32.123  19.747  41.723  1.00  0.00     0.145 A 
HETATM    5  N3  UNL     1      33.330  19.384  41.377  1.00  0.00    -0.383 N 
ATOM      6  H31 UNL     1      34.089  19.506  42.046  1.00  0.00     0.157 HD
ATOM      7  H32 UNL     1      33.476  18.989  40.448  1.00  0.00     0.157 HD
HETATM    8  C3  UNL     1      31.927  20.277  42.969  1.00  0.00     0.125 A 
HETATM    9  N4  UNL     1      32.705  20.547  44.020  1.00  0.00    -0.337 N 
ATOM     10  H4  UNL     1      33.711  20.383  44.082  1.00  0.00     0.167 HD
HETATM   11  C4  UNL     1      31.932  21.071  44.978  1.00  0.00     0.132 A 
HETATM   12  N6  UNL     1      30.638  21.146  44.558  1.00  0.00    -0.222 N 
HETATM   13  C11 UNL     1      30.624  20.656  43.313  1.00  0.00     0.174 A 
HETATM   14  N10 UNL     1      29.638  20.488  42.422  1.00  0.00    -0.173 N 
ATOM     15  H10 UNL     1      28.683  20.761  42.657  1.00  0.00     0.186 HD
ENDROOT
BRANCH  12  16
HETATM   16  N7  UNL     1      29.617  21.645  45.335  1.00  0.00    -0.287 N 
ATOM     17  H7  UNL     1      28.974  20.964  45.739  1.00  0.00     0.188 HD
BRANCH  16  18
HETATM   18  C6  UNL     1      29.369  23.001  45.630  1.00  0.00     0.193 C 
HETATM   19  N8  UNL     1      28.177  23.425  45.794  1.00  0.00    -0.385 N 
ATOM     20  H8  UNL     1      27.414  22.754  45.706  1.00  0.00     0.160 HD
BRANCH  19  21
HETATM   21  C7  UNL     1      27.842  24.791  46.095  1.00  0.00     0.120 C 
BRANCH  21  22
HETATM   22  C8  UNL     1      26.635  25.208  45.272  1.00  0.00     0.021 C 
BRANCH  22  23
HETATM   23  C9  UNL     1      26.305  26.621  45.627  1.00  0.00     0.020 C 
BRANCH  23  24
HETATM   24  C10 UNL     1      26.027  27.485  44.424  1.00  0.00     0.142 C 
BRANCH  24  25
HETATM   25  N9  UNL     1      26.282  28.887  44.689  1.00  0.00    -0.104 NA
BRANCH  25  26
HETATM   26  O1  UNL     1      26.270  29.512  43.471  1.00  0.00    -0.296 OA
ATOM     27  H1  UNL     1      26.974  30.149  43.495  1.00  0.00     0.238 HD
ENDBRANCH  25  26
ENDBRANCH  24  25
ENDBRANCH  23  24
ENDBRANCH  22  23
ENDBRANCH  21  22
ENDBRANCH  19  21
ENDBRANCH  16  18
ENDBRANCH  12  16
BRANCH  11  28
HETATM   28  C5  UNL     1      32.464  21.495  46.302  1.00  0.00     0.307 C 
BRANCH  28  29
HETATM   29  N5  UNL     1      33.786  21.004  46.542  1.00  0.00    -0.073 N 
ATOM     30  H53 UNL     1      34.180  21.412  47.390  1.00  0.00     0.274 HD
ATOM     31  H52 UNL     1      33.769  20.025  46.824  1.00  0.00     0.274 HD
ATOM     32  H51 UNL     1      34.404  21.146  45.743  1.00  0.00     0.274 HD
ENDBRANCH  28  29
ENDBRANCH  11  28
BRANCH   1  33
HETATM   33  N1  UNL     1      28.944  19.814  40.390  1.00  0.00    -0.234 N 
ATOM     34  H12 UNL     1      28.511  18.894  40.318  1.00  0.00     0.174 HD
ATOM     35  H11 UNL     1      28.647  20.619  39.839  1.00  0.00     0.174 HD
ENDBRANCH   1  33
TORSDOF 11
ENDMDL
