MODEL 1
REMARK VINA RESULT: -8.035065703      0.000      0.000
REMARK  20 active torsions:
REMARK  status: ('A' for Active; 'I' for Inactive)
REMARK    1  A    between atoms: O1_2  and  C2_3 
REMARK    2  A    between atoms: C2_3  and  C3_5 
REMARK    3  A    between atoms: C5_8  and  C6_9 
REMARK    4  A    between atoms: C6_9  and  O4_10 
REMARK    5  A    between atoms: C6_9  and  C9_14 
REMARK    6  A    between atoms: O4_10  and  C7_11 
REMARK    7  A    between atoms: C13_18  and  C14_19 
REMARK    8  A    between atoms: C14_19  and  C15_21 
REMARK    9  A    between atoms: C16_24  and  O9_25 
REMARK   10  A    between atoms: C18_28  and  O10_29 
REMARK   11  A    between atoms: O10_29  and  C19_30 
REMARK   12  A    between atoms: C19_30  and  C20_32 
REMARK   13  A    between atoms: C20_32  and  O12_33 
REMARK   14  A    between atoms: C20_32  and  C21_35 
REMARK   15  A    between atoms: C21_35  and  O13_36 
REMARK   16  A    between atoms: C21_35  and  O14_38 
REMARK   17  A    between atoms: C23_40  and  O15_41 
REMARK   18  A    between atoms: O15_41  and  C24_42 
REMARK   19  A    between atoms: C26_45  and  O17_46 
REMARK   20  A    between atoms: C26_45  and  C27_48 
ROOT
HETATM    1  C9  UNL     1      -6.481   5.808  24.713  1.00  0.00     0.055 C 
HETATM    2  C10 UNL     1      -5.697   6.551  23.653  1.00  0.00     0.008 C 
HETATM    3  C11 UNL     1      -5.198   5.669  22.569  1.00  0.00     0.042 C 
HETATM    4  C12 UNL     1      -5.665   6.214  21.263  1.00  0.00    -0.047 C 
HETATM    5  C13 UNL     1      -5.192   5.815  20.126  1.00  0.00     0.067 C 
HETATM    6  C16 UNL     1      -6.691   7.220  21.539  1.00  0.00     0.154 C 
HETATM    7  C17 UNL     1      -6.660   7.533  23.028  1.00  0.00     0.056 C 
HETATM    8  C18 UNL     1      -7.967   7.319  23.713  1.00  0.00     0.169 C 
HETATM    9  C23 UNL     1      -7.535   6.772  25.088  1.00  0.00     0.169 C 
ENDROOT
BRANCH   1  10
HETATM   10  C6  UNL     1      -5.618   5.314  25.834  1.00  0.00     0.172 C 
BRANCH  10  11
HETATM   11  C5  UNL     1      -6.364   4.812  27.005  1.00  0.00     0.208 C 
HETATM   12  O3  UNL     1      -7.786   4.881  26.887  1.00  0.00    -0.350 OA
HETATM   13  C4  UNL     1      -8.235   4.077  27.949  1.00  0.00     0.152 C 
HETATM   14  C3  UNL     1      -7.364   3.135  28.195  1.00  0.00     0.086 C 
HETATM   15  C26 UNL     1      -6.251   3.316  27.222  1.00  0.00     0.210 C 
BRANCH  14  16
HETATM   16  C2  UNL     1      -7.424   2.098  29.196  1.00  0.00     0.294 C 
HETATM   17  O2  UNL     1      -8.285   1.161  29.165  1.00  0.00    -0.259 OA
BRANCH  16  18
HETATM   18  O1  UNL     1      -6.533   2.063  30.262  1.00  0.00    -0.323 OA
HETATM   19  C1  UNL     1      -6.921   1.504  31.503  1.00  0.00     0.213 C 
ENDBRANCH  16  18
ENDBRANCH  14  16
BRANCH  15  20
HETATM   20  O17 UNL     1      -5.046   2.913  27.739  1.00  0.00    -0.372 OA
ATOM     21  H17 UNL     1      -4.623   2.263  27.192  1.00  0.00     0.211 HD
ENDBRANCH  15  20
BRANCH  15  22
HETATM   22  C27 UNL     1      -6.676   2.532  26.029  1.00  0.00     0.217 C 
HETATM   23  O18 UNL     1      -5.814   2.227  25.187  1.00  0.00    -0.645 OA
HETATM   24  O19 UNL     1      -7.990   2.164  25.873  1.00  0.00    -0.645 OA
ENDBRANCH  15  22
ENDBRANCH  10  11
BRANCH  10  25
HETATM   25  O4  UNL     1      -4.740   6.335  26.266  1.00  0.00    -0.313 OA
BRANCH  25  26
HETATM   26  C7  UNL     1      -3.863   6.266  27.309  1.00  0.00     0.255 C 
HETATM   27  C8  UNL     1      -3.643   7.378  28.281  1.00  0.00     0.126 C 
HETATM   28  O5  UNL     1      -3.201   5.228  27.478  1.00  0.00    -0.266 OA
ENDBRANCH  25  26
ENDBRANCH  10  25
ENDBRANCH   1  10
BRANCH   9  29
HETATM   29  O15 UNL     1      -7.056   7.863  25.816  1.00  0.00    -0.313 OA
BRANCH  29  30
HETATM   30  C24 UNL     1      -7.557   8.229  27.051  1.00  0.00     0.255 C 
HETATM   31  C25 UNL     1      -6.723   9.032  27.973  1.00  0.00     0.126 C 
HETATM   32  O16 UNL     1      -8.724   7.851  27.331  1.00  0.00    -0.266 OA
ENDBRANCH  29  30
ENDBRANCH   9  29
BRANCH   8  33
HETATM   33  O10 UNL     1      -8.699   8.472  23.971  1.00  0.00    -0.311 OA
BRANCH  33  34
HETATM   34  C19 UNL     1     -10.079   8.477  24.136  1.00  0.00     0.293 C 
HETATM   35  O11 UNL     1     -10.617   9.601  24.096  1.00  0.00    -0.262 OA
BRANCH  34  36
HETATM   36  C20 UNL     1     -10.883   7.270  24.346  1.00  0.00     0.272 C 
BRANCH  36  37
HETATM   37  O12 UNL     1     -11.603   7.004  23.185  1.00  0.00    -0.381 OA
ATOM     38  H12 UNL     1     -11.478   6.092  22.950  1.00  0.00     0.210 HD
ENDBRANCH  36  37
BRANCH  36  39
HETATM   39  C21 UNL     1     -11.906   7.570  25.429  1.00  0.00     0.294 C 
BRANCH  39  40
HETATM   40  O13 UNL     1     -11.274   8.192  26.502  1.00  0.00    -0.368 OA
ATOM     41  H13 UNL     1     -11.891   8.291  27.217  1.00  0.00     0.212 HD
ENDBRANCH  39  40
BRANCH  39  42
HETATM   42  O14 UNL     1     -12.480   6.377  25.799  1.00  0.00    -0.363 OA
HETATM   43  C22 UNL     1     -11.488   5.547  26.314  1.00  0.00     0.204 C 
ENDBRANCH  39  42
ENDBRANCH  36  39
ENDBRANCH  34  36
ENDBRANCH  33  34
ENDBRANCH   8  33
BRANCH   6  44
HETATM   44  O9  UNL     1      -7.929   6.678  21.178  1.00  0.00    -0.391 OA
ATOM     45  H9  UNL     1      -8.547   7.395  21.098  1.00  0.00     0.210 HD
ENDBRANCH   6  44
BRANCH   5  46
HETATM   46  C14 UNL     1      -5.648   6.346  18.860  1.00  0.00     0.248 C 
HETATM   47  O6  UNL     1      -5.150   7.357  18.356  1.00  0.00    -0.281 OA
BRANCH  46  48
HETATM   48  C15 UNL     1      -6.743   5.647  18.159  1.00  0.00     0.251 C 
HETATM   49  O7  UNL     1      -6.518   4.699  17.382  1.00  0.00    -0.642 OA
HETATM   50  O8  UNL     1      -8.027   6.074  18.386  1.00  0.00    -0.642 OA
ENDBRANCH  46  48
ENDBRANCH   5  46
TORSDOF 20
ENDMDL
MODEL 2
REMARK VINA RESULT: -7.758844277      2.711      8.355
REMARK  20 active torsions:
REMARK  status: ('A' for Active; 'I' for Inactive)
REMARK    1  A    between atoms: O1_2  and  C2_3 
REMARK    2  A    between atoms: C2_3  and  C3_5 
REMARK    3  A    between atoms: C5_8  and  C6_9 
REMARK    4  A    between atoms: C6_9  and  O4_10 
REMARK    5  A    between atoms: C6_9  and  C9_14 
REMARK    6  A    between atoms: O4_10  and  C7_11 
REMARK    7  A    between atoms: C13_18  and  C14_19 
REMARK    8  A    between atoms: C14_19  and  C15_21 
REMARK    9  A    between atoms: C16_24  and  O9_25 
REMARK   10  A    between atoms: C18_28  and  O10_29 
REMARK   11  A    between atoms: O10_29  and  C19_30 
REMARK   12  A    between atoms: C19_30  and  C20_32 
REMARK   13  A    between atoms: C20_32  and  O12_33 
REMARK   14  A    between atoms: C20_32  and  C21_35 
REMARK   15  A    between atoms: C21_35  and  O13_36 
REMARK   16  A    between atoms: C21_35  and  O14_38 
REMARK   17  A    between atoms: C23_40  and  O15_41 
REMARK   18  A    between atoms: O15_41  and  C24_42 
REMARK   19  A    between atoms: C26_45  and  O17_46 
REMARK   20  A    between atoms: C26_45  and  C27_48 
ROOT
HETATM    1  C9  UNL     1      -5.144   6.653  21.406  1.00  0.00     0.055 C 
HETATM    2  C10 UNL     1      -5.696   5.428  22.102  1.00  0.00     0.008 C 
HETATM    3  C11 UNL     1      -4.775   4.871  23.124  1.00  0.00     0.042 C 
HETATM    4  C12 UNL     1      -5.508   4.773  24.418  1.00  0.00    -0.047 C 
HETATM    5  C13 UNL     1      -5.060   4.102  25.430  1.00  0.00     0.067 C 
HETATM    6  C16 UNL     1      -6.745   5.543  24.290  1.00  0.00     0.154 C 
HETATM    7  C17 UNL     1      -6.947   5.878  22.819  1.00  0.00     0.056 C 
HETATM    8  C18 UNL     1      -7.073   7.338  22.549  1.00  0.00     0.169 C 
HETATM    9  C23 UNL     1      -6.344   7.489  21.198  1.00  0.00     0.169 C 
ENDROOT
BRANCH   1  10
HETATM   10  C6  UNL     1      -4.359   6.319  20.175  1.00  0.00     0.172 C 
BRANCH  10  11
HETATM   11  C5  UNL     1      -3.761   7.484  19.495  1.00  0.00     0.208 C 
HETATM   12  O3  UNL     1      -3.384   8.557  20.361  1.00  0.00    -0.350 OA
HETATM   13  C4  UNL     1      -2.579   9.365  19.538  1.00  0.00     0.152 C 
HETATM   14  C3  UNL     1      -1.972   8.629  18.647  1.00  0.00     0.086 C 
HETATM   15  C26 UNL     1      -2.394   7.222  18.893  1.00  0.00     0.210 C 
BRANCH  14  16
HETATM   16  C2  UNL     1      -1.058   9.046  17.611  1.00  0.00     0.294 C 
HETATM   17  O2  UNL     1       0.002   8.400  17.329  1.00  0.00    -0.259 OA
BRANCH  16  18
HETATM   18  O1  UNL     1      -1.287  10.190  16.856  1.00  0.00    -0.323 OA
HETATM   19  C1  UNL     1      -1.175  10.153  15.445  1.00  0.00     0.213 C 
ENDBRANCH  16  18
ENDBRANCH  14  16
BRANCH  15  20
HETATM   20  O17 UNL     1      -2.424   6.484  17.737  1.00  0.00    -0.372 OA
ATOM     21  H17 UNL     1      -2.542   5.558  17.909  1.00  0.00     0.211 HD
ENDBRANCH  15  20
BRANCH  15  22
HETATM   22  C27 UNL     1      -1.416   6.715  19.896  1.00  0.00     0.217 C 
HETATM   23  O18 UNL     1      -1.233   5.488  19.972  1.00  0.00    -0.645 OA
HETATM   24  O19 UNL     1      -0.742   7.591  20.710  1.00  0.00    -0.645 OA
ENDBRANCH  15  22
ENDBRANCH  10  11
BRANCH  10  25
HETATM   25  O4  UNL     1      -5.171   5.626  19.247  1.00  0.00    -0.313 OA
BRANCH  25  26
HETATM   26  C7  UNL     1      -4.965   4.365  18.769  1.00  0.00     0.255 C 
HETATM   27  C8  UNL     1      -6.069   3.415  18.437  1.00  0.00     0.126 C 
HETATM   28  O5  UNL     1      -3.802   3.964  18.594  1.00  0.00    -0.266 OA
ENDBRANCH  25  26
ENDBRANCH  10  25
ENDBRANCH   1  10
BRANCH   9  29
HETATM   29  O15 UNL     1      -7.208   6.987  20.223  1.00  0.00    -0.313 OA
BRANCH  29  30
HETATM   30  C24 UNL     1      -7.479   7.646  19.038  1.00  0.00     0.255 C 
HETATM   31  C25 UNL     1      -6.959   9.015  18.825  1.00  0.00     0.126 C 
HETATM   32  O16 UNL     1      -8.170   7.030  18.185  1.00  0.00    -0.266 OA
ENDBRANCH  29  30
ENDBRANCH   9  29
BRANCH   8  33
HETATM   33  O10 UNL     1      -8.369   7.795  22.338  1.00  0.00    -0.311 OA
BRANCH  33  34
HETATM   34  C19 UNL     1      -9.263   8.050  23.372  1.00  0.00     0.293 C 
HETATM   35  O11 UNL     1      -9.328   9.240  23.739  1.00  0.00    -0.262 OA
BRANCH  34  36
HETATM   36  C20 UNL     1     -10.089   7.024  24.014  1.00  0.00     0.272 C 
BRANCH  36  37
HETATM   37  O12 UNL     1     -11.301   6.935  23.336  1.00  0.00    -0.381 OA
ATOM     38  H12 UNL     1     -11.815   6.233  23.718  1.00  0.00     0.210 HD
ENDBRANCH  36  37
BRANCH  36  39
HETATM   39  C21 UNL     1     -10.414   7.494  25.421  1.00  0.00     0.294 C 
BRANCH  39  40
HETATM   40  O13 UNL     1      -9.249   7.508  26.183  1.00  0.00    -0.368 OA
ATOM     41  H13 UNL     1      -9.240   6.752  26.759  1.00  0.00     0.212 HD
ENDBRANCH  39  40
BRANCH  39  42
HETATM   42  O14 UNL     1     -11.351   6.634  25.940  1.00  0.00    -0.363 OA
HETATM   43  C22 UNL     1     -12.195   7.352  26.785  1.00  0.00     0.204 C 
ENDBRANCH  39  42
ENDBRANCH  36  39
ENDBRANCH  34  36
ENDBRANCH  33  34
ENDBRANCH   8  33
BRANCH   6  44
HETATM   44  O9  UNL     1      -6.601   6.713  25.043  1.00  0.00    -0.391 OA
ATOM     45  H9  UNL     1      -7.202   7.360  24.693  1.00  0.00     0.210 HD
ENDBRANCH   6  44
BRANCH   5  46
HETATM   46  C14 UNL     1      -5.774   4.009  26.685  1.00  0.00     0.248 C 
HETATM   47  O6  UNL     1      -5.713   4.896  27.540  1.00  0.00    -0.281 OA
BRANCH  46  48
HETATM   48  C15 UNL     1      -6.598   2.811  26.937  1.00  0.00     0.251 C 
HETATM   49  O7  UNL     1      -6.849   2.425  28.095  1.00  0.00    -0.642 OA
HETATM   50  O8  UNL     1      -7.086   2.127  25.853  1.00  0.00    -0.642 OA
ENDBRANCH  46  48
ENDBRANCH   5  46
TORSDOF 20
ENDMDL
MODEL 3
REMARK VINA RESULT: -7.758631296      2.402      7.423
REMARK  20 active torsions:
REMARK  status: ('A' for Active; 'I' for Inactive)
REMARK    1  A    between atoms: O1_2  and  C2_3 
REMARK    2  A    between atoms: C2_3  and  C3_5 
REMARK    3  A    between atoms: C5_8  and  C6_9 
REMARK    4  A    between atoms: C6_9  and  O4_10 
REMARK    5  A    between atoms: C6_9  and  C9_14 
REMARK    6  A    between atoms: O4_10  and  C7_11 
REMARK    7  A    between atoms: C13_18  and  C14_19 
REMARK    8  A    between atoms: C14_19  and  C15_21 
REMARK    9  A    between atoms: C16_24  and  O9_25 
REMARK   10  A    between atoms: C18_28  and  O10_29 
REMARK   11  A    between atoms: O10_29  and  C19_30 
REMARK   12  A    between atoms: C19_30  and  C20_32 
REMARK   13  A    between atoms: C20_32  and  O12_33 
REMARK   14  A    between atoms: C20_32  and  C21_35 
REMARK   15  A    between atoms: C21_35  and  O13_36 
REMARK   16  A    between atoms: C21_35  and  O14_38 
REMARK   17  A    between atoms: C23_40  and  O15_41 
REMARK   18  A    between atoms: O15_41  and  C24_42 
REMARK   19  A    between atoms: C26_45  and  O17_46 
REMARK   20  A    between atoms: C26_45  and  C27_48 
ROOT
HETATM    1  C9  UNL     1      -5.302   6.860  21.712  1.00  0.00     0.055 C 
HETATM    2  C10 UNL     1      -5.830   5.579  22.321  1.00  0.00     0.008 C 
HETATM    3  C11 UNL     1      -4.922   4.998  23.341  1.00  0.00     0.042 C 
HETATM    4  C12 UNL     1      -5.692   4.803  24.602  1.00  0.00    -0.047 C 
HETATM    5  C13 UNL     1      -5.252   4.092  25.591  1.00  0.00     0.067 C 
HETATM    6  C16 UNL     1      -6.952   5.535  24.475  1.00  0.00     0.154 C 
HETATM    7  C17 UNL     1      -7.119   5.944  23.019  1.00  0.00     0.056 C 
HETATM    8  C18 UNL     1      -7.290   7.412  22.825  1.00  0.00     0.169 C 
HETATM    9  C23 UNL     1      -6.525   7.664  21.510  1.00  0.00     0.169 C 
ENDROOT
BRANCH   1  10
HETATM   10  C6  UNL     1      -4.467   6.622  20.491  1.00  0.00     0.172 C 
BRANCH  10  11
HETATM   11  C5  UNL     1      -4.518   5.240  19.975  1.00  0.00     0.208 C 
HETATM   12  O3  UNL     1      -5.683   4.925  19.211  1.00  0.00    -0.350 OA
HETATM   13  C4  UNL     1      -5.342   3.710  18.594  1.00  0.00     0.152 C 
HETATM   14  C3  UNL     1      -4.053   3.657  18.392  1.00  0.00     0.086 C 
HETATM   15  C26 UNL     1      -3.487   4.935  18.906  1.00  0.00     0.210 C 
BRANCH  14  16
HETATM   16  C2  UNL     1      -3.282   2.597  17.790  1.00  0.00     0.294 C 
HETATM   17  O2  UNL     1      -3.816   1.547  17.307  1.00  0.00    -0.259 OA
BRANCH  16  18
HETATM   18  O1  UNL     1      -1.896   2.665  17.701  1.00  0.00    -0.323 OA
HETATM   19  C1  UNL     1      -1.094   1.599  18.175  1.00  0.00     0.213 C 
ENDBRANCH  16  18
ENDBRANCH  14  16
BRANCH  15  20
HETATM   20  O17 UNL     1      -2.211   4.776  19.387  1.00  0.00    -0.372 OA
ATOM     21  H17 UNL     1      -1.676   5.546  19.237  1.00  0.00     0.211 HD
ENDBRANCH  15  20
BRANCH  15  22
HETATM   22  C27 UNL     1      -3.573   5.867  17.748  1.00  0.00     0.217 C 
HETATM   23  O18 UNL     1      -2.527   6.407  17.348  1.00  0.00    -0.645 OA
HETATM   24  O19 UNL     1      -4.782   6.116  17.147  1.00  0.00    -0.645 OA
ENDBRANCH  15  22
ENDBRANCH  10  11
BRANCH  10  25
HETATM   25  O4  UNL     1      -3.117   6.957  20.745  1.00  0.00    -0.313 OA
BRANCH  25  26
HETATM   26  C7  UNL     1      -2.472   8.090  20.345  1.00  0.00     0.255 C 
HETATM   27  C8  UNL     1      -3.174   9.343  19.935  1.00  0.00     0.126 C 
HETATM   28  O5  UNL     1      -1.229   8.102  20.310  1.00  0.00    -0.266 OA
ENDBRANCH  25  26
ENDBRANCH  10  25
ENDBRANCH   1  10
BRANCH   9  29
HETATM   29  O15 UNL     1      -7.339   7.187  20.481  1.00  0.00    -0.313 OA
BRANCH  29  30
HETATM   30  C24 UNL     1      -7.407   7.778  19.233  1.00  0.00     0.255 C 
HETATM   31  C25 UNL     1      -6.629   9.007  18.959  1.00  0.00     0.126 C 
HETATM   32  O16 UNL     1      -8.145   7.225  18.376  1.00  0.00    -0.266 OA
ENDBRANCH  29  30
ENDBRANCH   9  29
BRANCH   8  33
HETATM   33  O10 UNL     1      -8.595   7.834  22.596  1.00  0.00    -0.311 OA
BRANCH  33  34
HETATM   34  C19 UNL     1      -9.488   8.132  23.619  1.00  0.00     0.293 C 
HETATM   35  O11 UNL     1      -9.530   9.332  23.957  1.00  0.00    -0.262 OA
BRANCH  34  36
HETATM   36  C20 UNL     1     -10.339   7.139  24.280  1.00  0.00     0.272 C 
BRANCH  36  37
HETATM   37  O12 UNL     1     -11.164   6.550  23.327  1.00  0.00    -0.381 OA
ATOM     38  H12 UNL     1     -11.252   5.625  23.528  1.00  0.00     0.210 HD
ENDBRANCH  36  37
BRANCH  36  39
HETATM   39  C21 UNL     1     -11.252   7.872  25.248  1.00  0.00     0.294 C 
BRANCH  39  40
HETATM   40  O13 UNL     1     -10.536   8.207  26.394  1.00  0.00    -0.368 OA
ATOM     41  H13 UNL     1     -10.714   7.568  27.075  1.00  0.00     0.212 HD
ENDBRANCH  39  40
BRANCH  39  42
HETATM   42  O14 UNL     1     -12.308   7.041  25.533  1.00  0.00    -0.363 OA
HETATM   43  C22 UNL     1     -13.180   7.706  26.392  1.00  0.00     0.204 C 
ENDBRANCH  39  42
ENDBRANCH  36  39
ENDBRANCH  34  36
ENDBRANCH  33  34
ENDBRANCH   8  33
BRANCH   6  44
HETATM   44  O9  UNL     1      -6.875   6.665  25.296  1.00  0.00    -0.391 OA
ATOM     45  H9  UNL     1      -7.762   6.944  25.490  1.00  0.00     0.210 HD
ENDBRANCH   6  44
BRANCH   5  46
HETATM   46  C14 UNL     1      -6.001   3.904  26.814  1.00  0.00     0.248 C 
HETATM   47  O6  UNL     1      -5.946   4.711  27.746  1.00  0.00    -0.281 OA
BRANCH  46  48
HETATM   48  C15 UNL     1      -6.854   2.706  26.937  1.00  0.00     0.251 C 
HETATM   49  O7  UNL     1      -7.049   2.158  28.039  1.00  0.00    -0.642 OA
HETATM   50  O8  UNL     1      -7.432   2.208  25.798  1.00  0.00    -0.642 OA
ENDBRANCH  46  48
ENDBRANCH   5  46
TORSDOF 20
ENDMDL
MODEL 4
REMARK VINA RESULT: -7.698387935      1.949      8.048
REMARK  20 active torsions:
REMARK  status: ('A' for Active; 'I' for Inactive)
REMARK    1  A    between atoms: O1_2  and  C2_3 
REMARK    2  A    between atoms: C2_3  and  C3_5 
REMARK    3  A    between atoms: C5_8  and  C6_9 
REMARK    4  A    between atoms: C6_9  and  O4_10 
REMARK    5  A    between atoms: C6_9  and  C9_14 
REMARK    6  A    between atoms: O4_10  and  C7_11 
REMARK    7  A    between atoms: C13_18  and  C14_19 
REMARK    8  A    between atoms: C14_19  and  C15_21 
REMARK    9  A    between atoms: C16_24  and  O9_25 
REMARK   10  A    between atoms: C18_28  and  O10_29 
REMARK   11  A    between atoms: O10_29  and  C19_30 
REMARK   12  A    between atoms: C19_30  and  C20_32 
REMARK   13  A    between atoms: C20_32  and  O12_33 
REMARK   14  A    between atoms: C20_32  and  C21_35 
REMARK   15  A    between atoms: C21_35  and  O13_36 
REMARK   16  A    between atoms: C21_35  and  O14_38 
REMARK   17  A    between atoms: C23_40  and  O15_41 
REMARK   18  A    between atoms: O15_41  and  C24_42 
REMARK   19  A    between atoms: C26_45  and  O17_46 
REMARK   20  A    between atoms: C26_45  and  C27_48 
ROOT
HETATM    1  C9  UNL     1      -5.800   5.736  22.484  1.00  0.00     0.055 C 
HETATM    2  C10 UNL     1      -6.491   6.911  23.143  1.00  0.00     0.008 C 
HETATM    3  C11 UNL     1      -7.898   7.082  22.706  1.00  0.00     0.042 C 
HETATM    4  C12 UNL     1      -8.769   7.105  23.915  1.00  0.00    -0.047 C 
HETATM    5  C13 UNL     1     -10.006   7.485  23.883  1.00  0.00     0.067 C 
HETATM    6  C16 UNL     1      -7.970   6.641  25.050  1.00  0.00     0.154 C 
HETATM    7  C17 UNL     1      -6.510   6.612  24.623  1.00  0.00     0.056 C 
HETATM    8  C18 UNL     1      -5.864   5.279  24.782  1.00  0.00     0.169 C 
HETATM    9  C23 UNL     1      -4.930   5.215  23.557  1.00  0.00     0.169 C 
ENDROOT
BRANCH   1  10
HETATM   10  C6  UNL     1      -5.111   6.109  21.207  1.00  0.00     0.172 C 
BRANCH  10  11
HETATM   11  C5  UNL     1      -5.806   5.661  19.984  1.00  0.00     0.208 C 
HETATM   12  O3  UNL     1      -7.210   5.441  20.136  1.00  0.00    -0.350 OA
HETATM   13  C4  UNL     1      -7.664   5.343  18.809  1.00  0.00     0.152 C 
HETATM   14  C3  UNL     1      -6.913   6.070  18.025  1.00  0.00     0.086 C 
HETATM   15  C26 UNL     1      -5.883   6.708  18.890  1.00  0.00     0.210 C 
BRANCH  14  16
HETATM   16  C2  UNL     1      -7.022   6.255  16.599  1.00  0.00     0.294 C 
HETATM   17  O2  UNL     1      -6.012   6.466  15.854  1.00  0.00    -0.259 OA
BRANCH  16  18
HETATM   18  O1  UNL     1      -8.251   6.214  15.951  1.00  0.00    -0.323 OA
HETATM   19  C1  UNL     1      -9.042   7.383  15.838  1.00  0.00     0.213 C 
ENDBRANCH  16  18
ENDBRANCH  14  16
BRANCH  15  20
HETATM   20  O17 UNL     1      -4.701   6.907  18.221  1.00  0.00    -0.372 OA
ATOM     21  H17 UNL     1      -4.309   6.089  17.941  1.00  0.00     0.211 HD
ENDBRANCH  15  20
BRANCH  15  22
HETATM   22  C27 UNL     1      -6.523   7.971  19.353  1.00  0.00     0.217 C 
HETATM   23  O18 UNL     1      -5.822   8.797  19.961  1.00  0.00    -0.645 OA
HETATM   24  O19 UNL     1      -7.854   8.203  19.109  1.00  0.00    -0.645 OA
ENDBRANCH  15  22
ENDBRANCH  10  11
BRANCH  10  25
HETATM   25  O4  UNL     1      -3.794   5.593  21.189  1.00  0.00    -0.313 OA
BRANCH  25  26
HETATM   26  C7  UNL     1      -2.690   6.203  20.672  1.00  0.00     0.255 C 
HETATM   27  C8  UNL     1      -2.479   7.682  20.681  1.00  0.00     0.126 C 
HETATM   28  O5  UNL     1      -1.796   5.508  20.158  1.00  0.00    -0.266 OA
ENDBRANCH  25  26
ENDBRANCH  10  25
ENDBRANCH   1  10
BRANCH   9  29
HETATM   29  O15 UNL     1      -3.844   6.045  23.844  1.00  0.00    -0.313 OA
BRANCH  29  30
HETATM   30  C24 UNL     1      -2.550   5.579  23.986  1.00  0.00     0.255 C 
HETATM   31  C25 UNL     1      -1.434   6.541  24.126  1.00  0.00     0.126 C 
HETATM   32  O16 UNL     1      -2.387   4.331  23.988  1.00  0.00    -0.266 OA
ENDBRANCH  29  30
ENDBRANCH   9  29
BRANCH   8  33
HETATM   33  O10 UNL     1      -5.046   5.143  25.897  1.00  0.00    -0.311 OA
BRANCH  33  34
HETATM   34  C19 UNL     1      -4.985   3.982  26.660  1.00  0.00     0.293 C 
HETATM   35  O11 UNL     1      -3.972   3.277  26.478  1.00  0.00    -0.262 OA
BRANCH  34  36
HETATM   36  C20 UNL     1      -6.015   3.578  27.620  1.00  0.00     0.272 C 
BRANCH  36  37
HETATM   37  O12 UNL     1      -5.400   2.953  28.701  1.00  0.00    -0.381 OA
ATOM     38  H12 UNL     1      -5.770   3.299  29.505  1.00  0.00     0.210 HD
ENDBRANCH  36  37
BRANCH  36  39
HETATM   39  C21 UNL     1      -6.890   2.527  26.956  1.00  0.00     0.294 C 
BRANCH  39  40
HETATM   40  O13 UNL     1      -6.425   2.289  25.665  1.00  0.00    -0.368 OA
ATOM     41  H13 UNL     1      -5.974   1.452  25.643  1.00  0.00     0.212 HD
ENDBRANCH  39  40
BRANCH  39  42
HETATM   42  O14 UNL     1      -8.179   3.003  26.952  1.00  0.00    -0.363 OA
HETATM   43  C22 UNL     1      -8.945   2.208  26.103  1.00  0.00     0.204 C 
ENDBRANCH  39  42
ENDBRANCH  36  39
ENDBRANCH  34  36
ENDBRANCH  33  34
ENDBRANCH   8  33
BRANCH   6  44
HETATM   44  O9  UNL     1      -8.408   5.354  25.383  1.00  0.00    -0.391 OA
ATOM     45  H9  UNL     1      -9.330   5.295  25.165  1.00  0.00     0.210 HD
ENDBRANCH   6  44
BRANCH   5  46
HETATM   46  C14 UNL     1     -10.848   7.506  25.059  1.00  0.00     0.248 C 
HETATM   47  O6  UNL     1     -10.809   8.428  25.877  1.00  0.00    -0.281 OA
BRANCH  46  48
HETATM   48  C15 UNL     1     -11.780   6.381  25.275  1.00  0.00     0.251 C 
HETATM   49  O7  UNL     1     -11.526   5.236  24.855  1.00  0.00    -0.642 OA
HETATM   50  O8  UNL     1     -12.944   6.633  25.956  1.00  0.00    -0.642 OA
ENDBRANCH  46  48
ENDBRANCH   5  46
TORSDOF 20
ENDMDL
MODEL 5
REMARK VINA RESULT: -7.635270458      2.376      6.430
REMARK  20 active torsions:
REMARK  status: ('A' for Active; 'I' for Inactive)
REMARK    1  A    between atoms: O1_2  and  C2_3 
REMARK    2  A    between atoms: C2_3  and  C3_5 
REMARK    3  A    between atoms: C5_8  and  C6_9 
REMARK    4  A    between atoms: C6_9  and  O4_10 
REMARK    5  A    between atoms: C6_9  and  C9_14 
REMARK    6  A    between atoms: O4_10  and  C7_11 
REMARK    7  A    between atoms: C13_18  and  C14_19 
REMARK    8  A    between atoms: C14_19  and  C15_21 
REMARK    9  A    between atoms: C16_24  and  O9_25 
REMARK   10  A    between atoms: C18_28  and  O10_29 
REMARK   11  A    between atoms: O10_29  and  C19_30 
REMARK   12  A    between atoms: C19_30  and  C20_32 
REMARK   13  A    between atoms: C20_32  and  O12_33 
REMARK   14  A    between atoms: C20_32  and  C21_35 
REMARK   15  A    between atoms: C21_35  and  O13_36 
REMARK   16  A    between atoms: C21_35  and  O14_38 
REMARK   17  A    between atoms: C23_40  and  O15_41 
REMARK   18  A    between atoms: O15_41  and  C24_42 
REMARK   19  A    between atoms: C26_45  and  O17_46 
REMARK   20  A    between atoms: C26_45  and  C27_48 
ROOT
HETATM    1  C9  UNL     1      -7.152   5.892  24.400  1.00  0.00     0.055 C 
HETATM    2  C10 UNL     1      -6.700   5.445  23.027  1.00  0.00     0.008 C 
HETATM    3  C11 UNL     1      -7.382   6.166  21.923  1.00  0.00     0.042 C 
HETATM    4  C12 UNL     1      -6.343   6.760  21.035  1.00  0.00    -0.047 C 
HETATM    5  C13 UNL     1      -6.611   7.234  19.860  1.00  0.00     0.067 C 
HETATM    6  C16 UNL     1      -5.061   6.688  21.735  1.00  0.00     0.154 C 
HETATM    7  C17 UNL     1      -5.228   5.774  22.940  1.00  0.00     0.056 C 
HETATM    8  C18 UNL     1      -4.874   6.419  24.236  1.00  0.00     0.169 C 
HETATM    9  C23 UNL     1      -5.914   5.816  25.202  1.00  0.00     0.169 C 
ENDROOT
BRANCH   1  10
HETATM   10  C6  UNL     1      -8.314   5.099  24.916  1.00  0.00     0.172 C 
BRANCH  10  11
HETATM   11  C5  UNL     1      -9.173   5.824  25.873  1.00  0.00     0.208 C 
HETATM   12  O3  UNL     1      -8.769   7.168  26.145  1.00  0.00    -0.350 OA
HETATM   13  C4  UNL     1      -9.887   7.711  26.801  1.00  0.00     0.152 C 
HETATM   14  C3  UNL     1     -10.979   7.133  26.377  1.00  0.00     0.086 C 
HETATM   15  C26 UNL     1     -10.564   6.132  25.356  1.00  0.00     0.210 C 
BRANCH  14  16
HETATM   16  C2  UNL     1     -12.341   7.383  26.781  1.00  0.00     0.294 C 
HETATM   17  O2  UNL     1     -12.638   8.075  27.807  1.00  0.00    -0.259 OA
BRANCH  16  18
HETATM   18  O1  UNL     1     -13.418   6.874  26.064  1.00  0.00    -0.323 OA
HETATM   19  C1  UNL     1     -14.745   7.174  26.454  1.00  0.00     0.213 C 
ENDBRANCH  16  18
ENDBRANCH  14  16
BRANCH  15  20
HETATM   20  O17 UNL     1     -11.404   5.048  25.327  1.00  0.00    -0.372 OA
ATOM     21  H17 UNL     1     -11.025   4.316  24.855  1.00  0.00     0.211 HD
ENDBRANCH  15  20
BRANCH  15  22
HETATM   22  C27 UNL     1     -10.541   6.898  24.078  1.00  0.00     0.217 C 
HETATM   23  O18 UNL     1     -10.860   6.309  23.032  1.00  0.00    -0.645 OA
HETATM   24  O19 UNL     1     -10.173   8.221  24.070  1.00  0.00    -0.645 OA
ENDBRANCH  15  22
ENDBRANCH  10  11
BRANCH  10  25
HETATM   25  O4  UNL     1      -7.864   3.908  25.530  1.00  0.00    -0.313 OA
BRANCH  25  26
HETATM   26  C7  UNL     1      -8.616   3.037  26.263  1.00  0.00     0.255 C 
HETATM   27  C8  UNL     1      -8.211   2.518  27.604  1.00  0.00     0.126 C 
HETATM   28  O5  UNL     1      -9.702   2.640  25.809  1.00  0.00    -0.266 OA
ENDBRANCH  25  26
ENDBRANCH  10  25
ENDBRANCH   1  10
BRANCH   9  29
HETATM   29  O15 UNL     1      -5.501   4.508  25.462  1.00  0.00    -0.313 OA
BRANCH  29  30
HETATM   30  C24 UNL     1      -4.870   4.131  26.633  1.00  0.00     0.255 C 
HETATM   31  C25 UNL     1      -5.247   4.777  27.911  1.00  0.00     0.126 C 
HETATM   32  O16 UNL     1      -3.988   3.237  26.548  1.00  0.00    -0.266 OA
ENDBRANCH  29  30
ENDBRANCH   9  29
BRANCH   8  33
HETATM   33  O10 UNL     1      -3.629   6.077  24.751  1.00  0.00    -0.311 OA
BRANCH  33  34
HETATM   34  C19 UNL     1      -2.610   5.532  23.978  1.00  0.00     0.293 C 
HETATM   35  O11 UNL     1      -2.793   4.354  23.609  1.00  0.00    -0.262 OA
BRANCH  34  36
HETATM   36  C20 UNL     1      -1.392   6.252  23.601  1.00  0.00     0.272 C 
BRANCH  36  37
HETATM   37  O12 UNL     1      -1.273   7.382  24.404  1.00  0.00    -0.381 OA
ATOM     38  H12 UNL     1      -0.371   7.458  24.694  1.00  0.00     0.210 HD
ENDBRANCH  36  37
BRANCH  36  39
HETATM   39  C21 UNL     1      -1.563   6.752  22.176  1.00  0.00     0.294 C 
BRANCH  39  40
HETATM   40  O13 UNL     1      -1.742   5.665  21.324  1.00  0.00    -0.368 OA
ATOM     41  H13 UNL     1      -1.681   5.958  20.422  1.00  0.00     0.212 HD
ENDBRANCH  39  40
BRANCH  39  42
HETATM   42  O14 UNL     1      -0.440   7.473  21.851  1.00  0.00    -0.363 OA
HETATM   43  C22 UNL     1      -0.302   7.483  20.465  1.00  0.00     0.204 C 
ENDBRANCH  39  42
ENDBRANCH  36  39
ENDBRANCH  34  36
ENDBRANCH  33  34
ENDBRANCH   8  33
BRANCH   6  44
HETATM   44  O9  UNL     1      -4.723   7.982  22.145  1.00  0.00    -0.391 OA
ATOM     45  H9  UNL     1      -4.550   8.497  21.367  1.00  0.00     0.210 HD
ENDBRANCH   6  44
BRANCH   5  46
HETATM   46  C14 UNL     1      -5.601   7.811  19.000  1.00  0.00     0.248 C 
HETATM   47  O6  UNL     1      -5.167   8.953  19.174  1.00  0.00    -0.281 OA
BRANCH  46  48
HETATM   48  C15 UNL     1      -5.080   6.996  17.885  1.00  0.00     0.251 C 
HETATM   49  O7  UNL     1      -5.668   5.966  17.502  1.00  0.00    -0.642 OA
HETATM   50  O8  UNL     1      -3.922   7.406  17.275  1.00  0.00    -0.642 OA
ENDBRANCH  46  48
ENDBRANCH   5  46
TORSDOF 20
ENDMDL
