MODEL 1
REMARK VINA RESULT: -6.999424035      0.000      0.000
REMARK  7 active torsions:
REMARK  status: ('A' for Active; 'I' for Inactive)
REMARK    1  A    between atoms: C2_2  and  N1_3 
REMARK    2  A    between atoms: C3_4  and  O1_5 
REMARK    3  A    between atoms: O1_5  and  C4_6 
REMARK    4  A    between atoms: C4_6  and  C5_8 
REMARK    5  A    between atoms: C8_13  and  C9_14 
REMARK    6  A    between atoms: C9_14  and  C10_15 
REMARK    7  A    between atoms: C10_15  and  O4_17 
ROOT
HETATM    1  C4  UNL     1      11.740  18.579  47.862  1.00  0.00     0.303 C 
HETATM    2  O2  UNL     1      12.648  19.245  48.482  1.00  0.00    -0.259 OA
ENDROOT
BRANCH   1   3
HETATM    3  O1  UNL     1      10.604  18.360  48.584  1.00  0.00    -0.290 OA
BRANCH   3   4
HETATM    4  C3  UNL     1       9.469  19.206  48.552  1.00  0.00     0.239 C 
HETATM    5  N1  UNL     1       9.640  20.511  49.002  1.00  0.00    -0.369 N 
HETATM    6  C14 UNL     1       9.387  20.752  50.339  1.00  0.00     0.079 C 
HETATM    7  S2  UNL     1       8.102  19.498  50.732  1.00  0.00    -0.134 SA
HETATM    8  C15 UNL     1      10.519  20.517  51.305  1.00  0.00     0.042 C 
HETATM    9  C18 UNL     1       8.870  22.075  50.757  1.00  0.00     0.042 C 
HETATM   10  C13 UNL     1       8.279  18.538  49.187  1.00  0.00     0.130 C 
HETATM   11  C16 UNL     1      11.152  21.867  51.480  1.00  0.00     0.003 C 
HETATM   12  C17 UNL     1      10.063  22.888  51.202  1.00  0.00     0.003 C 
BRANCH   5  13
HETATM   13  C2  UNL     1       9.438  21.529  48.033  1.00  0.00     0.116 C 
HETATM   14  C1  UNL     1      10.711  22.158  47.537  1.00  0.00     0.026 C 
ENDBRANCH   5  13
ENDBRANCH   3   4
ENDBRANCH   1   3
BRANCH   1  15
HETATM   15  C5  UNL     1      12.018  18.146  46.505  1.00  0.00     0.098 A 
HETATM   16  C6  UNL     1      12.536  16.981  46.227  1.00  0.00     0.028 A 
HETATM   17  C7  UNL     1      12.847  16.070  47.389  1.00  0.00     0.070 C 
HETATM   18  N2  UNL     1      12.803  16.548  44.918  1.00  0.00    -0.364 N 
HETATM   19  C8  UNL     1      12.628  17.116  43.820  1.00  0.00     0.005 A 
ATOM     20  H2  UNL     1      13.208  15.614  44.854  1.00  0.00     0.165 HD
HETATM   21  C12 UNL     1      12.067  18.441  43.619  1.00  0.00     0.132 A 
HETATM   22  S1  UNL     1      11.650  19.243  45.157  1.00  0.00    -0.116 SA
BRANCH  19  23
HETATM   23  C9  UNL     1      13.029  16.359  42.599  1.00  0.00     0.164 C 
BRANCH  23  24
HETATM   24  C10 UNL     1      13.967  15.260  42.842  1.00  0.00     0.263 C 
HETATM   25  O3  UNL     1      14.960  15.306  43.598  1.00  0.00    -0.265 OA
BRANCH  24  26
HETATM   26  O4  UNL     1      13.742  14.061  42.182  1.00  0.00    -0.326 OA
HETATM   27  C11 UNL     1      14.621  12.977  42.206  1.00  0.00     0.213 C 
ENDBRANCH  24  26
ENDBRANCH  23  24
ENDBRANCH  19  23
ENDBRANCH   1  15
TORSDOF 7
ENDMDL
MODEL 2
REMARK VINA RESULT: -6.940151383      1.926      2.898
REMARK  7 active torsions:
REMARK  status: ('A' for Active; 'I' for Inactive)
REMARK    1  A    between atoms: C2_2  and  N1_3 
REMARK    2  A    between atoms: C3_4  and  O1_5 
REMARK    3  A    between atoms: O1_5  and  C4_6 
REMARK    4  A    between atoms: C4_6  and  C5_8 
REMARK    5  A    between atoms: C8_13  and  C9_14 
REMARK    6  A    between atoms: C9_14  and  C10_15 
REMARK    7  A    between atoms: C10_15  and  O4_17 
ROOT
HETATM    1  C4  UNL     1      12.709  18.297  46.309  1.00  0.00     0.303 C 
HETATM    2  O2  UNL     1      13.421  19.283  46.727  1.00  0.00    -0.259 OA
ENDROOT
BRANCH   1   3
HETATM    3  O1  UNL     1      11.415  18.307  46.740  1.00  0.00    -0.290 OA
BRANCH   3   4
HETATM    4  C3  UNL     1      11.000  17.853  48.014  1.00  0.00     0.239 C 
HETATM    5  N1  UNL     1      10.359  18.773  48.836  1.00  0.00    -0.369 N 
HETATM    6  C14 UNL     1      11.154  19.497  49.706  1.00  0.00     0.079 C 
HETATM    7  S2  UNL     1      12.535  18.333  50.043  1.00  0.00    -0.134 SA
HETATM    8  C15 UNL     1      11.781  20.759  49.173  1.00  0.00     0.042 C 
HETATM    9  C18 UNL     1      10.601  19.932  51.009  1.00  0.00     0.042 C 
HETATM   10  C13 UNL     1      12.118  17.138  48.724  1.00  0.00     0.130 C 
HETATM   11  C16 UNL     1      10.839  21.852  49.584  1.00  0.00     0.003 C 
HETATM   12  C17 UNL     1      10.122  21.353  50.825  1.00  0.00     0.003 C 
BRANCH   5  13
HETATM   13  C2  UNL     1       9.012  18.471  49.169  1.00  0.00     0.116 C 
HETATM   14  C1  UNL     1       8.006  19.366  48.499  1.00  0.00     0.026 C 
ENDBRANCH   5  13
ENDBRANCH   3   4
ENDBRANCH   1   3
BRANCH   1  15
HETATM   15  C5  UNL     1      13.345  17.312  45.452  1.00  0.00     0.098 A 
HETATM   16  C6  UNL     1      13.060  17.190  44.185  1.00  0.00     0.028 A 
HETATM   17  C7  UNL     1      12.022  18.127  43.618  1.00  0.00     0.070 C 
HETATM   18  N2  UNL     1      13.673  16.248  43.344  1.00  0.00    -0.364 N 
HETATM   19  C8  UNL     1      14.546  15.388  43.583  1.00  0.00     0.005 A 
ATOM     20  H2  UNL     1      13.351  16.268  42.376  1.00  0.00     0.165 HD
HETATM   21  C12 UNL     1      15.182  15.144  44.866  1.00  0.00     0.132 A 
HETATM   22  S1  UNL     1      14.557  16.216  46.148  1.00  0.00    -0.116 SA
BRANCH  19  23
HETATM   23  C9  UNL     1      14.981  14.534  42.440  1.00  0.00     0.164 C 
BRANCH  23  24
HETATM   24  C10 UNL     1      14.195  13.311  42.257  1.00  0.00     0.263 C 
HETATM   25  O3  UNL     1      12.972  13.265  42.007  1.00  0.00    -0.265 OA
BRANCH  24  26
HETATM   26  O4  UNL     1      14.854  12.096  42.366  1.00  0.00    -0.326 OA
HETATM   27  C11 UNL     1      16.071  11.806  41.747  1.00  0.00     0.213 C 
ENDBRANCH  24  26
ENDBRANCH  23  24
ENDBRANCH  19  23
ENDBRANCH   1  15
TORSDOF 7
ENDMDL
MODEL 3
REMARK VINA RESULT: -6.925311367      1.352      1.770
REMARK  7 active torsions:
REMARK  status: ('A' for Active; 'I' for Inactive)
REMARK    1  A    between atoms: C2_2  and  N1_3 
REMARK    2  A    between atoms: C3_4  and  O1_5 
REMARK    3  A    between atoms: O1_5  and  C4_6 
REMARK    4  A    between atoms: C4_6  and  C5_8 
REMARK    5  A    between atoms: C8_13  and  C9_14 
REMARK    6  A    between atoms: C9_14  and  C10_15 
REMARK    7  A    between atoms: C10_15  and  O4_17 
ROOT
HETATM    1  C4  UNL     1      11.549  18.307  47.839  1.00  0.00     0.303 C 
HETATM    2  O2  UNL     1      12.518  18.713  48.581  1.00  0.00    -0.259 OA
ENDROOT
BRANCH   1   3
HETATM    3  O1  UNL     1      10.373  18.108  48.500  1.00  0.00    -0.290 OA
BRANCH   3   4
HETATM    4  C3  UNL     1       9.316  19.049  48.539  1.00  0.00     0.239 C 
HETATM    5  N1  UNL     1       9.608  20.307  49.055  1.00  0.00    -0.369 N 
HETATM    6  C14 UNL     1       9.400  20.494  50.409  1.00  0.00     0.079 C 
HETATM    7  S2  UNL     1       8.018  19.335  50.762  1.00  0.00    -0.134 SA
HETATM    8  C15 UNL     1      10.524  20.109  51.335  1.00  0.00     0.042 C 
HETATM    9  C18 UNL     1       9.008  21.831  50.909  1.00  0.00     0.042 C 
HETATM   10  C13 UNL     1       8.084  18.452  49.163  1.00  0.00     0.130 C 
HETATM   11  C16 UNL     1      11.275  21.387  51.569  1.00  0.00     0.003 C 
HETATM   12  C17 UNL     1      10.275  22.512  51.371  1.00  0.00     0.003 C 
BRANCH   5  13
HETATM   13  C2  UNL     1       9.478  21.391  48.147  1.00  0.00     0.116 C 
HETATM   14  C1  UNL     1      10.789  22.018  47.758  1.00  0.00     0.026 C 
ENDBRANCH   5  13
ENDBRANCH   3   4
ENDBRANCH   1   3
BRANCH   1  15
HETATM   15  C5  UNL     1      11.809  18.113  46.424  1.00  0.00     0.098 A 
HETATM   16  C6  UNL     1      12.322  17.013  45.945  1.00  0.00     0.028 A 
HETATM   17  C7  UNL     1      12.649  15.918  46.930  1.00  0.00     0.070 C 
HETATM   18  N2  UNL     1      12.571  16.810  44.578  1.00  0.00    -0.364 N 
HETATM   19  C8  UNL     1      12.381  17.556  43.595  1.00  0.00     0.005 A 
ATOM     20  H2  UNL     1      12.975  15.901  44.350  1.00  0.00     0.165 HD
HETATM   21  C12 UNL     1      11.817  18.894  43.630  1.00  0.00     0.132 A 
HETATM   22  S1  UNL     1      11.421  19.422  45.287  1.00  0.00    -0.116 SA
BRANCH  19  23
HETATM   23  C9  UNL     1      12.765  17.019  42.258  1.00  0.00     0.164 C 
BRANCH  23  24
HETATM   24  C10 UNL     1      11.761  16.152  41.636  1.00  0.00     0.263 C 
HETATM   25  O3  UNL     1      11.516  14.972  41.965  1.00  0.00    -0.265 OA
BRANCH  24  26
HETATM   26  O4  UNL     1      11.012  16.674  40.592  1.00  0.00    -0.326 OA
HETATM   27  C11 UNL     1      11.383  17.794  39.846  1.00  0.00     0.213 C 
ENDBRANCH  24  26
ENDBRANCH  23  24
ENDBRANCH  19  23
ENDBRANCH   1  15
TORSDOF 7
ENDMDL
MODEL 4
REMARK VINA RESULT: -6.840905927      3.635      8.553
REMARK  7 active torsions:
REMARK  status: ('A' for Active; 'I' for Inactive)
REMARK    1  A    between atoms: C2_2  and  N1_3 
REMARK    2  A    between atoms: C3_4  and  O1_5 
REMARK    3  A    between atoms: O1_5  and  C4_6 
REMARK    4  A    between atoms: C4_6  and  C5_8 
REMARK    5  A    between atoms: C8_13  and  C9_14 
REMARK    6  A    between atoms: C9_14  and  C10_15 
REMARK    7  A    between atoms: C10_15  and  O4_17 
ROOT
HETATM    1  C4  UNL     1       9.795  19.430  50.897  1.00  0.00     0.303 C 
HETATM    2  O2  UNL     1       9.108  18.931  51.863  1.00  0.00    -0.259 OA
ENDROOT
BRANCH   1   3
HETATM    3  O1  UNL     1      10.710  18.578  50.352  1.00  0.00    -0.290 OA
BRANCH   3   4
HETATM    4  C3  UNL     1      11.911  18.996  49.731  1.00  0.00     0.239 C 
HETATM    5  N1  UNL     1      12.095  18.634  48.401  1.00  0.00    -0.369 N 
HETATM    6  C14 UNL     1      12.758  17.445  48.161  1.00  0.00     0.079 C 
HETATM    7  S2  UNL     1      13.875  17.312  49.613  1.00  0.00    -0.134 SA
HETATM    8  C15 UNL     1      11.927  16.187  48.147  1.00  0.00     0.042 C 
HETATM    9  C18 UNL     1      13.584  17.304  46.940  1.00  0.00     0.042 C 
HETATM   10  C13 UNL     1      13.106  18.658  50.582  1.00  0.00     0.130 C 
HETATM   11  C16 UNL     1      11.604  15.964  46.698  1.00  0.00     0.003 C 
HETATM   12  C17 UNL     1      12.720  16.621  45.906  1.00  0.00     0.003 C 
BRANCH   5  13
HETATM   13  C2  UNL     1      12.176  19.707  47.475  1.00  0.00     0.116 C 
HETATM   14  C1  UNL     1      10.929  19.899  46.656  1.00  0.00     0.026 C 
ENDBRANCH   5  13
ENDBRANCH   3   4
ENDBRANCH   1   3
BRANCH   1  15
HETATM   15  C5  UNL     1       9.528  20.803  50.509  1.00  0.00     0.098 A 
HETATM   16  C6  UNL     1       8.671  21.119  49.577  1.00  0.00     0.028 A 
HETATM   17  C7  UNL     1       7.945  19.986  48.895  1.00  0.00     0.070 C 
HETATM   18  N2  UNL     1       8.399  22.443  49.198  1.00  0.00    -0.364 N 
HETATM   19  C8  UNL     1       8.864  23.524  49.617  1.00  0.00     0.005 A 
ATOM     20  H2  UNL     1       7.705  22.539  48.456  1.00  0.00     0.165 HD
HETATM   21  C12 UNL     1       9.856  23.682  50.666  1.00  0.00     0.132 A 
HETATM   22  S1  UNL     1      10.404  22.117  51.324  1.00  0.00    -0.116 SA
BRANCH  19  23
HETATM   23  C9  UNL     1       8.347  24.770  48.982  1.00  0.00     0.164 C 
BRANCH  23  24
HETATM   24  C10 UNL     1       7.065  25.241  49.514  1.00  0.00     0.263 C 
HETATM   25  O3  UNL     1       6.026  24.556  49.618  1.00  0.00    -0.265 OA
BRANCH  24  26
HETATM   26  O4  UNL     1       6.987  26.557  49.943  1.00  0.00    -0.326 OA
HETATM   27  C11 UNL     1       7.976  27.199  50.690  1.00  0.00     0.213 C 
ENDBRANCH  24  26
ENDBRANCH  23  24
ENDBRANCH  19  23
ENDBRANCH   1  15
TORSDOF 7
ENDMDL
MODEL 5
REMARK VINA RESULT: -6.838678815      1.784      2.698
REMARK  7 active torsions:
REMARK  status: ('A' for Active; 'I' for Inactive)
REMARK    1  A    between atoms: C2_2  and  N1_3 
REMARK    2  A    between atoms: C3_4  and  O1_5 
REMARK    3  A    between atoms: O1_5  and  C4_6 
REMARK    4  A    between atoms: C4_6  and  C5_8 
REMARK    5  A    between atoms: C8_13  and  C9_14 
REMARK    6  A    between atoms: C9_14  and  C10_15 
REMARK    7  A    between atoms: C10_15  and  O4_17 
ROOT
HETATM    1  C4  UNL     1      10.761  19.376  47.533  1.00  0.00     0.303 C 
HETATM    2  O2  UNL     1       9.682  19.772  46.955  1.00  0.00    -0.259 OA
ENDROOT
BRANCH   1   3
HETATM    3  O1  UNL     1      10.978  19.921  48.764  1.00  0.00    -0.290 OA
BRANCH   3   4
HETATM    4  C3  UNL     1      10.616  19.299  49.982  1.00  0.00     0.239 C 
HETATM    5  N1  UNL     1       9.521  19.825  50.660  1.00  0.00    -0.369 N 
HETATM    6  C14 UNL     1       9.778  20.801  51.603  1.00  0.00     0.079 C 
HETATM    7  S2  UNL     1      11.460  20.354  52.191  1.00  0.00    -0.134 SA
HETATM    8  C15 UNL     1       9.864  22.224  51.112  1.00  0.00     0.042 C 
HETATM    9  C18 UNL     1       8.900  20.918  52.790  1.00  0.00     0.042 C 
HETATM   10  C13 UNL     1      11.812  19.130  50.880  1.00  0.00     0.130 C 
HETATM   11  C16 UNL     1       8.488  22.782  51.332  1.00  0.00     0.003 C 
HETATM   12  C17 UNL     1       7.882  21.989  52.476  1.00  0.00     0.003 C 
BRANCH   5  13
HETATM   13  C2  UNL     1       8.409  18.954  50.804  1.00  0.00     0.116 C 
HETATM   14  C1  UNL     1       7.481  18.952  49.621  1.00  0.00     0.026 C 
ENDBRANCH   5  13
ENDBRANCH   3   4
ENDBRANCH   1   3
BRANCH   1  15
HETATM   15  C5  UNL     1      11.600  18.423  46.830  1.00  0.00     0.098 A 
HETATM   16  C6  UNL     1      12.176  18.695  45.691  1.00  0.00     0.028 A 
HETATM   17  C7  UNL     1      11.937  20.065  45.107  1.00  0.00     0.070 C 
HETATM   18  N2  UNL     1      12.996  17.785  45.005  1.00  0.00    -0.364 N 
HETATM   19  C8  UNL     1      13.336  16.617  45.291  1.00  0.00     0.005 A 
ATOM     20  H2  UNL     1      13.378  18.135  44.127  1.00  0.00     0.165 HD
HETATM   21  C12 UNL     1      12.944  15.876  46.477  1.00  0.00     0.132 A 
HETATM   22  S1  UNL     1      11.857  16.814  47.537  1.00  0.00    -0.116 SA
BRANCH  19  23
HETATM   23  C9  UNL     1      14.232  15.921  44.324  1.00  0.00     0.164 C 
BRANCH  23  24
HETATM   24  C10 UNL     1      13.752  15.913  42.940  1.00  0.00     0.263 C 
HETATM   25  O3  UNL     1      13.172  16.860  42.368  1.00  0.00    -0.265 OA
BRANCH  24  26
HETATM   26  O4  UNL     1      13.953  14.764  42.192  1.00  0.00    -0.326 OA
HETATM   27  C11 UNL     1      14.947  13.820  42.456  1.00  0.00     0.213 C 
ENDBRANCH  24  26
ENDBRANCH  23  24
ENDBRANCH  19  23
ENDBRANCH   1  15
TORSDOF 7
ENDMDL
