MODEL 1
REMARK VINA RESULT: -5.193961018      0.000      0.000
REMARK  1 active torsions:
REMARK  status: ('A' for Active; 'I' for Inactive)
REMARK    1  A    between atoms: C5_5  and  O1_6 
ROOT
HETATM    1  C1  UNL     1      20.824   4.228  23.458  1.00  0.00     0.017 C 
HETATM    2  C2  UNL     1      21.409   2.900  22.942  1.00  0.00    -0.018 C 
HETATM    3  C3  UNL     1      20.240   2.063  22.567  1.00  0.00     0.014 C 
HETATM    4  C4  UNL     1      20.547   0.640  22.259  1.00  0.00     0.041 C 
HETATM    5  C5  UNL     1      22.021   0.378  22.472  1.00  0.00     0.087 C 
HETATM    6  C6  UNL     1      22.801   0.818  21.295  1.00  0.00     0.053 C 
HETATM    7  C7  UNL     1      23.019   2.251  21.102  1.00  0.00     0.001 A 
HETATM    8  C8  UNL     1      24.381   2.598  20.482  1.00  0.00     0.019 C 
HETATM    9  C9  UNL     1      21.895   3.082  20.470  1.00  0.00     0.189 A 
HETATM   10  F1  UNL     1      22.212   4.112  19.628  1.00  0.00    -0.248 F 
HETATM   11  C10 UNL     1      22.359   3.241  21.875  1.00  0.00     0.006 A 
HETATM   12  C11 UNL     1      23.179   4.501  22.207  1.00  0.00     0.020 C 
HETATM   13  C12 UNL     1      22.507   0.886  23.784  1.00  0.00     0.120 C 
HETATM   14 BR1  UNL     1      24.423   0.698  23.888  1.00  0.00    -0.068 Br
HETATM   15 BR2  UNL     1      21.749  -0.271  25.166  1.00  0.00    -0.068 Br
HETATM   16  C13 UNL     1      22.119   2.280  24.111  1.00  0.00     0.100 C 
HETATM   17 BR3  UNL     1      20.919   2.368  25.645  1.00  0.00    -0.088 Br
ENDROOT
BRANCH   5  18
HETATM   18  O1  UNL     1      22.136  -1.035  22.532  1.00  0.00    -0.387 OA
ATOM     19  H1  UNL     1      21.769  -1.345  21.712  1.00  0.00     0.210 HD
ENDBRANCH   5  18
TORSDOF 1
ENDMDL
MODEL 2
REMARK VINA RESULT: -4.539285400      3.859      5.207
REMARK  1 active torsions:
REMARK  status: ('A' for Active; 'I' for Inactive)
REMARK    1  A    between atoms: C5_5  and  O1_6 
ROOT
HETATM    1  C1  UNL     1      22.968   0.226  20.632  1.00  0.00     0.017 C 
HETATM    2  C2  UNL     1      23.490   1.460  19.872  1.00  0.00    -0.018 C 
HETATM    3  C3  UNL     1      22.849   1.410  18.532  1.00  0.00     0.014 C 
HETATM    4  C4  UNL     1      23.383   2.375  17.533  1.00  0.00     0.041 C 
HETATM    5  C5  UNL     1      24.529   3.154  18.138  1.00  0.00     0.087 C 
HETATM    6  C6  UNL     1      24.018   4.268  18.966  1.00  0.00     0.053 C 
HETATM    7  C7  UNL     1      23.455   3.956  20.279  1.00  0.00     0.001 A 
HETATM    8  C8  UNL     1      23.719   5.032  21.344  1.00  0.00     0.019 C 
HETATM    9  C9  UNL     1      22.009   3.449  20.351  1.00  0.00     0.189 A 
HETATM   10  F1  UNL     1      21.216   3.824  21.401  1.00  0.00    -0.248 F 
HETATM   11  C10 UNL     1      23.198   2.630  20.711  1.00  0.00     0.006 A 
HETATM   12  C11 UNL     1      23.431   2.346  22.206  1.00  0.00     0.020 C 
HETATM   13  C12 UNL     1      25.530   2.275  18.801  1.00  0.00     0.120 C 
HETATM   14 BR1  UNL     1      26.841   3.352  19.717  1.00  0.00    -0.068 Br
HETATM   15 BR2  UNL     1      26.477   1.311  17.387  1.00  0.00    -0.068 Br
HETATM   16  C13 UNL     1      24.972   1.262  19.730  1.00  0.00     0.100 C 
HETATM   17 BR3  UNL     1      25.265  -0.559  19.095  1.00  0.00    -0.088 Br
ENDROOT
BRANCH   5  18
HETATM   18  O1  UNL     1      25.195   3.741  17.031  1.00  0.00    -0.387 OA
ATOM     19  H1  UNL     1      25.654   3.022  16.612  1.00  0.00     0.210 HD
ENDBRANCH   5  18
TORSDOF 1
ENDMDL
MODEL 3
REMARK VINA RESULT: -4.279961828      1.646      2.375
REMARK  1 active torsions:
REMARK  status: ('A' for Active; 'I' for Inactive)
REMARK    1  A    between atoms: C5_5  and  O1_6 
ROOT
HETATM    1  C1  UNL     1      22.163   3.643  20.547  1.00  0.00     0.017 C 
HETATM    2  C2  UNL     1      22.118   2.364  21.405  1.00  0.00    -0.018 C 
HETATM    3  C3  UNL     1      20.692   1.944  21.428  1.00  0.00     0.014 C 
HETATM    4  C4  UNL     1      20.362   0.859  22.391  1.00  0.00     0.041 C 
HETATM    5  C5  UNL     1      21.597   0.484  23.179  1.00  0.00     0.087 C 
HETATM    6  C6  UNL     1      22.446  -0.444  22.400  1.00  0.00     0.053 C 
HETATM    7  C7  UNL     1      23.238   0.099  21.298  1.00  0.00     0.001 A 
HETATM    8  C8  UNL     1      24.597  -0.592  21.104  1.00  0.00     0.019 C 
HETATM    9  C9  UNL     1      22.544   0.344  19.951  1.00  0.00     0.189 A 
HETATM   10  F1  UNL     1      23.234   0.126  18.791  1.00  0.00    -0.248 F 
HETATM   11  C10 UNL     1      23.083   1.425  20.819  1.00  0.00     0.006 A 
HETATM   12  C11 UNL     1      24.368   2.132  20.348  1.00  0.00     0.020 C 
HETATM   13  C12 UNL     1      22.298   1.669  23.741  1.00  0.00     0.120 C 
HETATM   14 BR1  UNL     1      23.961   1.123  24.550  1.00  0.00    -0.068 Br
HETATM   15 BR2  UNL     1      21.176   2.376  25.177  1.00  0.00    -0.068 Br
HETATM   16  C13 UNL     1      22.544   2.777  22.785  1.00  0.00     0.100 C 
HETATM   17 BR3  UNL     1      21.548   4.387  23.254  1.00  0.00    -0.088 Br
ENDROOT
BRANCH   5  18
HETATM   18  O1  UNL     1      21.110  -0.248  24.293  1.00  0.00    -0.387 OA
ATOM     19  H1  UNL     1      21.780  -0.152  24.960  1.00  0.00     0.210 HD
ENDBRANCH   5  18
TORSDOF 1
ENDMDL
MODEL 4
REMARK VINA RESULT: -4.262651689      1.717      2.845
REMARK  1 active torsions:
REMARK  status: ('A' for Active; 'I' for Inactive)
REMARK    1  A    between atoms: C5_5  and  O1_6 
ROOT
HETATM    1  C1  UNL     1      19.991  -0.178  22.286  1.00  0.00     0.017 C 
HETATM    2  C2  UNL     1      21.401   0.352  22.613  1.00  0.00    -0.018 C 
HETATM    3  C3  UNL     1      22.336  -0.450  21.780  1.00  0.00     0.014 C 
HETATM    4  C4  UNL     1      23.779  -0.278  22.098  1.00  0.00     0.041 C 
HETATM    5  C5  UNL     1      23.935   0.659  23.274  1.00  0.00     0.087 C 
HETATM    6  C6  UNL     1      23.849   2.067  22.829  1.00  0.00     0.053 C 
HETATM    7  C7  UNL     1      22.534   2.609  22.491  1.00  0.00     0.001 A 
HETATM    8  C8  UNL     1      22.359   4.094  22.849  1.00  0.00     0.019 C 
HETATM    9  C9  UNL     1      21.952   2.302  21.105  1.00  0.00     0.189 A 
HETATM   10  F1  UNL     1      21.212   3.254  20.460  1.00  0.00    -0.248 F 
HETATM   11  C10 UNL     1      21.373   1.802  22.382  1.00  0.00     0.006 A 
HETATM   12  C11 UNL     1      20.054   2.441  22.855  1.00  0.00     0.020 C 
HETATM   13  C12 UNL     1      23.051   0.296  24.414  1.00  0.00     0.120 C 
HETATM   14 BR1  UNL     1      23.160   1.650  25.783  1.00  0.00    -0.068 Br
HETATM   15 BR2  UNL     1      23.759  -1.352  25.191  1.00  0.00    -0.068 Br
HETATM   16  C13 UNL     1      21.631   0.046  24.065  1.00  0.00     0.100 C 
HETATM   17 BR3  UNL     1      21.115  -1.810  24.367  1.00  0.00    -0.088 Br
ENDROOT
BRANCH   5  18
HETATM   18  O1  UNL     1      25.264   0.456  23.728  1.00  0.00    -0.387 OA
ATOM     19  H1  UNL     1      25.321   0.944  24.542  1.00  0.00     0.210 HD
ENDBRANCH   5  18
TORSDOF 1
ENDMDL
MODEL 5
REMARK VINA RESULT: -4.149560540      3.809      5.008
REMARK  1 active torsions:
REMARK  status: ('A' for Active; 'I' for Inactive)
REMARK    1  A    between atoms: C5_5  and  O1_6 
ROOT
HETATM    1  C1  UNL     1      22.622   5.027  21.673  1.00  0.00     0.017 C 
HETATM    2  C2  UNL     1      23.347   3.889  20.930  1.00  0.00    -0.018 C 
HETATM    3  C3  UNL     1      24.799   4.134  21.133  1.00  0.00     0.014 C 
HETATM    4  C4  UNL     1      25.709   3.293  20.310  1.00  0.00     0.041 C 
HETATM    5  C5  UNL     1      24.896   2.407  19.394  1.00  0.00     0.087 C 
HETATM    6  C6  UNL     1      24.419   1.210  20.120  1.00  0.00     0.053 C 
HETATM    7  C7  UNL     1      23.310   1.363  21.060  1.00  0.00     0.001 A 
HETATM    8  C8  UNL     1      22.371   0.149  21.121  1.00  0.00     0.019 C 
HETATM    9  C9  UNL     1      23.613   1.901  22.465  1.00  0.00     0.189 A 
HETATM   10  F1  UNL     1      22.914   1.415  23.535  1.00  0.00    -0.248 F 
HETATM   11  C10 UNL     1      22.802   2.628  21.451  1.00  0.00     0.006 A 
HETATM   12  C11 UNL     1      21.283   2.706  21.688  1.00  0.00     0.020 C 
HETATM   13  C12 UNL     1      23.849   3.160  18.652  1.00  0.00     0.120 C 
HETATM   14 BR1  UNL     1      22.731   1.933  17.671  1.00  0.00    -0.068 Br
HETATM   15 BR2  UNL     1      24.765   4.272  17.330  1.00  0.00    -0.068 Br
HETATM   16  C13 UNL     1      23.005   4.059  19.478  1.00  0.00     0.100 C 
HETATM   17 BR3  UNL     1      23.269   5.937  19.025  1.00  0.00    -0.088 Br
ENDROOT
BRANCH   5  18
HETATM   18  O1  UNL     1      25.816   1.950  18.416  1.00  0.00    -0.387 OA
ATOM     19  H1  UNL     1      26.364   1.321  18.870  1.00  0.00     0.210 HD
ENDBRANCH   5  18
TORSDOF 1
ENDMDL
