MODEL 1
REMARK VINA RESULT: -5.686020394      0.000      0.000
REMARK  2 active torsions:
REMARK  status: ('A' for Active; 'I' for Inactive)
REMARK    1  A    between atoms: C2_2  and  C3_3 
REMARK    2  A    between atoms: C3_3  and  O1_4 
ROOT
HETATM    1  C1  UNL     1      21.754   0.191  22.610  1.00  0.00     0.018 C 
HETATM    2  C2  UNL     1      23.105   0.802  22.554  1.00  0.00    -0.018 C 
HETATM    3  C4  UNL     1      23.092   2.141  23.213  1.00  0.00     0.012 C 
HETATM    4  C5  UNL     1      23.117   3.072  22.050  1.00  0.00     0.013 C 
HETATM    5  C6  UNL     1      23.983   2.438  20.972  1.00  0.00    -0.004 A 
HETATM    6  C7  UNL     1      23.622   1.030  21.153  1.00  0.00     0.007 C 
HETATM    7  C8  UNL     1      22.452   1.288  20.226  1.00  0.00     0.019 C 
HETATM    8  C9  UNL     1      23.363   2.216  19.565  1.00  0.00     0.006 A 
HETATM    9  C10 UNL     1      24.201   1.924  18.402  1.00  0.00     0.105 A 
HETATM   10 BR1  UNL     1      25.292   0.396  18.301  1.00  0.00    -0.087 Br
HETATM   11  C11 UNL     1      25.052   3.153  18.715  1.00  0.00     0.127 A 
HETATM   12 CL1  UNL     1      26.717   2.800  19.168  1.00  0.00    -0.103 Cl
HETATM   13 BR2  UNL     1      24.943   4.432  17.310  1.00  0.00    -0.065 Br
HETATM   14  C12 UNL     1      24.109   3.335  19.884  1.00  0.00     0.069 A 
HETATM   15 BR3  UNL     1      23.220   5.075  19.782  1.00  0.00    -0.081 Br
ENDROOT
BRANCH   2  16
HETATM   16  C3  UNL     1      24.069  -0.096  23.337  1.00  0.00     0.173 C 
BRANCH  16  17
HETATM   17  O1  UNL     1      25.182   0.593  23.770  1.00  0.00    -0.400 OA
ATOM     18  H1  UNL     1      25.387   0.405  24.678  1.00  0.00     0.209 HD
ENDBRANCH  16  17
ENDBRANCH   2  16
TORSDOF 2
ENDMDL
MODEL 2
REMARK VINA RESULT: -5.634950842      3.581      5.034
REMARK  2 active torsions:
REMARK  status: ('A' for Active; 'I' for Inactive)
REMARK    1  A    between atoms: C2_2  and  C3_3 
REMARK    2  A    between atoms: C3_3  and  O1_4 
ROOT
HETATM    1  C1  UNL     1      25.463   2.723  19.536  1.00  0.00     0.018 C 
HETATM    2  C2  UNL     1      23.992   2.612  19.388  1.00  0.00    -0.018 C 
HETATM    3  C4  UNL     1      23.399   3.952  19.105  1.00  0.00     0.012 C 
HETATM    4  C5  UNL     1      22.786   4.316  20.413  1.00  0.00     0.013 C 
HETATM    5  C6  UNL     1      22.248   3.038  21.039  1.00  0.00    -0.004 A 
HETATM    6  C7  UNL     1      23.284   2.093  20.618  1.00  0.00     0.007 C 
HETATM    7  C8  UNL     1      24.059   2.509  21.851  1.00  0.00     0.019 C 
HETATM    8  C9  UNL     1      22.741   2.648  22.459  1.00  0.00     0.006 A 
HETATM    9  C10 UNL     1      22.045   1.638  23.256  1.00  0.00     0.105 A 
HETATM   10 BR1  UNL     1      21.867  -0.147  22.691  1.00  0.00    -0.087 Br
HETATM   11  C11 UNL     1      20.730   2.386  23.044  1.00  0.00     0.127 A 
HETATM   12 CL1  UNL     1      19.528   1.509  22.101  1.00  0.00    -0.103 Cl
HETATM   13 BR2  UNL     1      20.031   3.014  24.699  1.00  0.00    -0.065 Br
HETATM   14  C12 UNL     1      21.573   3.354  22.243  1.00  0.00     0.069 A 
HETATM   15 BR3  UNL     1      21.449   5.155  22.997  1.00  0.00    -0.081 Br
ENDROOT
BRANCH   2  16
HETATM   16  C3  UNL     1      23.699   1.708  18.185  1.00  0.00     0.173 C 
BRANCH  16  17
HETATM   17  O1  UNL     1      22.425   1.896  17.693  1.00  0.00    -0.400 OA
ATOM     18  H1  UNL     1      22.081   2.753  17.913  1.00  0.00     0.209 HD
ENDBRANCH  16  17
ENDBRANCH   2  16
TORSDOF 2
ENDMDL
MODEL 3
REMARK VINA RESULT: -5.536030678      3.222      4.654
REMARK  2 active torsions:
REMARK  status: ('A' for Active; 'I' for Inactive)
REMARK    1  A    between atoms: C2_2  and  C3_3 
REMARK    2  A    between atoms: C3_3  and  O1_4 
ROOT
HETATM    1  C1  UNL     1      26.513   2.357  18.575  1.00  0.00     0.018 C 
HETATM    2  C2  UNL     1      25.055   2.085  18.573  1.00  0.00    -0.018 C 
HETATM    3  C4  UNL     1      24.356   3.027  17.650  1.00  0.00     0.012 C 
HETATM    4  C5  UNL     1      23.719   3.988  18.594  1.00  0.00     0.013 C 
HETATM    5  C6  UNL     1      23.285   3.204  19.824  1.00  0.00    -0.004 A 
HETATM    6  C7  UNL     1      24.394   2.252  19.921  1.00  0.00     0.007 C 
HETATM    7  C8  UNL     1      25.135   3.310  20.712  1.00  0.00     0.019 C 
HETATM    8  C9  UNL     1      23.811   3.662  21.212  1.00  0.00     0.006 A 
HETATM    9  C10 UNL     1      23.200   3.185  22.452  1.00  0.00     0.105 A 
HETATM   10 BR1  UNL     1      23.165   1.365  22.926  1.00  0.00    -0.087 Br
HETATM   11  C11 UNL     1      21.829   3.616  21.935  1.00  0.00     0.127 A 
HETATM   12 CL1  UNL     1      20.699   2.295  21.653  1.00  0.00    -0.103 Cl
HETATM   13 BR2  UNL     1      21.085   4.979  23.036  1.00  0.00    -0.065 Br
HETATM   14  C12 UNL     1      22.590   4.065  20.707  1.00  0.00     0.069 A 
HETATM   15 BR3  UNL     1      22.323   5.979  20.398  1.00  0.00    -0.081 Br
ENDROOT
BRANCH   2  16
HETATM   16  C3  UNL     1      24.834   0.663  18.045  1.00  0.00     0.173 C 
BRANCH  16  17
HETATM   17  O1  UNL     1      23.585   0.508  17.483  1.00  0.00    -0.400 OA
ATOM     18  H1  UNL     1      22.983   1.190  17.755  1.00  0.00     0.209 HD
ENDBRANCH  16  17
ENDBRANCH   2  16
TORSDOF 2
ENDMDL
MODEL 4
REMARK VINA RESULT: -5.484313891      3.376      4.793
REMARK  2 active torsions:
REMARK  status: ('A' for Active; 'I' for Inactive)
REMARK    1  A    between atoms: C2_2  and  C3_3 
REMARK    2  A    between atoms: C3_3  and  O1_4 
ROOT
HETATM    1  C1  UNL     1      25.398   0.858  18.645  1.00  0.00     0.018 C 
HETATM    2  C2  UNL     1      23.916   0.861  18.700  1.00  0.00    -0.018 C 
HETATM    3  C4  UNL     1      23.376   2.064  17.999  1.00  0.00     0.012 C 
HETATM    4  C5  UNL     1      22.970   2.941  19.133  1.00  0.00     0.013 C 
HETATM    5  C6  UNL     1      22.440   2.043  20.242  1.00  0.00    -0.004 A 
HETATM    6  C7  UNL     1      23.349   0.903  20.100  1.00  0.00     0.007 C 
HETATM    7  C8  UNL     1      24.308   1.651  21.004  1.00  0.00     0.019 C 
HETATM    8  C9  UNL     1      23.096   2.143  21.647  1.00  0.00     0.006 A 
HETATM    9  C10 UNL     1      22.450   1.572  22.829  1.00  0.00     0.105 A 
HETATM   10 BR1  UNL     1      22.085  -0.266  22.991  1.00  0.00    -0.087 Br
HETATM   11  C11 UNL     1      21.169   2.330  22.489  1.00  0.00     0.127 A 
HETATM   12 CL1  UNL     1      19.798   1.308  22.068  1.00  0.00    -0.103 Cl
HETATM   13 BR2  UNL     1      20.741   3.587  23.852  1.00  0.00    -0.065 Br
HETATM   14  C12 UNL     1      21.955   2.845  21.303  1.00  0.00     0.069 A 
HETATM   15 BR3  UNL     1      22.049   4.799  21.339  1.00  0.00    -0.081 Br
ENDROOT
BRANCH   2  16
HETATM   16  C3  UNL     1      23.407  -0.380  17.958  1.00  0.00     0.173 C 
BRANCH  16  17
HETATM   17  O1  UNL     1      24.085  -0.592  16.776  1.00  0.00    -0.400 OA
ATOM     18  H1  UNL     1      23.507  -0.565  16.023  1.00  0.00     0.209 HD
ENDBRANCH  16  17
ENDBRANCH   2  16
TORSDOF 2
ENDMDL
MODEL 5
REMARK VINA RESULT: -5.450403500      2.371      3.674
REMARK  2 active torsions:
REMARK  status: ('A' for Active; 'I' for Inactive)
REMARK    1  A    between atoms: C2_2  and  C3_3 
REMARK    2  A    between atoms: C3_3  and  O1_4 
ROOT
HETATM    1  C1  UNL     1      21.444   1.861  24.529  1.00  0.00     0.018 C 
HETATM    2  C2  UNL     1      21.046   1.809  23.101  1.00  0.00    -0.018 C 
HETATM    3  C4  UNL     1      20.655   0.418  22.726  1.00  0.00     0.012 C 
HETATM    4  C5  UNL     1      21.836  -0.049  21.947  1.00  0.00     0.013 C 
HETATM    5  C6  UNL     1      22.370   1.141  21.164  1.00  0.00    -0.004 A 
HETATM    6  C7  UNL     1      22.140   2.209  22.139  1.00  0.00     0.007 C 
HETATM    7  C8  UNL     1      23.485   1.850  22.737  1.00  0.00     0.019 C 
HETATM    8  C9  UNL     1      23.857   1.545  21.361  1.00  0.00     0.006 A 
HETATM    9  C10 UNL     1      24.530   2.447  20.426  1.00  0.00     0.105 A 
HETATM   10 BR1  UNL     1      23.957   4.215  20.139  1.00  0.00    -0.087 Br
HETATM   11  C11 UNL     1      24.090   1.560  19.263  1.00  0.00     0.127 A 
HETATM   12 CL1  UNL     1      22.962   2.320  18.144  1.00  0.00    -0.103 Cl
HETATM   13 BR2  UNL     1      25.595   0.810  18.372  1.00  0.00    -0.065 Br
HETATM   14  C12 UNL     1      23.437   0.717  20.336  1.00  0.00     0.069 A 
HETATM   15 BR3  UNL     1      24.145  -1.107  20.299  1.00  0.00    -0.081 Br
ENDROOT
BRANCH   2  16
HETATM   16  C3  UNL     1      19.818   2.707  22.913  1.00  0.00     0.173 C 
BRANCH  16  17
HETATM   17  O1  UNL     1      18.638   2.006  23.041  1.00  0.00    -0.400 OA
ATOM     18  H1  UNL     1      18.434   1.504  22.261  1.00  0.00     0.209 HD
ENDBRANCH  16  17
ENDBRANCH   2  16
TORSDOF 2
ENDMDL
