MODEL 1
REMARK VINA RESULT: -4.997560936      0.000      0.000
REMARK  8 active torsions:
REMARK  status: ('A' for Active; 'I' for Inactive)
REMARK    1  A    between atoms: S1_2  and  C2_5 
REMARK    2  A    between atoms: C2_5  and  C3_6 
REMARK    3  A    between atoms: C3_6  and  N1_7 
REMARK    4  A    between atoms: N1_7  and  C4_10 
REMARK    5  A    between atoms: C4_10  and  C5_11 
REMARK    6  A    between atoms: C5_11  and  N2_12 
REMARK    7  A    between atoms: C7_18  and  N5_19 
REMARK    8  A    between atoms: C8_24  and  N7_25 
ROOT
HETATM    1  N2  UNL     1      38.797  11.356  19.345  1.00  0.00    -0.254 N 
HETATM    2  N3  UNL     1      38.897  12.618  18.921  1.00  0.00    -0.279 N 
ATOM      3  H3  UNL     1      38.180  13.336  19.030  1.00  0.00     0.189 HD
HETATM    4  C6  UNL     1      40.107  12.798  18.319  1.00  0.00     0.155 A 
HETATM    5  N4  UNL     1      40.703  13.849  17.736  1.00  0.00    -0.174 N 
ATOM      6  H4  UNL     1      40.219  14.746  17.689  1.00  0.00     0.186 HD
HETATM    7  C7  UNL     1      41.926  13.728  17.219  1.00  0.00     0.679 A 
HETATM    8  N6  UNL     1      42.616  12.551  17.256  1.00  0.00    -0.176 N 
ATOM      9  H6  UNL     1      43.550  12.486  16.851  1.00  0.00     0.186 HD
HETATM   10  C8  UNL     1      42.043  11.473  17.837  1.00  0.00     0.134 A 
HETATM   11  C9  UNL     1      40.787  11.600  18.368  1.00  0.00     0.123 A 
HETATM   12  C10 UNL     1      39.945  10.728  19.011  1.00  0.00     0.280 A 
HETATM   13  O3  UNL     1      40.197   9.509  19.261  1.00  0.00    -0.265 OA
ENDROOT
BRANCH   1  14
HETATM   14  C5  UNL     1      37.662  10.783  20.041  1.00  0.00     0.180 C 
BRANCH  14  15
HETATM   15  C4  UNL     1      36.410  11.344  19.429  1.00  0.00     0.254 C 
BRANCH  15  16
HETATM   16  N1  UNL     1      35.354  11.560  20.360  1.00  0.00    -0.073 N 
ATOM     17  H12 UNL     1      34.456  11.699  19.896  1.00  0.00     0.277 HD
ATOM     18  H11 UNL     1      35.426  12.469  20.817  1.00  0.00     0.277 HD
BRANCH  16  19
HETATM   19  C3  UNL     1      35.311  10.473  21.314  1.00  0.00     0.247 C 
BRANCH  19  20
HETATM   20  C2  UNL     1      33.962  10.602  22.026  1.00  0.00     0.167 C 
BRANCH  20  21
HETATM   21  S1  UNL     1      32.595  10.434  20.936  1.00  0.00     0.142 S 
HETATM   22  C1  UNL     1      31.128   9.849  21.720  1.00  0.00     0.161 C 
HETATM   23  O1  UNL     1      32.326  11.817  20.359  1.00  0.00    -0.228 OA
HETATM   24  O2  UNL     1      32.989   9.585  19.759  1.00  0.00    -0.228 OA
ENDBRANCH  20  21
ENDBRANCH  19  20
ENDBRANCH  16  19
ENDBRANCH  15  16
ENDBRANCH  14  15
ENDBRANCH   1  14
BRANCH  10  25
HETATM   25  N7  UNL     1      42.687  10.344  17.887  1.00  0.00    -0.384 N 
ATOM     26  H72 UNL     1      42.414   9.551  17.306  1.00  0.00     0.157 HD
ATOM     27  H71 UNL     1      43.480  10.238  18.520  1.00  0.00     0.157 HD
ENDBRANCH  10  25
BRANCH   7  28
HETATM   28  N5  UNL     1      42.528  14.738  16.650  1.00  0.00    -0.234 N 
ATOM     29  H52 UNL     1      43.289  15.167  17.177  1.00  0.00     0.174 HD
ATOM     30  H51 UNL     1      42.247  15.075  15.729  1.00  0.00     0.174 HD
ENDBRANCH   7  28
TORSDOF 8
ENDMDL
MODEL 2
REMARK VINA RESULT: -4.940982630      3.498      8.351
REMARK  8 active torsions:
REMARK  status: ('A' for Active; 'I' for Inactive)
REMARK    1  A    between atoms: S1_2  and  C2_5 
REMARK    2  A    between atoms: C2_5  and  C3_6 
REMARK    3  A    between atoms: C3_6  and  N1_7 
REMARK    4  A    between atoms: N1_7  and  C4_10 
REMARK    5  A    between atoms: C4_10  and  C5_11 
REMARK    6  A    between atoms: C5_11  and  N2_12 
REMARK    7  A    between atoms: C7_18  and  N5_19 
REMARK    8  A    between atoms: C8_24  and  N7_25 
ROOT
HETATM    1  N2  UNL     1      36.197  10.726  21.039  1.00  0.00    -0.254 N 
HETATM    2  N3  UNL     1      35.627   9.968  21.978  1.00  0.00    -0.279 N 
ATOM      3  H3  UNL     1      36.120   9.505  22.742  1.00  0.00     0.189 HD
HETATM    4  C6  UNL     1      34.283   9.911  21.758  1.00  0.00     0.155 A 
HETATM    5  N4  UNL     1      33.267   9.302  22.390  1.00  0.00    -0.174 N 
ATOM      6  H4  UNL     1      33.450   8.743  23.224  1.00  0.00     0.186 HD
HETATM    7  C7  UNL     1      32.020   9.427  21.934  1.00  0.00     0.679 A 
HETATM    8  N6  UNL     1      31.723  10.163  20.825  1.00  0.00    -0.176 N 
ATOM      9  H6  UNL     1      30.760  10.240  20.498  1.00  0.00     0.186 HD
HETATM   10  C8  UNL     1      32.725  10.788  20.165  1.00  0.00     0.134 A 
HETATM   11  C9  UNL     1      34.004  10.659  20.635  1.00  0.00     0.123 A 
HETATM   12  C10 UNL     1      35.215  11.151  20.215  1.00  0.00     0.280 A 
HETATM   13  O3  UNL     1      35.396  11.896  19.203  1.00  0.00    -0.265 OA
ENDROOT
BRANCH   1  14
HETATM   14  C5  UNL     1      37.610  11.033  20.938  1.00  0.00     0.180 C 
BRANCH  14  15
HETATM   15  C4  UNL     1      38.367   9.735  20.930  1.00  0.00     0.254 C 
BRANCH  15  16
HETATM   16  N1  UNL     1      39.277   9.599  19.843  1.00  0.00    -0.073 N 
ATOM     17  H12 UNL     1      39.075  10.255  19.089  1.00  0.00     0.277 HD
ATOM     18  H11 UNL     1      39.130   8.731  19.327  1.00  0.00     0.277 HD
BRANCH  16  19
HETATM   19  C3  UNL     1      40.636   9.724  20.323  1.00  0.00     0.247 C 
BRANCH  19  20
HETATM   20  C2  UNL     1      41.116  11.100  19.851  1.00  0.00     0.167 C 
BRANCH  20  21
HETATM   21  S1  UNL     1      41.112  11.261  18.102  1.00  0.00     0.142 S 
HETATM   22  C1  UNL     1      42.005  12.664  17.516  1.00  0.00     0.161 C 
HETATM   23  O1  UNL     1      41.759  10.000  17.547  1.00  0.00    -0.228 OA
HETATM   24  O2  UNL     1      39.696  11.235  17.595  1.00  0.00    -0.228 OA
ENDBRANCH  20  21
ENDBRANCH  19  20
ENDBRANCH  16  19
ENDBRANCH  15  16
ENDBRANCH  14  15
ENDBRANCH   1  14
BRANCH  10  25
HETATM   25  N7  UNL     1      32.461  11.499  19.108  1.00  0.00    -0.384 N 
ATOM     26  H72 UNL     1      33.187  12.040  18.638  1.00  0.00     0.157 HD
ATOM     27  H71 UNL     1      31.510  11.526  18.737  1.00  0.00     0.157 HD
ENDBRANCH  10  25
BRANCH   7  28
HETATM   28  N5  UNL     1      31.015   8.848  22.535  1.00  0.00    -0.234 N 
ATOM     29  H52 UNL     1      31.249   8.181  23.270  1.00  0.00     0.174 HD
ATOM     30  H51 UNL     1      30.050   9.056  22.276  1.00  0.00     0.174 HD
ENDBRANCH   7  28
TORSDOF 8
ENDMDL
MODEL 3
REMARK VINA RESULT: -4.933488060      1.561      2.569
REMARK  8 active torsions:
REMARK  status: ('A' for Active; 'I' for Inactive)
REMARK    1  A    between atoms: S1_2  and  C2_5 
REMARK    2  A    between atoms: C2_5  and  C3_6 
REMARK    3  A    between atoms: C3_6  and  N1_7 
REMARK    4  A    between atoms: N1_7  and  C4_10 
REMARK    5  A    between atoms: C4_10  and  C5_11 
REMARK    6  A    between atoms: C5_11  and  N2_12 
REMARK    7  A    between atoms: C7_18  and  N5_19 
REMARK    8  A    between atoms: C8_24  and  N7_25 
ROOT
HETATM    1  N2  UNL     1      39.230  11.158  18.722  1.00  0.00    -0.254 N 
HETATM    2  N3  UNL     1      40.087  10.193  19.062  1.00  0.00    -0.279 N 
ATOM      3  H3  UNL     1      39.842   9.334  19.555  1.00  0.00     0.189 HD
HETATM    4  C6  UNL     1      41.340  10.534  18.648  1.00  0.00     0.155 A 
HETATM    5  N4  UNL     1      42.537   9.933  18.732  1.00  0.00    -0.174 N 
ATOM      6  H4  UNL     1      42.619   9.023  19.187  1.00  0.00     0.186 HD
HETATM    7  C7  UNL     1      43.621  10.519  18.222  1.00  0.00     0.679 A 
HETATM    8  N6  UNL     1      43.566  11.734  17.603  1.00  0.00    -0.176 N 
ATOM      9  H6  UNL     1      44.411  12.160  17.223  1.00  0.00     0.186 HD
HETATM   10  C8  UNL     1      42.374  12.365  17.502  1.00  0.00     0.134 A 
HETATM   11  C9  UNL     1      41.262  11.761  18.026  1.00  0.00     0.123 A 
HETATM   12  C10 UNL     1      39.939  12.119  18.090  1.00  0.00     0.280 A 
HETATM   13  O3  UNL     1      39.443  13.192  17.627  1.00  0.00    -0.265 OA
ENDROOT
BRANCH   1  14
HETATM   14  C5  UNL     1      37.804  11.158  18.981  1.00  0.00     0.180 C 
BRANCH  14  15
HETATM   15  C4  UNL     1      37.604  11.069  20.467  1.00  0.00     0.254 C 
BRANCH  15  16
HETATM   16  N1  UNL     1      36.308  11.465  20.904  1.00  0.00    -0.073 N 
ATOM     17  H12 UNL     1      36.322  12.370  21.375  1.00  0.00     0.277 HD
ATOM     18  H11 UNL     1      35.976  10.898  21.684  1.00  0.00     0.277 HD
BRANCH  16  19
HETATM   19  C3  UNL     1      35.387  11.447  19.788  1.00  0.00     0.247 C 
BRANCH  19  20
HETATM   20  C2  UNL     1      34.016  11.789  20.378  1.00  0.00     0.167 C 
BRANCH  20  21
HETATM   21  S1  UNL     1      33.168  10.380  20.995  1.00  0.00     0.142 S 
HETATM   22  C1  UNL     1      31.672  10.766  21.846  1.00  0.00     0.161 C 
HETATM   23  O1  UNL     1      32.837   9.509  19.790  1.00  0.00    -0.228 OA
HETATM   24  O2  UNL     1      34.104   9.554  21.834  1.00  0.00    -0.228 OA
ENDBRANCH  20  21
ENDBRANCH  19  20
ENDBRANCH  16  19
ENDBRANCH  15  16
ENDBRANCH  14  15
ENDBRANCH   1  14
BRANCH  10  25
HETATM   25  N7  UNL     1      42.300  13.522  16.911  1.00  0.00    -0.384 N 
ATOM     26  H72 UNL     1      42.909  14.295  17.181  1.00  0.00     0.157 HD
ATOM     27  H71 UNL     1      41.620  13.669  16.165  1.00  0.00     0.157 HD
ENDBRANCH  10  25
BRANCH   7  28
HETATM   28  N5  UNL     1      44.796   9.953  18.288  1.00  0.00    -0.234 N 
ATOM     29  H52 UNL     1      44.816   8.937  18.195  1.00  0.00     0.174 HD
ATOM     30  H51 UNL     1      45.645  10.502  18.426  1.00  0.00     0.174 HD
ENDBRANCH   7  28
TORSDOF 8
ENDMDL
MODEL 4
REMARK VINA RESULT: -4.932442367      5.052      7.881
REMARK  8 active torsions:
REMARK  status: ('A' for Active; 'I' for Inactive)
REMARK    1  A    between atoms: S1_2  and  C2_5 
REMARK    2  A    between atoms: C2_5  and  C3_6 
REMARK    3  A    between atoms: C3_6  and  N1_7 
REMARK    4  A    between atoms: N1_7  and  C4_10 
REMARK    5  A    between atoms: C4_10  and  C5_11 
REMARK    6  A    between atoms: C5_11  and  N2_12 
REMARK    7  A    between atoms: C7_18  and  N5_19 
REMARK    8  A    between atoms: C8_24  and  N7_25 
ROOT
HETATM    1  N2  UNL     1      42.830  17.130  16.867  1.00  0.00    -0.254 N 
HETATM    2  N3  UNL     1      44.133  16.858  16.763  1.00  0.00    -0.279 N 
ATOM      3  H3  UNL     1      44.600  16.048  17.169  1.00  0.00     0.189 HD
HETATM    4  C6  UNL     1      44.741  17.833  16.028  1.00  0.00     0.155 A 
HETATM    5  N4  UNL     1      46.006  18.039  15.632  1.00  0.00    -0.174 N 
ATOM      6  H4  UNL     1      46.735  17.373  15.891  1.00  0.00     0.186 HD
HETATM    7  C7  UNL     1      46.316  19.110  14.900  1.00  0.00     0.679 A 
HETATM    8  N6  UNL     1      45.380  20.030  14.527  1.00  0.00    -0.176 N 
ATOM      9  H6  UNL     1      45.645  20.841  13.968  1.00  0.00     0.186 HD
HETATM   10  C8  UNL     1      44.096  19.850  14.910  1.00  0.00     0.134 A 
HETATM   11  C9  UNL     1      43.780  18.750  15.662  1.00  0.00     0.123 A 
HETATM   12  C10 UNL     1      42.606  18.283  16.198  1.00  0.00     0.280 A 
HETATM   13  O3  UNL     1      41.472  18.842  16.090  1.00  0.00    -0.265 OA
ENDROOT
BRANCH   1  14
HETATM   14  C5  UNL     1      41.848  16.325  17.565  1.00  0.00     0.180 C 
BRANCH  14  15
HETATM   15  C4  UNL     1      41.855  14.952  16.954  1.00  0.00     0.254 C 
BRANCH  15  16
HETATM   16  N1  UNL     1      40.858  14.079  17.474  1.00  0.00    -0.073 N 
ATOM     17  H12 UNL     1      40.652  13.310  16.836  1.00  0.00     0.277 HD
ATOM     18  H11 UNL     1      39.935  14.514  17.484  1.00  0.00     0.277 HD
BRANCH  16  19
HETATM   19  C3  UNL     1      41.253  13.608  18.784  1.00  0.00     0.247 C 
BRANCH  19  20
HETATM   20  C2  UNL     1      40.021  12.902  19.357  1.00  0.00     0.167 C 
BRANCH  20  21
HETATM   21  S1  UNL     1      39.503  11.535  18.385  1.00  0.00     0.142 S 
HETATM   22  C1  UNL     1      38.785  10.226  19.323  1.00  0.00     0.161 C 
HETATM   23  O1  UNL     1      38.464  12.066  17.406  1.00  0.00    -0.228 OA
HETATM   24  O2  UNL     1      40.646  11.061  17.529  1.00  0.00    -0.228 OA
ENDBRANCH  20  21
ENDBRANCH  19  20
ENDBRANCH  16  19
ENDBRANCH  15  16
ENDBRANCH  14  15
ENDBRANCH   1  14
BRANCH  10  25
HETATM   25  N7  UNL     1      43.188  20.713  14.560  1.00  0.00    -0.384 N 
ATOM     26  H72 UNL     1      43.127  21.061  13.603  1.00  0.00     0.157 HD
ATOM     27  H71 UNL     1      42.520  21.058  15.251  1.00  0.00     0.157 HD
ENDBRANCH  10  25
BRANCH   7  28
HETATM   28  N5  UNL     1      47.540  19.330  14.499  1.00  0.00    -0.234 N 
ATOM     29  H52 UNL     1      47.648  19.689  13.551  1.00  0.00     0.174 HD
ATOM     30  H51 UNL     1      48.339  19.147  15.105  1.00  0.00     0.174 HD
ENDBRANCH   7  28
TORSDOF 8
ENDMDL
MODEL 5
REMARK VINA RESULT: -4.860455301      3.841      8.197
REMARK  8 active torsions:
REMARK  status: ('A' for Active; 'I' for Inactive)
REMARK    1  A    between atoms: S1_2  and  C2_5 
REMARK    2  A    between atoms: C2_5  and  C3_6 
REMARK    3  A    between atoms: C3_6  and  N1_7 
REMARK    4  A    between atoms: N1_7  and  C4_10 
REMARK    5  A    between atoms: C4_10  and  C5_11 
REMARK    6  A    between atoms: C5_11  and  N2_12 
REMARK    7  A    between atoms: C7_18  and  N5_19 
REMARK    8  A    between atoms: C8_24  and  N7_25 
ROOT
HETATM    1  N2  UNL     1      34.759  11.486  22.830  1.00  0.00    -0.254 N 
HETATM    2  N3  UNL     1      34.269  10.314  23.241  1.00  0.00    -0.279 N 
ATOM      3  H3  UNL     1      34.496   9.858  24.124  1.00  0.00     0.189 HD
HETATM    4  C6  UNL     1      33.420   9.823  22.294  1.00  0.00     0.155 A 
HETATM    5  N4  UNL     1      32.676   8.708  22.208  1.00  0.00    -0.174 N 
ATOM      6  H4  UNL     1      32.690   8.028  22.968  1.00  0.00     0.186 HD
HETATM    7  C7  UNL     1      31.920   8.487  21.132  1.00  0.00     0.679 A 
HETATM    8  N6  UNL     1      31.866   9.364  20.089  1.00  0.00    -0.176 N 
ATOM      9  H6  UNL     1      31.279   9.169  19.278  1.00  0.00     0.186 HD
HETATM   10  C8  UNL     1      32.604  10.497  20.146  1.00  0.00     0.134 A 
HETATM   11  C9  UNL     1      33.380  10.723  21.252  1.00  0.00     0.123 A 
HETATM   12  C10 UNL     1      34.222  11.743  21.617  1.00  0.00     0.280 A 
HETATM   13  O3  UNL     1      34.468  12.779  20.926  1.00  0.00    -0.265 OA
ENDROOT
BRANCH   1  14
HETATM   14  C5  UNL     1      35.689  12.322  23.564  1.00  0.00     0.180 C 
BRANCH  14  15
HETATM   15  C4  UNL     1      37.081  11.854  23.248  1.00  0.00     0.254 C 
BRANCH  15  16
HETATM   16  N1  UNL     1      37.635  12.430  22.070  1.00  0.00    -0.073 N 
ATOM     17  H12 UNL     1      38.442  13.020  22.274  1.00  0.00     0.277 HD
ATOM     18  H11 UNL     1      37.027  13.144  21.670  1.00  0.00     0.277 HD
BRANCH  16  19
HETATM   19  C3  UNL     1      37.952  11.388  21.117  1.00  0.00     0.247 C 
BRANCH  19  20
HETATM   20  C2  UNL     1      39.148  11.911  20.316  1.00  0.00     0.167 C 
BRANCH  20  21
HETATM   21  S1  UNL     1      39.225  11.247  18.692  1.00  0.00     0.142 S 
HETATM   22  C1  UNL     1      40.760  11.543  17.875  1.00  0.00     0.161 C 
HETATM   23  O1  UNL     1      39.021   9.744  18.826  1.00  0.00    -0.228 OA
HETATM   24  O2  UNL     1      38.050  11.735  17.890  1.00  0.00    -0.228 OA
ENDBRANCH  20  21
ENDBRANCH  19  20
ENDBRANCH  16  19
ENDBRANCH  15  16
ENDBRANCH  14  15
ENDBRANCH   1  14
BRANCH  10  25
HETATM   25  N7  UNL     1      32.562  11.348  19.164  1.00  0.00    -0.384 N 
ATOM     26  H72 UNL     1      31.815  11.320  18.469  1.00  0.00     0.157 HD
ATOM     27  H71 UNL     1      33.288  12.060  19.076  1.00  0.00     0.157 HD
ENDBRANCH  10  25
BRANCH   7  28
HETATM   28  N5  UNL     1      31.185   7.412  21.027  1.00  0.00    -0.234 N 
ATOM     29  H52 UNL     1      30.309   7.409  21.549  1.00  0.00     0.174 HD
ATOM     30  H51 UNL     1      31.478   6.622  20.452  1.00  0.00     0.174 HD
ENDBRANCH   7  28
TORSDOF 8
ENDMDL
