MODEL 1
REMARK VINA RESULT: -8.092866424      0.000      0.000
REMARK  9 active torsions:
REMARK  status: ('A' for Active; 'I' for Inactive)
REMARK    1  A    between atoms: C2_2  and  C3_3 
REMARK    2  A    between atoms: C3_3  and  C4_4 
REMARK    3  A    between atoms: C4_4  and  N1_5 
REMARK    4  A    between atoms: N1_5  and  C5_6 
REMARK    5  A    between atoms: N1_5  and  C8_9 
REMARK    6  A    between atoms: C5_6  and  C6_7 
REMARK    7  A    between atoms: C9_12  and  C10_13 
REMARK    8  A    between atoms: C11_17  and  C12_18 
REMARK    9  A    between atoms: C18_30  and  C19_31 
ROOT
HETATM    1  C12 UNL     1      13.058   5.713  11.308  1.00  0.00     0.156 A 
HETATM    2  N3  UNL     1      11.859   5.515  10.670  1.00  0.00    -0.172 N 
ATOM      3  H3  UNL     1      11.650   5.734   9.696  1.00  0.00     0.186 HD
HETATM    4  C13 UNL     1      11.008   4.979  11.563  1.00  0.00     0.702 A 
HETATM    5  N4  UNL     1      11.684   4.860  12.719  1.00  0.00    -0.088 N 
HETATM    6  N5  UNL     1      12.922   5.300  12.563  1.00  0.00    -0.263 N 
ATOM      7  H5  UNL     1      13.646   5.320  13.280  1.00  0.00     0.190 HD
HETATM    8  C14 UNL     1      10.993   4.351  13.851  1.00  0.00     0.065 C 
HETATM    9  C15 UNL     1      11.542   3.568  14.752  1.00  0.00     0.084 C 
HETATM   10 BR1  UNL     1      13.362   3.047  14.590  1.00  0.00    -0.061 Br
HETATM   11  C16 UNL     1       9.543   4.769  13.961  1.00  0.00     0.062 C 
HETATM   12  C17 UNL     1       8.941   4.247  15.219  1.00  0.00     0.019 C 
HETATM   13  C18 UNL     1       8.822   4.348  12.698  1.00  0.00     0.142 C 
HETATM   14  N6  UNL     1       9.650   4.543  11.528  1.00  0.00    -0.215 N 
ATOM     15  H6  UNL     1       9.235   4.356  10.615  1.00  0.00     0.178 HD
ENDROOT
BRANCH   1  16
HETATM   16  C11 UNL     1      14.228   6.343  10.677  1.00  0.00     0.086 A 
HETATM   17  C9  UNL     1      15.479   5.907  10.384  1.00  0.00     0.139 A 
HETATM   18  N2  UNL     1      16.312   6.754   9.862  1.00  0.00    -0.332 N 
HETATM   19  C8  UNL     1      15.945   8.004   9.624  1.00  0.00     0.148 A 
ATOM     20  H2  UNL     1      17.259   6.453   9.632  1.00  0.00     0.168 HD
HETATM   21  S1  UNL     1      14.324   8.003  10.164  1.00  0.00    -0.048 SA
BRANCH  17  22
HETATM   22  C10 UNL     1      15.897   4.464  10.629  1.00  0.00     0.434 C 
HETATM   23  F1  UNL     1      14.972   3.625  10.082  1.00  0.00    -0.165 F 
HETATM   24  F2  UNL     1      17.095   4.186   9.955  1.00  0.00    -0.165 F 
HETATM   25  F3  UNL     1      16.182   4.239  11.954  1.00  0.00    -0.165 F 
ENDBRANCH  17  22
BRANCH  19  26
HETATM   26  N1  UNL     1      16.743   9.064   9.082  1.00  0.00    -0.361 N 
BRANCH  26  27
HETATM   27  C4  UNL     1      18.153   9.095   9.254  1.00  0.00     0.125 C 
BRANCH  27  28
HETATM   28  C3  UNL     1      18.947   8.280   8.276  1.00  0.00     0.019 C 
BRANCH  28  29
HETATM   29  C2  UNL     1      19.696   7.143   8.880  1.00  0.00    -0.003 C 
HETATM   30  C1  UNL     1      19.384   5.812   8.224  1.00  0.00     0.005 C 
ENDBRANCH  28  29
ENDBRANCH  27  28
ENDBRANCH  26  27
BRANCH  26  31
HETATM   31  C5  UNL     1      16.056  10.105   8.361  1.00  0.00     0.124 C 
BRANCH  31  32
HETATM   32  C6  UNL     1      16.326  11.432   9.039  1.00  0.00     0.015 C 
HETATM   33  C7  UNL     1      15.207  11.717  10.022  1.00  0.00     0.006 C 
ENDBRANCH  31  32
ENDBRANCH  26  31
ENDBRANCH  19  26
ENDBRANCH   1  16
BRANCH  13  34
HETATM   34  C19 UNL     1       8.377   2.933  12.864  1.00  0.00    -0.034 A 
HETATM   35  C20 UNL     1       9.191   1.879  12.509  1.00  0.00     0.009 A 
HETATM   36  C21 UNL     1       8.788   0.559  12.653  1.00  0.00     0.001 A 
HETATM   37  C22 UNL     1       7.532   0.284  13.166  1.00  0.00     0.000 A 
HETATM   38  C23 UNL     1       6.706   1.326  13.526  1.00  0.00     0.001 A 
HETATM   39  C24 UNL     1       7.122   2.637  13.377  1.00  0.00     0.009 A 
ENDBRANCH  13  34
TORSDOF 9
ENDMDL
MODEL 2
REMARK VINA RESULT: -8.006657597      3.591     10.171
REMARK  9 active torsions:
REMARK  status: ('A' for Active; 'I' for Inactive)
REMARK    1  A    between atoms: C2_2  and  C3_3 
REMARK    2  A    between atoms: C3_3  and  C4_4 
REMARK    3  A    between atoms: C4_4  and  N1_5 
REMARK    4  A    between atoms: N1_5  and  C5_6 
REMARK    5  A    between atoms: N1_5  and  C8_9 
REMARK    6  A    between atoms: C5_6  and  C6_7 
REMARK    7  A    between atoms: C9_12  and  C10_13 
REMARK    8  A    between atoms: C11_17  and  C12_18 
REMARK    9  A    between atoms: C18_30  and  C19_31 
ROOT
HETATM    1  C12 UNL     1      16.151   8.053  10.623  1.00  0.00     0.156 A 
HETATM    2  N3  UNL     1      17.143   7.900   9.688  1.00  0.00    -0.172 N 
ATOM      3  H3  UNL     1      17.553   7.017   9.382  1.00  0.00     0.186 HD
HETATM    4  C13 UNL     1      17.479   9.125   9.247  1.00  0.00     0.702 A 
HETATM    5  N4  UNL     1      16.702  10.001   9.909  1.00  0.00    -0.088 N 
HETATM    6  N5  UNL     1      15.899   9.352  10.737  1.00  0.00    -0.263 N 
ATOM      7  H5  UNL     1      15.207   9.776  11.355  1.00  0.00     0.190 HD
HETATM    8  C14 UNL     1      16.887  11.386   9.655  1.00  0.00     0.065 C 
HETATM    9  C15 UNL     1      15.907  12.261   9.622  1.00  0.00     0.084 C 
HETATM   10 BR1  UNL     1      14.115  11.706   9.925  1.00  0.00    -0.061 Br
HETATM   11  C16 UNL     1      18.319  11.810   9.408  1.00  0.00     0.062 C 
HETATM   12  C17 UNL     1      18.404  13.286   9.233  1.00  0.00     0.019 C 
HETATM   13  C18 UNL     1      18.867  11.007   8.249  1.00  0.00     0.142 C 
HETATM   14  N6  UNL     1      18.409   9.635   8.294  1.00  0.00    -0.215 N 
ATOM     15  H6  UNL     1      18.777   8.988   7.596  1.00  0.00     0.178 HD
ENDROOT
BRANCH   1  16
HETATM   16  C11 UNL     1      15.562   6.940  11.384  1.00  0.00     0.086 A 
HETATM   17  C9  UNL     1      14.450   6.180  11.217  1.00  0.00     0.139 A 
HETATM   18  N2  UNL     1      14.179   5.292  12.122  1.00  0.00    -0.332 N 
HETATM   19  C8  UNL     1      14.967   5.137  13.175  1.00  0.00     0.148 A 
ATOM     20  H2  UNL     1      13.349   4.706  12.022  1.00  0.00     0.168 HD
HETATM   21  S1  UNL     1      16.174   6.311  12.886  1.00  0.00    -0.048 SA
BRANCH  17  22
HETATM   22  C10 UNL     1      13.557   6.334   9.993  1.00  0.00     0.434 C 
HETATM   23  F1  UNL     1      14.194   5.828   8.900  1.00  0.00    -0.165 F 
HETATM   24  F2  UNL     1      12.397   5.558  10.140  1.00  0.00    -0.165 F 
HETATM   25  F3  UNL     1      13.100   7.623   9.863  1.00  0.00    -0.165 F 
ENDBRANCH  17  22
BRANCH  19  26
HETATM   26  N1  UNL     1      14.798   4.230  14.272  1.00  0.00    -0.361 N 
BRANCH  26  27
HETATM   27  C4  UNL     1      15.907   3.574  14.870  1.00  0.00     0.125 C 
BRANCH  27  28
HETATM   28  C3  UNL     1      16.570   4.310  15.997  1.00  0.00     0.019 C 
BRANCH  28  29
HETATM   29  C2  UNL     1      17.671   3.559  16.665  1.00  0.00    -0.003 C 
HETATM   30  C1  UNL     1      18.829   3.255  15.736  1.00  0.00     0.005 C 
ENDBRANCH  28  29
ENDBRANCH  27  28
ENDBRANCH  26  27
BRANCH  26  31
HETATM   31  C5  UNL     1      13.455   4.003  14.741  1.00  0.00     0.124 C 
BRANCH  31  32
HETATM   32  C6  UNL     1      13.173   2.516  14.724  1.00  0.00     0.015 C 
HETATM   33  C7  UNL     1      11.943   2.240  15.566  1.00  0.00     0.006 C 
ENDBRANCH  31  32
ENDBRANCH  26  31
ENDBRANCH  19  26
ENDBRANCH   1  16
BRANCH  13  34
HETATM   34  C19 UNL     1      18.494  11.701   6.981  1.00  0.00    -0.034 A 
HETATM   35  C20 UNL     1      17.191  11.723   6.532  1.00  0.00     0.009 A 
HETATM   36  C21 UNL     1      16.831  12.361   5.353  1.00  0.00     0.001 A 
HETATM   37  C22 UNL     1      17.804  12.995   4.600  1.00  0.00     0.000 A 
HETATM   38  C23 UNL     1      19.111  12.982   5.034  1.00  0.00     0.001 A 
HETATM   39  C24 UNL     1      19.455  12.343   6.212  1.00  0.00     0.009 A 
ENDBRANCH  13  34
TORSDOF 9
ENDMDL
MODEL 3
REMARK VINA RESULT: -7.959672758      3.303     10.252
REMARK  9 active torsions:
REMARK  status: ('A' for Active; 'I' for Inactive)
REMARK    1  A    between atoms: C2_2  and  C3_3 
REMARK    2  A    between atoms: C3_3  and  C4_4 
REMARK    3  A    between atoms: C4_4  and  N1_5 
REMARK    4  A    between atoms: N1_5  and  C5_6 
REMARK    5  A    between atoms: N1_5  and  C8_9 
REMARK    6  A    between atoms: C5_6  and  C6_7 
REMARK    7  A    between atoms: C9_12  and  C10_13 
REMARK    8  A    between atoms: C11_17  and  C12_18 
REMARK    9  A    between atoms: C18_30  and  C19_31 
ROOT
HETATM    1  C12 UNL     1      16.159   8.032  10.684  1.00  0.00     0.156 A 
HETATM    2  N3  UNL     1      17.111   7.866   9.710  1.00  0.00    -0.172 N 
ATOM      3  H3  UNL     1      17.498   6.978   9.390  1.00  0.00     0.186 HD
HETATM    4  C13 UNL     1      17.443   9.086   9.254  1.00  0.00     0.702 A 
HETATM    5  N4  UNL     1      16.704   9.972   9.945  1.00  0.00    -0.088 N 
HETATM    6  N5  UNL     1      15.927   9.334  10.806  1.00  0.00    -0.263 N 
ATOM      7  H5  UNL     1      15.266   9.766  11.450  1.00  0.00     0.190 HD
HETATM    8  C14 UNL     1      16.894  11.355   9.681  1.00  0.00     0.065 C 
HETATM    9  C15 UNL     1      15.924  12.241   9.687  1.00  0.00     0.084 C 
HETATM   10 BR1  UNL     1      14.140  11.708  10.063  1.00  0.00    -0.061 Br
HETATM   11  C16 UNL     1      18.320  11.762   9.376  1.00  0.00     0.062 C 
HETATM   12  C17 UNL     1      18.416  13.237   9.195  1.00  0.00     0.019 C 
HETATM   13  C18 UNL     1      18.811  10.950   8.197  1.00  0.00     0.142 C 
HETATM   14  N6  UNL     1      18.340   9.584   8.263  1.00  0.00    -0.215 N 
ATOM     15  H6  UNL     1      18.671   8.932   7.551  1.00  0.00     0.178 HD
ENDROOT
BRANCH   1  16
HETATM   16  C11 UNL     1      15.589   6.927  11.470  1.00  0.00     0.086 A 
HETATM   17  C9  UNL     1      14.533   6.096  11.283  1.00  0.00     0.139 A 
HETATM   18  N2  UNL     1      14.257   5.241  12.218  1.00  0.00    -0.332 N 
HETATM   19  C8  UNL     1      14.990   5.186  13.320  1.00  0.00     0.148 A 
ATOM     20  H2  UNL     1      13.469   4.604  12.104  1.00  0.00     0.168 HD
HETATM   21  S1  UNL     1      16.146   6.412  13.036  1.00  0.00    -0.048 SA
BRANCH  17  22
HETATM   22  C10 UNL     1      13.705   6.136  10.005  1.00  0.00     0.434 C 
HETATM   23  F1  UNL     1      14.466   5.704   8.959  1.00  0.00    -0.165 F 
HETATM   24  F2  UNL     1      12.640   5.226  10.090  1.00  0.00    -0.165 F 
HETATM   25  F3  UNL     1      13.106   7.359   9.830  1.00  0.00    -0.165 F 
ENDBRANCH  17  22
BRANCH  19  26
HETATM   26  N1  UNL     1      14.807   4.328  14.454  1.00  0.00    -0.361 N 
BRANCH  26  27
HETATM   27  C4  UNL     1      13.872   3.258  14.431  1.00  0.00     0.125 C 
BRANCH  27  28
HETATM   28  C3  UNL     1      12.659   3.433  15.298  1.00  0.00     0.019 C 
BRANCH  28  29
HETATM   29  C2  UNL     1      11.846   2.198  15.482  1.00  0.00    -0.003 C 
HETATM   30  C1  UNL     1      11.371   1.599  14.173  1.00  0.00     0.005 C 
ENDBRANCH  28  29
ENDBRANCH  27  28
ENDBRANCH  26  27
BRANCH  26  31
HETATM   31  C5  UNL     1      15.605   4.597  15.622  1.00  0.00     0.124 C 
BRANCH  31  32
HETATM   32  C6  UNL     1      16.823   3.698  15.602  1.00  0.00     0.015 C 
HETATM   33  C7  UNL     1      18.058   4.539  15.862  1.00  0.00     0.006 C 
ENDBRANCH  31  32
ENDBRANCH  26  31
ENDBRANCH  19  26
ENDBRANCH   1  16
BRANCH  13  34
HETATM   34  C19 UNL     1      18.395  11.648   6.944  1.00  0.00    -0.034 A 
HETATM   35  C20 UNL     1      17.075  11.693   6.554  1.00  0.00     0.009 A 
HETATM   36  C21 UNL     1      16.675  12.333   5.389  1.00  0.00     0.001 A 
HETATM   37  C22 UNL     1      17.624  12.946   4.590  1.00  0.00     0.000 A 
HETATM   38  C23 UNL     1      18.950  12.910   4.966  1.00  0.00     0.001 A 
HETATM   39  C24 UNL     1      19.333  12.268   6.130  1.00  0.00     0.009 A 
ENDBRANCH  13  34
TORSDOF 9
ENDMDL
MODEL 4
REMARK VINA RESULT: -7.875839761      2.633      9.583
REMARK  9 active torsions:
REMARK  status: ('A' for Active; 'I' for Inactive)
REMARK    1  A    between atoms: C2_2  and  C3_3 
REMARK    2  A    between atoms: C3_3  and  C4_4 
REMARK    3  A    between atoms: C4_4  and  N1_5 
REMARK    4  A    between atoms: N1_5  and  C5_6 
REMARK    5  A    between atoms: N1_5  and  C8_9 
REMARK    6  A    between atoms: C5_6  and  C6_7 
REMARK    7  A    between atoms: C9_12  and  C10_13 
REMARK    8  A    between atoms: C11_17  and  C12_18 
REMARK    9  A    between atoms: C18_30  and  C19_31 
ROOT
HETATM    1  C12 UNL     1      12.753   4.463  12.451  1.00  0.00     0.156 A 
HETATM    2  N3  UNL     1      12.638   5.204  11.302  1.00  0.00    -0.172 N 
ATOM      3  H3  UNL     1      11.771   5.435  10.817  1.00  0.00     0.186 HD
HETATM    4  C13 UNL     1      13.877   5.571  10.930  1.00  0.00     0.702 A 
HETATM    5  N4  UNL     1      14.723   5.056  11.840  1.00  0.00    -0.088 N 
HETATM    6  N5  UNL     1      14.043   4.390  12.759  1.00  0.00    -0.263 N 
ATOM      7  H5  UNL     1      14.439   3.905  13.563  1.00  0.00     0.190 HD
HETATM    8  C14 UNL     1      16.116   5.266  11.655  1.00  0.00     0.065 C 
HETATM    9  C15 UNL     1      16.962   5.470  12.639  1.00  0.00     0.084 C 
HETATM   10 BR1  UNL     1      16.352   5.499  14.438  1.00  0.00    -0.061 Br
HETATM   11  C16 UNL     1      16.584   5.247  10.215  1.00  0.00     0.062 C 
HETATM   12  C17 UNL     1      18.063   5.397  10.144  1.00  0.00     0.019 C 
HETATM   13  C18 UNL     1      15.808   6.293   9.442  1.00  0.00     0.142 C 
HETATM   14  N6  UNL     1      14.424   6.338   9.859  1.00  0.00    -0.215 N 
ATOM     15  H6  UNL     1      13.795   6.962   9.352  1.00  0.00     0.178 HD
ENDROOT
BRANCH   1  16
HETATM   16  C11 UNL     1      11.615   3.826  13.133  1.00  0.00     0.086 A 
HETATM   17  C9  UNL     1      11.486   3.160  14.309  1.00  0.00     0.139 A 
HETATM   18  N2  UNL     1      10.324   2.663  14.601  1.00  0.00    -0.332 N 
HETATM   19  C8  UNL     1       9.300   2.804  13.773  1.00  0.00     0.148 A 
ATOM     20  H2  UNL     1      10.198   2.157  15.477  1.00  0.00     0.168 HD
HETATM   21  S1  UNL     1      10.002   3.695  12.495  1.00  0.00    -0.048 SA
BRANCH  17  22
HETATM   22  C10 UNL     1      12.652   3.019  15.277  1.00  0.00     0.434 C 
HETATM   23  F1  UNL     1      13.065   4.257  15.673  1.00  0.00    -0.165 F 
HETATM   24  F2  UNL     1      12.232   2.375  16.450  1.00  0.00    -0.165 F 
HETATM   25  F3  UNL     1      13.636   2.208  14.767  1.00  0.00    -0.165 F 
ENDBRANCH  17  22
BRANCH  19  26
HETATM   26  N1  UNL     1       7.969   2.297  13.929  1.00  0.00    -0.361 N 
BRANCH  26  27
HETATM   27  C4  UNL     1       6.970   2.519  12.943  1.00  0.00     0.125 C 
BRANCH  27  28
HETATM   28  C3  UNL     1       6.196   3.797  13.075  1.00  0.00     0.019 C 
BRANCH  28  29
HETATM   29  C2  UNL     1       6.597   4.866  12.118  1.00  0.00    -0.003 C 
HETATM   30  C1  UNL     1       7.087   6.125  12.805  1.00  0.00     0.005 C 
ENDBRANCH  28  29
ENDBRANCH  27  28
ENDBRANCH  26  27
BRANCH  26  31
HETATM   31  C5  UNL     1       7.680   1.557  15.130  1.00  0.00     0.124 C 
BRANCH  31  32
HETATM   32  C6  UNL     1       7.984   2.430  16.329  1.00  0.00     0.015 C 
HETATM   33  C7  UNL     1       8.692   1.595  17.378  1.00  0.00     0.006 C 
ENDBRANCH  31  32
ENDBRANCH  26  31
ENDBRANCH  19  26
ENDBRANCH   1  16
BRANCH  13  34
HETATM   34  C19 UNL     1      16.505   7.604   9.602  1.00  0.00    -0.034 A 
HETATM   35  C20 UNL     1      15.938   8.634  10.320  1.00  0.00     0.009 A 
HETATM   36  C21 UNL     1      16.572   9.859  10.472  1.00  0.00     0.001 A 
HETATM   37  C22 UNL     1      17.810  10.060   9.887  1.00  0.00     0.000 A 
HETATM   38  C23 UNL     1      18.391   9.041   9.165  1.00  0.00     0.001 A 
HETATM   39  C24 UNL     1      17.747   7.824   9.023  1.00  0.00     0.009 A 
ENDBRANCH  13  34
TORSDOF 9
ENDMDL
MODEL 5
REMARK VINA RESULT: -7.857873564      0.587      2.453
REMARK  9 active torsions:
REMARK  status: ('A' for Active; 'I' for Inactive)
REMARK    1  A    between atoms: C2_2  and  C3_3 
REMARK    2  A    between atoms: C3_3  and  C4_4 
REMARK    3  A    between atoms: C4_4  and  N1_5 
REMARK    4  A    between atoms: N1_5  and  C5_6 
REMARK    5  A    between atoms: N1_5  and  C8_9 
REMARK    6  A    between atoms: C5_6  and  C6_7 
REMARK    7  A    between atoms: C9_12  and  C10_13 
REMARK    8  A    between atoms: C11_17  and  C12_18 
REMARK    9  A    between atoms: C18_30  and  C19_31 
ROOT
HETATM    1  C12 UNL     1      13.438   5.735  11.354  1.00  0.00     0.156 A 
HETATM    2  N3  UNL     1      12.256   5.586  10.673  1.00  0.00    -0.172 N 
ATOM      3  H3  UNL     1      12.102   5.780   9.684  1.00  0.00     0.186 HD
HETATM    4  C13 UNL     1      11.339   5.137  11.547  1.00  0.00     0.702 A 
HETATM    5  N4  UNL     1      11.958   5.021  12.734  1.00  0.00    -0.088 N 
HETATM    6  N5  UNL     1      13.226   5.379  12.616  1.00  0.00    -0.263 N 
ATOM      7  H5  UNL     1      13.920   5.382  13.363  1.00  0.00     0.190 HD
HETATM    8  C14 UNL     1      11.191   4.598  13.853  1.00  0.00     0.065 C 
HETATM    9  C15 UNL     1      11.652   3.818  14.803  1.00  0.00     0.084 C 
HETATM   10 BR1  UNL     1      13.441   3.182  14.739  1.00  0.00    -0.061 Br
HETATM   11  C16 UNL     1       9.766   5.107  13.885  1.00  0.00     0.062 C 
HETATM   12  C17 UNL     1       9.082   4.670  15.134  1.00  0.00     0.019 C 
HETATM   13  C18 UNL     1       9.073   4.683  12.608  1.00  0.00     0.142 C 
HETATM   14  N6  UNL     1       9.959   4.783  11.468  1.00  0.00    -0.215 N 
ATOM     15  H6  UNL     1       9.570   4.587  10.546  1.00  0.00     0.178 HD
ENDROOT
BRANCH   1  16
HETATM   16  C11 UNL     1      14.670   6.269  10.752  1.00  0.00     0.086 A 
HETATM   17  C9  UNL     1      15.876   5.723  10.453  1.00  0.00     0.139 A 
HETATM   18  N2  UNL     1      16.792   6.501   9.965  1.00  0.00    -0.332 N 
HETATM   19  C8  UNL     1      16.551   7.788   9.768  1.00  0.00     0.148 A 
ATOM     20  H2  UNL     1      17.708   6.118   9.731  1.00  0.00     0.168 HD
HETATM   21  S1  UNL     1      14.932   7.928  10.297  1.00  0.00    -0.048 SA
BRANCH  17  22
HETATM   22  C10 UNL     1      16.149   4.238  10.651  1.00  0.00     0.434 C 
HETATM   23  F1  UNL     1      15.117   3.514  10.133  1.00  0.00    -0.165 F 
HETATM   24  F2  UNL     1      17.279   3.852   9.916  1.00  0.00    -0.165 F 
HETATM   25  F3  UNL     1      16.467   3.955  11.957  1.00  0.00    -0.165 F 
ENDBRANCH  17  22
BRANCH  19  26
HETATM   26  N1  UNL     1      17.453   8.784   9.268  1.00  0.00    -0.361 N 
BRANCH  26  27
HETATM   27  C4  UNL     1      17.453  10.109   9.779  1.00  0.00     0.125 C 
BRANCH  27  28
HETATM   28  C3  UNL     1      17.006  11.177   8.825  1.00  0.00     0.019 C 
BRANCH  28  29
HETATM   29  C2  UNL     1      15.545  11.470   8.863  1.00  0.00    -0.003 C 
HETATM   30  C1  UNL     1      14.786  10.854   7.704  1.00  0.00     0.005 C 
ENDBRANCH  28  29
ENDBRANCH  27  28
ENDBRANCH  26  27
BRANCH  26  31
HETATM   31  C5  UNL     1      18.357   8.389   8.218  1.00  0.00     0.124 C 
BRANCH  31  32
HETATM   32  C6  UNL     1      19.454   7.530   8.813  1.00  0.00     0.015 C 
HETATM   33  C7  UNL     1      19.491   6.204   8.080  1.00  0.00     0.006 C 
ENDBRANCH  31  32
ENDBRANCH  26  31
ENDBRANCH  19  26
ENDBRANCH   1  16
BRANCH  13  34
HETATM   34  C19 UNL     1       8.534   3.304  12.804  1.00  0.00    -0.034 A 
HETATM   35  C20 UNL     1       7.235   3.094  13.212  1.00  0.00     0.009 A 
HETATM   36  C21 UNL     1       6.723   1.818  13.404  1.00  0.00     0.001 A 
HETATM   37  C22 UNL     1       7.535   0.720  13.181  1.00  0.00     0.000 A 
HETATM   38  C23 UNL     1       8.837   0.913  12.772  1.00  0.00     0.001 A 
HETATM   39  C24 UNL     1       9.333   2.191  12.585  1.00  0.00     0.009 A 
ENDBRANCH  13  34
TORSDOF 9
ENDMDL
