MODEL 1
REMARK VINA RESULT: -8.391068440      0.000      0.000
REMARK  8 active torsions:
REMARK  status: ('A' for Active; 'I' for Inactive)
REMARK       I    between atoms: C1_4  and  N2_5 
REMARK       I    between atoms: C1_4  and  N9_20 
REMARK    1  A    between atoms: N2_5  and  N3_7 
REMARK    2  A    between atoms: N4_9  and  N5_11 
REMARK       I    between atoms: N5_11  and  C2_13 
REMARK       I    between atoms: C2_13  and  N7_15 
REMARK    3  A    between atoms: N7_15  and  N8_17 
REMARK    4  A    between atoms: N9_20  and  O1_22 
REMARK    5  A    between atoms: O1_22  and  C3_23 
REMARK    6  A    between atoms: C3_23  and  N10_24 
REMARK    7  A    between atoms: C6_29  and  N12_30 
REMARK    8  A    between atoms: C7_35  and  N14_36 
ROOT
HETATM    1  N1  UNL     1     -34.576  17.868 -11.201  1.00  0.00    -0.232 N 
ATOM      2  H11 UNL     1     -34.999  18.702 -11.609  1.00  0.00     0.174 HD
ATOM      3  H12 UNL     1     -34.861  17.555 -10.273  1.00  0.00     0.174 HD
HETATM    4  C1  UNL     1     -33.692  17.211 -11.841  1.00  0.00     0.711 C 
HETATM    5  N2  UNL     1     -33.110  16.061 -11.277  1.00  0.00    -0.115 N 
ATOM      6  H2  UNL     1     -32.094  16.046 -11.182  1.00  0.00     0.207 HD
HETATM    7  N9  UNL     1     -33.298  17.643 -13.121  1.00  0.00    -0.094 N 
ATOM      8  H9  UNL     1     -34.010  17.731 -13.847  1.00  0.00     0.213 HD
ENDROOT
BRANCH   7   9
HETATM    9  O1  UNL     1     -32.009  17.949 -13.432  1.00  0.00    -0.246 OA
BRANCH   9  10
HETATM   10  C3  UNL     1     -31.829  19.297 -13.137  1.00  0.00     0.335 C 
BRANCH  10  11
HETATM   11  N10 UNL     1     -30.593  19.816 -13.660  1.00  0.00    -0.302 N 
HETATM   12  C4  UNL     1     -29.665  20.587 -13.100  1.00  0.00     0.187 A 
HETATM   13  N11 UNL     1     -28.667  20.827 -13.966  1.00  0.00    -0.346 N 
HETATM   14  C5  UNL     1     -28.945  20.193 -15.142  1.00  0.00     0.123 A 
ATOM     15  H11 UNL     1     -27.838  21.391 -13.777  1.00  0.00     0.167 HD
HETATM   16  C6  UNL     1     -28.287  20.096 -16.352  1.00  0.00     0.145 A 
HETATM   17  C8  UNL     1     -30.157  19.566 -14.926  1.00  0.00     0.156 A 
HETATM   18  N13 UNL     1     -28.835  19.377 -17.342  1.00  0.00    -0.175 N 
HETATM   19  C7  UNL     1     -30.022  18.755 -17.150  1.00  0.00     0.679 A 
ATOM     20  H13 UNL     1     -28.357  19.299 -18.240  1.00  0.00     0.186 HD
HETATM   21  N15 UNL     1     -30.652  18.858 -15.966  1.00  0.00    -0.174 N 
ATOM     22  H15 UNL     1     -31.545  18.379 -15.847  1.00  0.00     0.186 HD
BRANCH  16  23
HETATM   23  N12 UNL     1     -27.162  20.680 -16.546  1.00  0.00    -0.383 N 
ATOM     24 2H12 UNL     1     -26.316  20.288 -16.132  1.00  0.00     0.157 HD
ATOM     25 1H12 UNL     1     -27.096  21.530 -17.107  1.00  0.00     0.157 HD
ENDBRANCH  16  23
BRANCH  19  26
HETATM   26  N14 UNL     1     -30.518  18.072 -18.129  1.00  0.00    -0.234 N 
ATOM     27 2H14 UNL     1     -31.433  17.628 -18.066  1.00  0.00     0.174 HD
ATOM     28 1H14 UNL     1     -29.966  17.985 -18.983  1.00  0.00     0.174 HD
ENDBRANCH  19  26
ENDBRANCH  10  11
ENDBRANCH   9  10
ENDBRANCH   7   9
BRANCH   5  29
HETATM   29  N3  UNL     1     -33.814  14.944 -10.840  1.00  0.00    -0.214 N 
HETATM   30  N4  UNL     1     -34.240  14.786  -9.670  1.00  0.00    -0.225 N 
ATOM     31  H4  UNL     1     -34.084  15.499  -8.958  1.00  0.00     0.210 HD
ATOM     32  H3  UNL     1     -33.996  14.202 -11.516  1.00  0.00     0.210 HD
BRANCH  30  33
HETATM   33  N5  UNL     1     -34.935  13.612  -9.367  1.00  0.00    -0.257 N 
HETATM   34  C2  UNL     1     -36.023  13.732  -8.452  1.00  0.00     0.222 C 
HETATM   35  N6  UNL     1     -36.791  14.908  -8.424  1.00  0.00    -0.061 NA
HETATM   36  N7  UNL     1     -36.307  12.769  -7.652  1.00  0.00    -0.279 N 
ATOM     37  H7  UNL     1     -37.092  12.886  -7.011  1.00  0.00     0.189 HD
ATOM     38  H5  UNL     1     -34.677  12.714  -9.779  1.00  0.00     0.191 HD
BRANCH  36  39
HETATM   39  N8  UNL     1     -35.601  11.580  -7.617  1.00  0.00    -0.343 N 
ATOM     40  H82 UNL     1     -36.141  10.714  -7.581  1.00  0.00     0.176 HD
ATOM     41  H81 UNL     1     -34.582  11.535  -7.626  1.00  0.00     0.176 HD
ENDBRANCH  36  39
ENDBRANCH  30  33
ENDBRANCH   5  29
TORSDOF 8
ENDMDL
MODEL 2
REMARK VINA RESULT: -8.216625534      3.561      5.470
REMARK  8 active torsions:
REMARK  status: ('A' for Active; 'I' for Inactive)
REMARK       I    between atoms: C1_4  and  N2_5 
REMARK       I    between atoms: C1_4  and  N9_20 
REMARK    1  A    between atoms: N2_5  and  N3_7 
REMARK    2  A    between atoms: N4_9  and  N5_11 
REMARK       I    between atoms: N5_11  and  C2_13 
REMARK       I    between atoms: C2_13  and  N7_15 
REMARK    3  A    between atoms: N7_15  and  N8_17 
REMARK    4  A    between atoms: N9_20  and  O1_22 
REMARK    5  A    between atoms: O1_22  and  C3_23 
REMARK    6  A    between atoms: C3_23  and  N10_24 
REMARK    7  A    between atoms: C6_29  and  N12_30 
REMARK    8  A    between atoms: C7_35  and  N14_36 
ROOT
HETATM    1  N1  UNL     1     -33.019  17.632 -12.883  1.00  0.00    -0.232 N 
ATOM      2  H11 UNL     1     -32.246  17.594 -13.548  1.00  0.00     0.174 HD
ATOM      3  H12 UNL     1     -33.711  16.883 -12.863  1.00  0.00     0.174 HD
HETATM    4  C1  UNL     1     -33.127  18.608 -12.072  1.00  0.00     0.711 C 
HETATM    5  N2  UNL     1     -34.192  18.659 -11.154  1.00  0.00    -0.115 N 
ATOM      6  H2  UNL     1     -34.797  19.480 -11.180  1.00  0.00     0.207 HD
HETATM    7  N9  UNL     1     -32.172  19.642 -12.099  1.00  0.00    -0.094 N 
ATOM      8  H9  UNL     1     -31.190  19.403 -11.954  1.00  0.00     0.213 HD
ENDROOT
BRANCH   7   9
HETATM    9  O1  UNL     1     -32.501  20.945 -12.310  1.00  0.00    -0.246 OA
BRANCH   9  10
HETATM   10  C3  UNL     1     -31.352  21.586 -12.763  1.00  0.00     0.335 C 
BRANCH  10  11
HETATM   11  N10 UNL     1     -30.375  21.767 -11.722  1.00  0.00    -0.302 N 
HETATM   12  C4  UNL     1     -29.089  21.429 -11.665  1.00  0.00     0.187 A 
HETATM   13  N11 UNL     1     -28.559  21.796 -10.487  1.00  0.00    -0.346 N 
HETATM   14  C5  UNL     1     -29.528  22.397  -9.737  1.00  0.00     0.123 A 
ATOM     15  H11 UNL     1     -27.591  21.649 -10.199  1.00  0.00     0.167 HD
HETATM   16  C6  UNL     1     -29.548  22.956  -8.475  1.00  0.00     0.145 A 
HETATM   17  C8  UNL     1     -30.656  22.367 -10.532  1.00  0.00     0.156 A 
HETATM   18  N13 UNL     1     -30.689  23.482  -8.007  1.00  0.00    -0.175 N 
HETATM   19  C7  UNL     1     -31.807  23.462  -8.771  1.00  0.00     0.679 A 
ATOM     20  H13 UNL     1     -30.715  23.897  -7.076  1.00  0.00     0.186 HD
HETATM   21  N15 UNL     1     -31.773  22.915  -9.999  1.00  0.00    -0.174 N 
ATOM     22  H15 UNL     1     -32.628  22.913 -10.555  1.00  0.00     0.186 HD
BRANCH  16  23
HETATM   23  N12 UNL     1     -28.496  22.981  -7.741  1.00  0.00    -0.383 N 
ATOM     24 2H12 UNL     1     -27.580  23.066  -8.183  1.00  0.00     0.157 HD
ATOM     25 1H12 UNL     1     -28.557  22.916  -6.725  1.00  0.00     0.157 HD
ENDBRANCH  16  23
BRANCH  19  26
HETATM   26  N14 UNL     1     -32.887  23.979  -8.285  1.00  0.00    -0.234 N 
ATOM     27 2H14 UNL     1     -33.787  23.505  -8.351  1.00  0.00     0.174 HD
ATOM     28 1H14 UNL     1     -32.820  24.886  -7.823  1.00  0.00     0.174 HD
ENDBRANCH  19  26
ENDBRANCH  10  11
ENDBRANCH   9  10
ENDBRANCH   7   9
BRANCH   5  29
HETATM   29  N3  UNL     1     -34.483  17.675 -10.215  1.00  0.00    -0.214 N 
HETATM   30  N4  UNL     1     -35.454  16.885 -10.292  1.00  0.00    -0.225 N 
ATOM     31  H4  UNL     1     -36.101  16.929 -11.080  1.00  0.00     0.210 HD
ATOM     32  H3  UNL     1     -33.864  17.591  -9.408  1.00  0.00     0.210 HD
BRANCH  30  33
HETATM   33  N5  UNL     1     -35.628  15.942  -9.275  1.00  0.00    -0.257 N 
HETATM   34  C2  UNL     1     -35.027  14.664  -9.480  1.00  0.00     0.222 C 
HETATM   35  N6  UNL     1     -33.822  14.560 -10.195  1.00  0.00    -0.061 NA
HETATM   36  N7  UNL     1     -35.580  13.604  -9.012  1.00  0.00    -0.279 N 
ATOM     37  H7  UNL     1     -35.124  12.706  -9.174  1.00  0.00     0.189 HD
ATOM     38  H5  UNL     1     -36.158  16.156  -8.430  1.00  0.00     0.191 HD
BRANCH  36  39
HETATM   39  N8  UNL     1     -36.766  13.621  -8.298  1.00  0.00    -0.343 N 
ATOM     40  H82 UNL     1     -36.813  14.232  -7.482  1.00  0.00     0.176 HD
ATOM     41  H81 UNL     1     -37.578  13.058  -8.551  1.00  0.00     0.176 HD
ENDBRANCH  36  39
ENDBRANCH  30  33
ENDBRANCH   5  29
TORSDOF 8
ENDMDL
MODEL 3
REMARK VINA RESULT: -8.149635723      1.535      2.081
REMARK  8 active torsions:
REMARK  status: ('A' for Active; 'I' for Inactive)
REMARK       I    between atoms: C1_4  and  N2_5 
REMARK       I    between atoms: C1_4  and  N9_20 
REMARK    1  A    between atoms: N2_5  and  N3_7 
REMARK    2  A    between atoms: N4_9  and  N5_11 
REMARK       I    between atoms: N5_11  and  C2_13 
REMARK       I    between atoms: C2_13  and  N7_15 
REMARK    3  A    between atoms: N7_15  and  N8_17 
REMARK    4  A    between atoms: N9_20  and  O1_22 
REMARK    5  A    between atoms: O1_22  and  C3_23 
REMARK    6  A    between atoms: C3_23  and  N10_24 
REMARK    7  A    between atoms: C6_29  and  N12_30 
REMARK    8  A    between atoms: C7_35  and  N14_36 
ROOT
HETATM    1  N1  UNL     1     -34.087  19.072 -12.227  1.00  0.00    -0.232 N 
ATOM      2  H11 UNL     1     -34.467  19.661 -12.968  1.00  0.00     0.174 HD
ATOM      3  H12 UNL     1     -34.527  19.062 -11.308  1.00  0.00     0.174 HD
HETATM    4  C1  UNL     1     -33.063  18.345 -12.441  1.00  0.00     0.711 C 
HETATM    5  N2  UNL     1     -32.538  17.533 -11.419  1.00  0.00    -0.115 N 
ATOM      6  H2  UNL     1     -31.560  17.670 -11.163  1.00  0.00     0.207 HD
HETATM    7  N9  UNL     1     -32.454  18.359 -13.710  1.00  0.00    -0.094 N 
ATOM      8  H9  UNL     1     -33.017  18.110 -14.524  1.00  0.00     0.213 HD
ENDROOT
BRANCH   7   9
HETATM    9  O1  UNL     1     -31.148  18.690 -13.899  1.00  0.00    -0.246 OA
BRANCH   9  10
HETATM   10  C3  UNL     1     -31.013  19.065 -15.232  1.00  0.00     0.335 C 
BRANCH  10  11
HETATM   11  N10 UNL     1     -30.134  20.192 -15.401  1.00  0.00    -0.302 N 
HETATM   12  C4  UNL     1     -30.221  21.440 -14.948  1.00  0.00     0.187 A 
HETATM   13  N11 UNL     1     -29.164  22.162 -15.355  1.00  0.00    -0.346 N 
HETATM   14  C5  UNL     1     -28.350  21.365 -16.106  1.00  0.00     0.123 A 
ATOM     15  H11 UNL     1     -28.998  23.146 -15.139  1.00  0.00     0.167 HD
HETATM   16  C6  UNL     1     -27.154  21.573 -16.763  1.00  0.00     0.145 A 
HETATM   17  C8  UNL     1     -28.979  20.136 -16.120  1.00  0.00     0.156 A 
HETATM   18  N13 UNL     1     -26.587  20.559 -17.433  1.00  0.00    -0.175 N 
HETATM   19  C7  UNL     1     -27.188  19.346 -17.460  1.00  0.00     0.679 A 
ATOM     20  H13 UNL     1     -25.704  20.702 -17.923  1.00  0.00     0.186 HD
HETATM   21  N15 UNL     1     -28.354  19.157 -16.815  1.00  0.00    -0.174 N 
ATOM     22  H15 UNL     1     -28.785  18.234 -16.850  1.00  0.00     0.186 HD
BRANCH  16  23
HETATM   23  N12 UNL     1     -26.575  22.717 -16.746  1.00  0.00    -0.383 N 
ATOM     24 2H12 UNL     1     -25.556  22.762 -16.735  1.00  0.00     0.157 HD
ATOM     25 1H12 UNL     1     -27.114  23.584 -16.741  1.00  0.00     0.157 HD
ENDBRANCH  16  23
BRANCH  19  26
HETATM   26  N14 UNL     1     -26.611  18.394 -18.117  1.00  0.00    -0.234 N 
ATOM     27 2H14 UNL     1     -26.544  18.407 -19.135  1.00  0.00     0.174 HD
ATOM     28 1H14 UNL     1     -26.217  17.616 -17.589  1.00  0.00     0.174 HD
ENDBRANCH  19  26
ENDBRANCH  10  11
ENDBRANCH   9  10
ENDBRANCH   7   9
BRANCH   5  29
HETATM   29  N3  UNL     1     -33.252  16.556 -10.732  1.00  0.00    -0.214 N 
HETATM   30  N4  UNL     1     -33.531  15.424 -11.194  1.00  0.00    -0.225 N 
ATOM     31  H4  UNL     1     -33.235  15.157 -12.133  1.00  0.00     0.210 HD
ATOM     32  H3  UNL     1     -33.569  16.776  -9.788  1.00  0.00     0.210 HD
BRANCH  30  33
HETATM   33  N5  UNL     1     -34.256  14.537 -10.393  1.00  0.00    -0.257 N 
HETATM   34  C2  UNL     1     -35.335  15.092  -9.642  1.00  0.00     0.222 C 
HETATM   35  N6  UNL     1     -36.069  16.172 -10.159  1.00  0.00    -0.061 NA
HETATM   36  N7  UNL     1     -35.641  14.609  -8.492  1.00  0.00    -0.279 N 
ATOM     37  H7  UNL     1     -36.418  15.028  -7.981  1.00  0.00     0.189 HD
ATOM     38  H5  UNL     1     -34.025  13.544 -10.347  1.00  0.00     0.191 HD
BRANCH  36  39
HETATM   39  N8  UNL     1     -34.967  13.548  -7.912  1.00  0.00    -0.343 N 
ATOM     40  H82 UNL     1     -33.954  13.516  -8.028  1.00  0.00     0.176 HD
ATOM     41  H81 UNL     1     -35.435  12.811  -7.384  1.00  0.00     0.176 HD
ENDBRANCH  36  39
ENDBRANCH  30  33
ENDBRANCH   5  29
TORSDOF 8
ENDMDL
MODEL 4
REMARK VINA RESULT: -8.141276511      1.128      1.405
REMARK  8 active torsions:
REMARK  status: ('A' for Active; 'I' for Inactive)
REMARK       I    between atoms: C1_4  and  N2_5 
REMARK       I    between atoms: C1_4  and  N9_20 
REMARK    1  A    between atoms: N2_5  and  N3_7 
REMARK    2  A    between atoms: N4_9  and  N5_11 
REMARK       I    between atoms: N5_11  and  C2_13 
REMARK       I    between atoms: C2_13  and  N7_15 
REMARK    3  A    between atoms: N7_15  and  N8_17 
REMARK    4  A    between atoms: N9_20  and  O1_22 
REMARK    5  A    between atoms: O1_22  and  C3_23 
REMARK    6  A    between atoms: C3_23  and  N10_24 
REMARK    7  A    between atoms: C6_29  and  N12_30 
REMARK    8  A    between atoms: C7_35  and  N14_36 
ROOT
HETATM    1  N1  UNL     1     -34.541  17.931 -11.318  1.00  0.00    -0.232 N 
ATOM      2  H11 UNL     1     -34.954  18.766 -11.732  1.00  0.00     0.174 HD
ATOM      3  H12 UNL     1     -34.860  17.603 -10.406  1.00  0.00     0.174 HD
HETATM    4  C1  UNL     1     -33.626  17.289 -11.930  1.00  0.00     0.711 C 
HETATM    5  N2  UNL     1     -33.056  16.137 -11.357  1.00  0.00    -0.115 N 
ATOM      6  H2  UNL     1     -32.045  16.129 -11.222  1.00  0.00     0.207 HD
HETATM    7  N9  UNL     1     -33.185  17.741 -13.188  1.00  0.00    -0.094 N 
ATOM      8  H9  UNL     1     -33.868  17.832 -13.941  1.00  0.00     0.213 HD
ENDROOT
BRANCH   7   9
HETATM    9  O1  UNL     1     -31.888  18.062 -13.443  1.00  0.00    -0.246 OA
BRANCH   9  10
HETATM   10  C3  UNL     1     -31.860  18.680 -14.690  1.00  0.00     0.335 C 
BRANCH  10  11
HETATM   11  N10 UNL     1     -31.115  19.911 -14.678  1.00  0.00    -0.302 N 
HETATM   12  C4  UNL     1     -31.345  21.062 -14.052  1.00  0.00     0.187 A 
HETATM   13  N11 UNL     1     -30.376  21.950 -14.331  1.00  0.00    -0.346 N 
HETATM   14  C5  UNL     1     -29.474  21.366 -15.172  1.00  0.00     0.123 A 
ATOM     15  H11 UNL     1     -30.324  22.904 -13.973  1.00  0.00     0.167 HD
HETATM   16  C6  UNL     1     -28.308  21.800 -15.769  1.00  0.00     0.145 A 
HETATM   17  C8  UNL     1     -29.959  20.089 -15.375  1.00  0.00     0.156 A 
HETATM   18  N13 UNL     1     -27.627  20.964 -16.567  1.00  0.00    -0.175 N 
HETATM   19  C7  UNL     1     -28.086  19.708 -16.779  1.00  0.00     0.679 A 
ATOM     20  H13 UNL     1     -26.764  21.275 -17.013  1.00  0.00     0.186 HD
HETATM   21  N15 UNL     1     -29.224  19.298 -16.190  1.00  0.00    -0.174 N 
ATOM     22  H15 UNL     1     -29.547  18.347 -16.366  1.00  0.00     0.186 HD
BRANCH  16  23
HETATM   23  N12 UNL     1     -27.863  22.988 -15.576  1.00  0.00    -0.383 N 
ATOM     24 2H12 UNL     1     -28.515  23.772 -15.576  1.00  0.00     0.157 HD
ATOM     25 1H12 UNL     1     -26.870  23.163 -15.424  1.00  0.00     0.157 HD
ENDBRANCH  16  23
BRANCH  19  26
HETATM   26  N14 UNL     1     -27.402  18.932 -17.555  1.00  0.00    -0.234 N 
ATOM     27 2H14 UNL     1     -26.799  19.302 -18.289  1.00  0.00     0.174 HD
ATOM     28 1H14 UNL     1     -27.477  17.925 -17.415  1.00  0.00     0.174 HD
ENDBRANCH  19  26
ENDBRANCH  10  11
ENDBRANCH   9  10
ENDBRANCH   7   9
BRANCH   5  29
HETATM   29  N3  UNL     1     -33.767  15.008 -10.963  1.00  0.00    -0.214 N 
HETATM   30  N4  UNL     1     -34.165  14.794  -9.793  1.00  0.00    -0.225 N 
ATOM     31  H4  UNL     1     -33.978  15.464  -9.047  1.00  0.00     0.210 HD
ATOM     32  H3  UNL     1     -33.979  14.308 -11.673  1.00  0.00     0.210 HD
BRANCH  30  33
HETATM   33  N5  UNL     1     -34.870  13.615  -9.535  1.00  0.00    -0.257 N 
HETATM   34  C2  UNL     1     -35.952  13.708  -8.609  1.00  0.00     0.222 C 
HETATM   35  N6  UNL     1     -36.706  14.890  -8.526  1.00  0.00    -0.061 NA
HETATM   36  N7  UNL     1     -36.242  12.715  -7.848  1.00  0.00    -0.279 N 
ATOM     37  H7  UNL     1     -37.022  12.813  -7.198  1.00  0.00     0.189 HD
ATOM     38  H5  UNL     1     -34.625  12.733  -9.985  1.00  0.00     0.191 HD
BRANCH  36  39
HETATM   39  N8  UNL     1     -35.548  11.517  -7.868  1.00  0.00    -0.343 N 
ATOM     40  H82 UNL     1     -35.390  11.083  -8.777  1.00  0.00     0.176 HD
ATOM     41  H81 UNL     1     -35.196  11.062  -7.026  1.00  0.00     0.176 HD
ENDBRANCH  36  39
ENDBRANCH  30  33
ENDBRANCH   5  29
TORSDOF 8
ENDMDL
MODEL 5
REMARK VINA RESULT: -8.064168358      3.137      4.637
REMARK  8 active torsions:
REMARK  status: ('A' for Active; 'I' for Inactive)
REMARK       I    between atoms: C1_4  and  N2_5 
REMARK       I    between atoms: C1_4  and  N9_20 
REMARK    1  A    between atoms: N2_5  and  N3_7 
REMARK    2  A    between atoms: N4_9  and  N5_11 
REMARK       I    between atoms: N5_11  and  C2_13 
REMARK       I    between atoms: C2_13  and  N7_15 
REMARK    3  A    between atoms: N7_15  and  N8_17 
REMARK    4  A    between atoms: N9_20  and  O1_22 
REMARK    5  A    between atoms: O1_22  and  C3_23 
REMARK    6  A    between atoms: C3_23  and  N10_24 
REMARK    7  A    between atoms: C6_29  and  N12_30 
REMARK    8  A    between atoms: C7_35  and  N14_36 
ROOT
HETATM    1  N1  UNL     1     -35.467  17.102 -12.250  1.00  0.00    -0.232 N 
ATOM      2  H11 UNL     1     -35.549  17.102 -13.267  1.00  0.00     0.174 HD
ATOM      3  H12 UNL     1     -36.155  16.607 -11.684  1.00  0.00     0.174 HD
HETATM    4  C1  UNL     1     -34.507  17.714 -11.678  1.00  0.00     0.711 C 
HETATM    5  N2  UNL     1     -34.394  17.712 -10.276  1.00  0.00    -0.115 N 
ATOM      6  H2  UNL     1     -34.370  18.617  -9.804  1.00  0.00     0.207 HD
HETATM    7  N9  UNL     1     -33.556  18.396 -12.460  1.00  0.00    -0.094 N 
ATOM      8  H9  UNL     1     -33.034  17.872 -13.162  1.00  0.00     0.213 HD
ENDROOT
BRANCH   7   9
HETATM    9  O1  UNL     1     -33.303  19.726 -12.319  1.00  0.00    -0.246 OA
BRANCH   9  10
HETATM   10  C3  UNL     1     -32.103  19.983 -12.977  1.00  0.00     0.335 C 
BRANCH  10  11
HETATM   11  N10 UNL     1     -31.079  20.464 -12.087  1.00  0.00    -0.302 N 
HETATM   12  C4  UNL     1     -29.896  19.951 -11.763  1.00  0.00     0.187 A 
HETATM   13  N11 UNL     1     -29.264  20.747 -10.885  1.00  0.00    -0.346 N 
HETATM   14  C5  UNL     1     -30.057  21.825 -10.618  1.00  0.00     0.123 A 
ATOM     15  H11 UNL     1     -28.342  20.574 -10.483  1.00  0.00     0.167 HD
HETATM   16  C6  UNL     1     -29.918  22.934  -9.809  1.00  0.00     0.145 A 
HETATM   17  C8  UNL     1     -31.189  21.624 -11.383  1.00  0.00     0.156 A 
HETATM   18  N13 UNL     1     -30.904  23.841  -9.762  1.00  0.00    -0.175 N 
HETATM   19  C7  UNL     1     -32.023  23.664 -10.505  1.00  0.00     0.679 A 
ATOM     20  H13 UNL     1     -30.812  24.665  -9.168  1.00  0.00     0.186 HD
HETATM   21  N15 UNL     1     -32.145  22.578 -11.289  1.00  0.00    -0.174 N 
ATOM     22  H15 UNL     1     -32.997  22.468 -11.838  1.00  0.00     0.186 HD
BRANCH  16  23
HETATM   23  N12 UNL     1     -28.864  23.114  -9.101  1.00  0.00    -0.383 N 
ATOM     24 2H12 UNL     1     -28.307  23.957  -9.238  1.00  0.00     0.157 HD
ATOM     25 1H12 UNL     1     -28.571  22.429  -8.403  1.00  0.00     0.157 HD
ENDBRANCH  16  23
BRANCH  19  26
HETATM   26  N14 UNL     1     -32.951  24.560 -10.432  1.00  0.00    -0.234 N 
ATOM     27 2H14 UNL     1     -32.786  25.473 -10.009  1.00  0.00     0.174 HD
ATOM     28 1H14 UNL     1     -33.869  24.333 -10.814  1.00  0.00     0.174 HD
ENDBRANCH  19  26
ENDBRANCH  10  11
ENDBRANCH   9  10
ENDBRANCH   7   9
BRANCH   5  29
HETATM   29  N3  UNL     1     -34.312  16.572  -9.484  1.00  0.00    -0.214 N 
HETATM   30  N4  UNL     1     -35.292  16.026  -8.923  1.00  0.00    -0.225 N 
ATOM     31  H4  UNL     1     -36.232  16.409  -9.025  1.00  0.00     0.210 HD
ATOM     32  H3  UNL     1     -33.393  16.151  -9.351  1.00  0.00     0.210 HD
BRANCH  30  33
HETATM   33  N5  UNL     1     -35.067  14.880  -8.154  1.00  0.00    -0.257 N 
HETATM   34  C2  UNL     1     -34.974  13.645  -8.862  1.00  0.00     0.222 C 
HETATM   35  N6  UNL     1     -34.431  13.615 -10.157  1.00  0.00    -0.061 NA
HETATM   36  N7  UNL     1     -35.385  12.555  -8.320  1.00  0.00    -0.279 N 
ATOM     37  H7  UNL     1     -35.304  11.688  -8.852  1.00  0.00     0.189 HD
ATOM     38  H5  UNL     1     -34.973  14.926  -7.139  1.00  0.00     0.191 HD
BRANCH  36  39
HETATM   39  N8  UNL     1     -35.932  12.499  -7.050  1.00  0.00    -0.343 N 
ATOM     40  H82 UNL     1     -35.486  11.878  -6.374  1.00  0.00     0.176 HD
ATOM     41  H81 UNL     1     -36.747  13.044  -6.769  1.00  0.00     0.176 HD
ENDBRANCH  36  39
ENDBRANCH  30  33
ENDBRANCH   5  29
TORSDOF 8
ENDMDL
