MODEL 1
REMARK VINA RESULT: -7.880994694      0.000      0.000
REMARK  6 active torsions:
REMARK  status: ('A' for Active; 'I' for Inactive)
REMARK    1  A    between atoms: C5_7  and  O1_8 
REMARK    2  A    between atoms: C9_14  and  C10_15 
REMARK    3  A    between atoms: C12_17  and  O2_18 
REMARK    4  A    between atoms: O2_18  and  C13_19 
REMARK    5  A    between atoms: C13_19  and  C14_20 
REMARK    6  A    between atoms: C14_20  and  N2_21 
ROOT
HETATM    1  C10 UNL     1       7.724  39.243  57.448  1.00  0.00     0.047 A 
HETATM    2  C11 UNL     1       7.963  40.571  57.210  1.00  0.00     0.067 A 
HETATM    3  C12 UNL     1       7.846  41.547  58.222  1.00  0.00     0.072 A 
HETATM    4  C20 UNL     1       7.480  41.127  59.477  1.00  0.00     0.053 A 
HETATM    5  C21 UNL     1       7.246  39.785  59.689  1.00  0.00     0.091 A 
HETATM    6  N4  UNL     1       7.371  38.914  58.697  1.00  0.00    -0.365 N 
ATOM      7  H4  UNL     1       7.187  37.931  58.899  1.00  0.00     0.165 HD
ENDROOT
BRANCH   1   8
HETATM    8  C9  UNL     1       7.857  38.264  56.377  1.00  0.00     0.025 A 
HETATM    9  C2  UNL     1       8.931  37.455  56.080  1.00  0.00     0.019 A 
HETATM   10  C1  UNL     1      10.244  37.407  56.819  1.00  0.00     0.069 C 
HETATM   11  N1  UNL     1       8.578  36.723  55.009  1.00  0.00    -0.358 N 
HETATM   12  C3  UNL     1       7.342  37.004  54.590  1.00  0.00     0.046 A 
ATOM     13  H1  UNL     1       9.185  36.032  54.567  1.00  0.00     0.166 HD
HETATM   14  C4  UNL     1       6.531  36.539  53.552  1.00  0.00     0.068 A 
HETATM   15  C8  UNL     1       6.878  37.980  55.451  1.00  0.00     0.006 A 
HETATM   16  C5  UNL     1       5.260  37.038  53.367  1.00  0.00     0.085 A 
HETATM   17  C6  UNL     1       4.785  38.011  54.221  1.00  0.00     0.045 A 
HETATM   18 BR1  UNL     1       3.041  38.761  54.045  1.00  0.00    -0.048 Br
HETATM   19  C7  UNL     1       5.586  38.479  55.252  1.00  0.00     0.036 A 
BRANCH  16  20
HETATM   20  O1  UNL     1       4.427  36.596  52.344  1.00  0.00    -0.359 OA
ATOM     21  H1  UNL     1       3.497  36.452  52.473  1.00  0.00     0.217 HD
ENDBRANCH  16  20
ENDBRANCH   1   8
BRANCH   3  22
HETATM   22  O2  UNL     1       8.094  42.847  57.944  1.00  0.00    -0.349 OA
BRANCH  22  23
HETATM   23  C13 UNL     1       7.800  44.041  58.530  1.00  0.00     0.206 C 
BRANCH  23  24
HETATM   24  C14 UNL     1       8.976  44.758  59.096  1.00  0.00     0.299 C 
BRANCH  24  25
HETATM   25  N2  UNL     1       8.820  45.078  60.502  1.00  0.00     0.093 N 
HETATM   26  C15 UNL     1       8.142  44.065  61.253  1.00  0.00     0.302 C 
HETATM   27  C16 UNL     1       8.076  44.495  62.702  1.00  0.00     0.302 C 
HETATM   28  N3  UNL     1       8.803  45.698  62.973  1.00  0.00     0.087 N 
HETATM   29  C17 UNL     1      10.217  45.428  63.112  1.00  0.00     0.310 C 
HETATM   30  C18 UNL     1       8.515  46.799  62.108  1.00  0.00     0.302 C 
HETATM   31  C19 UNL     1       8.128  46.338  60.710  1.00  0.00     0.302 C 
ENDBRANCH  24  25
ENDBRANCH  23  24
ENDBRANCH  22  23
ENDBRANCH   3  22
TORSDOF 6
ENDMDL
MODEL 2
REMARK VINA RESULT: -7.689072926      3.393      5.345
REMARK  6 active torsions:
REMARK  status: ('A' for Active; 'I' for Inactive)
REMARK    1  A    between atoms: C5_7  and  O1_8 
REMARK    2  A    between atoms: C9_14  and  C10_15 
REMARK    3  A    between atoms: C12_17  and  O2_18 
REMARK    4  A    between atoms: O2_18  and  C13_19 
REMARK    5  A    between atoms: C13_19  and  C14_20 
REMARK    6  A    between atoms: C14_20  and  N2_21 
ROOT
HETATM    1  C10 UNL     1       7.619  43.626  58.524  1.00  0.00     0.047 A 
HETATM    2  C11 UNL     1       7.388  43.302  59.835  1.00  0.00     0.067 A 
HETATM    3  C12 UNL     1       8.058  43.948  60.895  1.00  0.00     0.072 A 
HETATM    4  C20 UNL     1       8.964  44.930  60.577  1.00  0.00     0.053 A 
HETATM    5  C21 UNL     1       9.177  45.235  59.250  1.00  0.00     0.091 A 
HETATM    6  N4  UNL     1       8.518  44.592  58.296  1.00  0.00    -0.365 N 
ATOM      7  H4  UNL     1       8.707  44.850  57.327  1.00  0.00     0.165 HD
ENDROOT
BRANCH   1   8
HETATM    8  C9  UNL     1       6.906  42.938  57.456  1.00  0.00     0.025 A 
HETATM    9  C2  UNL     1       5.809  43.363  56.740  1.00  0.00     0.019 A 
HETATM   10  C1  UNL     1       5.083  44.672  56.915  1.00  0.00     0.069 C 
HETATM   11  N1  UNL     1       5.518  42.386  55.864  1.00  0.00    -0.358 N 
HETATM   12  C3  UNL     1       6.356  41.352  55.962  1.00  0.00     0.046 A 
ATOM     13  H1  UNL     1       4.745  42.430  55.199  1.00  0.00     0.166 HD
HETATM   14  C4  UNL     1       6.481  40.127  55.303  1.00  0.00     0.068 A 
HETATM   15  C8  UNL     1       7.239  41.693  56.969  1.00  0.00     0.006 A 
HETATM   16  C5  UNL     1       7.479  39.239  55.639  1.00  0.00     0.085 A 
HETATM   17  C6  UNL     1       8.367  39.569  56.641  1.00  0.00     0.045 A 
HETATM   18 BR1  UNL     1       9.782  38.406  57.174  1.00  0.00    -0.048 Br
HETATM   19  C7  UNL     1       8.249  40.783  57.300  1.00  0.00     0.036 A 
BRANCH  16  20
HETATM   20  O1  UNL     1       7.631  38.012  55.001  1.00  0.00    -0.359 OA
ATOM     21  H1  UNL     1       6.894  37.525  54.654  1.00  0.00     0.217 HD
ENDBRANCH  16  20
ENDBRANCH   1   8
BRANCH   3  22
HETATM   22  O2  UNL     1       7.797  43.599  62.176  1.00  0.00    -0.349 OA
BRANCH  22  23
HETATM   23  C13 UNL     1       7.483  44.266  63.321  1.00  0.00     0.206 C 
BRANCH  23  24
HETATM   24  C14 UNL     1       6.252  45.100  63.234  1.00  0.00     0.299 C 
BRANCH  24  25
HETATM   25  N2  UNL     1       5.076  44.334  62.869  1.00  0.00     0.093 N 
HETATM   26  C15 UNL     1       4.476  44.750  61.637  1.00  0.00     0.302 C 
HETATM   27  C16 UNL     1       3.290  43.856  61.347  1.00  0.00     0.302 C 
HETATM   28  N3  UNL     1       3.153  42.772  62.272  1.00  0.00     0.087 N 
HETATM   29  C17 UNL     1       4.055  41.692  61.939  1.00  0.00     0.310 C 
HETATM   30  C18 UNL     1       3.184  43.135  63.654  1.00  0.00     0.302 C 
HETATM   31  C19 UNL     1       4.056  44.358  63.902  1.00  0.00     0.302 C 
ENDBRANCH  24  25
ENDBRANCH  23  24
ENDBRANCH  22  23
ENDBRANCH   3  22
TORSDOF 6
ENDMDL
MODEL 3
REMARK VINA RESULT: -7.670215387      3.435      5.418
REMARK  6 active torsions:
REMARK  status: ('A' for Active; 'I' for Inactive)
REMARK    1  A    between atoms: C5_7  and  O1_8 
REMARK    2  A    between atoms: C9_14  and  C10_15 
REMARK    3  A    between atoms: C12_17  and  O2_18 
REMARK    4  A    between atoms: O2_18  and  C13_19 
REMARK    5  A    between atoms: C13_19  and  C14_20 
REMARK    6  A    between atoms: C14_20  and  N2_21 
ROOT
HETATM    1  C10 UNL     1       7.567  43.699  58.624  1.00  0.00     0.047 A 
HETATM    2  C11 UNL     1       7.507  43.401  59.960  1.00  0.00     0.067 A 
HETATM    3  C12 UNL     1       8.264  44.107  60.920  1.00  0.00     0.072 A 
HETATM    4  C20 UNL     1       9.077  45.120  60.475  1.00  0.00     0.053 A 
HETATM    5  C21 UNL     1       9.119  45.398  59.126  1.00  0.00     0.091 A 
HETATM    6  N4  UNL     1       8.385  44.699  58.270  1.00  0.00    -0.365 N 
ATOM      7  H4  UNL     1       8.447  44.939  57.281  1.00  0.00     0.165 HD
ENDROOT
BRANCH   1   8
HETATM    8  C9  UNL     1       6.769  42.949  57.663  1.00  0.00     0.025 A 
HETATM    9  C2  UNL     1       5.579  43.305  57.070  1.00  0.00     0.019 A 
HETATM   10  C1  UNL     1       4.817  44.586  57.296  1.00  0.00     0.069 C 
HETATM   11  N1  UNL     1       5.234  42.291  56.257  1.00  0.00    -0.358 N 
HETATM   12  C3  UNL     1       6.125  41.297  56.282  1.00  0.00     0.046 A 
ATOM     13  H1  UNL     1       4.389  42.282  55.686  1.00  0.00     0.166 HD
HETATM   14  C4  UNL     1       6.230  40.060  55.643  1.00  0.00     0.068 A 
HETATM   15  C8  UNL     1       7.101  41.706  57.171  1.00  0.00     0.006 A 
HETATM   16  C5  UNL     1       7.301  39.227  55.882  1.00  0.00     0.085 A 
HETATM   17  C6  UNL     1       8.282  39.624  56.766  1.00  0.00     0.045 A 
HETATM   18 BR1  UNL     1       9.802  38.541  57.159  1.00  0.00    -0.048 Br
HETATM   19  C7  UNL     1       8.184  40.851  57.405  1.00  0.00     0.036 A 
BRANCH  16  20
HETATM   20  O1  UNL     1       7.436  37.989  55.261  1.00  0.00    -0.359 OA
ATOM     21  H1  UNL     1       7.073  37.193  55.630  1.00  0.00     0.217 HD
ENDBRANCH  16  20
ENDBRANCH   1   8
BRANCH   3  22
HETATM   22  O2  UNL     1       8.171  43.782  62.229  1.00  0.00    -0.349 OA
BRANCH  22  23
HETATM   23  C13 UNL     1       7.390  44.170  63.275  1.00  0.00     0.206 C 
BRANCH  23  24
HETATM   24  C14 UNL     1       6.524  45.349  62.997  1.00  0.00     0.299 C 
BRANCH  24  25
HETATM   25  N2  UNL     1       5.111  45.023  62.988  1.00  0.00     0.093 N 
HETATM   26  C15 UNL     1       4.338  45.780  63.926  1.00  0.00     0.302 C 
HETATM   27  C16 UNL     1       2.884  45.380  63.794  1.00  0.00     0.302 C 
HETATM   28  N3  UNL     1       2.637  44.478  62.710  1.00  0.00     0.087 N 
HETATM   29  C17 UNL     1       2.560  45.188  61.453  1.00  0.00     0.310 C 
HETATM   30  C18 UNL     1       3.483  43.326  62.664  1.00  0.00     0.302 C 
HETATM   31  C19 UNL     1       4.866  43.612  63.232  1.00  0.00     0.302 C 
ENDBRANCH  24  25
ENDBRANCH  23  24
ENDBRANCH  22  23
ENDBRANCH   3  22
TORSDOF 6
ENDMDL
MODEL 4
REMARK VINA RESULT: -7.441220293      3.861      9.442
REMARK  6 active torsions:
REMARK  status: ('A' for Active; 'I' for Inactive)
REMARK    1  A    between atoms: C5_7  and  O1_8 
REMARK    2  A    between atoms: C9_14  and  C10_15 
REMARK    3  A    between atoms: C12_17  and  O2_18 
REMARK    4  A    between atoms: O2_18  and  C13_19 
REMARK    5  A    between atoms: C13_19  and  C14_20 
REMARK    6  A    between atoms: C14_20  and  N2_21 
ROOT
HETATM    1  C10 UNL     1       6.100  44.346  61.473  1.00  0.00     0.047 A 
HETATM    2  C11 UNL     1       5.910  43.052  61.067  1.00  0.00     0.067 A 
HETATM    3  C12 UNL     1       4.640  42.437  61.093  1.00  0.00     0.072 A 
HETATM    4  C20 UNL     1       3.578  43.182  61.543  1.00  0.00     0.053 A 
HETATM    5  C21 UNL     1       3.797  44.481  61.946  1.00  0.00     0.091 A 
HETATM    6  N4  UNL     1       5.015  45.005  61.899  1.00  0.00    -0.365 N 
ATOM      7  H4  UNL     1       5.132  45.970  62.208  1.00  0.00     0.165 HD
ENDROOT
BRANCH   1   8
HETATM    8  C9  UNL     1       7.427  44.947  61.429  1.00  0.00     0.025 A 
HETATM    9  C2  UNL     1       8.004  45.685  60.420  1.00  0.00     0.019 A 
HETATM   10  C1  UNL     1       7.371  46.038  59.098  1.00  0.00     0.069 C 
HETATM   11  N1  UNL     1       9.234  46.023  60.844  1.00  0.00    -0.358 N 
HETATM   12  C3  UNL     1       9.495  45.553  62.067  1.00  0.00     0.046 A 
ATOM     13  H1  UNL     1       9.893  46.576  60.295  1.00  0.00     0.166 HD
HETATM   14  C4  UNL     1      10.591  45.623  62.929  1.00  0.00     0.068 A 
HETATM   15  C8  UNL     1       8.355  44.870  62.445  1.00  0.00     0.006 A 
HETATM   16  C5  UNL     1      10.559  45.017  64.166  1.00  0.00     0.085 A 
HETATM   17  C6  UNL     1       9.427  44.333  64.555  1.00  0.00     0.045 A 
HETATM   18 BR1  UNL     1       9.290  43.465  66.247  1.00  0.00    -0.048 Br
HETATM   19  C7  UNL     1       8.335  44.259  63.704  1.00  0.00     0.036 A 
BRANCH  16  20
HETATM   20  O1  UNL     1      11.634  45.067  65.048  1.00  0.00    -0.359 OA
ATOM     21  H1  UNL     1      11.987  45.887  65.373  1.00  0.00     0.217 HD
ENDBRANCH  16  20
ENDBRANCH   1   8
BRANCH   3  22
HETATM   22  O2  UNL     1       4.497  41.157  60.680  1.00  0.00    -0.349 OA
BRANCH  22  23
HETATM   23  C13 UNL     1       4.909  40.431  59.604  1.00  0.00     0.206 C 
BRANCH  23  24
HETATM   24  C14 UNL     1       6.047  39.511  59.877  1.00  0.00     0.299 C 
BRANCH  24  25
HETATM   25  N2  UNL     1       6.960  39.393  58.756  1.00  0.00     0.093 N 
HETATM   26  C15 UNL     1       7.914  40.458  58.674  1.00  0.00     0.302 C 
HETATM   27  C16 UNL     1       8.828  40.202  57.495  1.00  0.00     0.302 C 
HETATM   28  N3  UNL     1       8.605  38.936  56.865  1.00  0.00     0.087 N 
HETATM   29  C17 UNL     1       9.248  37.871  57.601  1.00  0.00     0.310 C 
HETATM   30  C18 UNL     1       7.247  38.652  56.520  1.00  0.00     0.302 C 
HETATM   31  C19 UNL     1       6.266  39.304  57.483  1.00  0.00     0.302 C 
ENDBRANCH  24  25
ENDBRANCH  23  24
ENDBRANCH  22  23
ENDBRANCH   3  22
TORSDOF 6
ENDMDL
MODEL 5
REMARK VINA RESULT: -7.396634026      4.114      9.412
REMARK  6 active torsions:
REMARK  status: ('A' for Active; 'I' for Inactive)
REMARK    1  A    between atoms: C5_7  and  O1_8 
REMARK    2  A    between atoms: C9_14  and  C10_15 
REMARK    3  A    between atoms: C12_17  and  O2_18 
REMARK    4  A    between atoms: O2_18  and  C13_19 
REMARK    5  A    between atoms: C13_19  and  C14_20 
REMARK    6  A    between atoms: C14_20  and  N2_21 
ROOT
HETATM    1  C10 UNL     1       6.283  44.659  61.802  1.00  0.00     0.047 A 
HETATM    2  C11 UNL     1       5.874  43.481  61.234  1.00  0.00     0.067 A 
HETATM    3  C12 UNL     1       4.537  43.035  61.313  1.00  0.00     0.072 A 
HETATM    4  C20 UNL     1       3.638  43.825  61.986  1.00  0.00     0.053 A 
HETATM    5  C21 UNL     1       4.076  45.005  62.547  1.00  0.00     0.091 A 
HETATM    6  N4  UNL     1       5.346  45.372  62.440  1.00  0.00    -0.365 N 
ATOM      7  H4  UNL     1       5.627  46.253  62.872  1.00  0.00     0.165 HD
ENDROOT
BRANCH   1   8
HETATM    8  C9  UNL     1       7.671  45.087  61.696  1.00  0.00     0.025 A 
HETATM    9  C2  UNL     1       8.297  45.729  60.651  1.00  0.00     0.019 A 
HETATM   10  C1  UNL     1       7.662  46.137  59.346  1.00  0.00     0.069 C 
HETATM   11  N1  UNL     1       9.575  45.917  61.023  1.00  0.00    -0.358 N 
HETATM   12  C3  UNL     1       9.822  45.439  62.244  1.00  0.00     0.046 A 
ATOM     13  H1  UNL     1      10.276  46.373  60.438  1.00  0.00     0.166 HD
HETATM   14  C4  UNL     1      10.951  45.384  63.064  1.00  0.00     0.068 A 
HETATM   15  C8  UNL     1       8.621  44.911  62.679  1.00  0.00     0.006 A 
HETATM   16  C5  UNL     1      10.892  44.807  64.314  1.00  0.00     0.085 A 
HETATM   17  C6  UNL     1       9.700  44.278  64.759  1.00  0.00     0.045 A 
HETATM   18 BR1  UNL     1       9.521  43.462  66.474  1.00  0.00    -0.048 Br
HETATM   19  C7  UNL     1       8.575  44.328  63.950  1.00  0.00     0.036 A 
BRANCH  16  20
HETATM   20  O1  UNL     1      11.999  44.737  65.156  1.00  0.00    -0.359 OA
ATOM     21  H1  UNL     1      11.916  44.678  66.100  1.00  0.00     0.217 HD
ENDBRANCH  16  20
ENDBRANCH   1   8
BRANCH   3  22
HETATM   22  O2  UNL     1       4.176  41.867  60.735  1.00  0.00    -0.349 OA
BRANCH  22  23
HETATM   23  C13 UNL     1       4.532  41.188  59.609  1.00  0.00     0.206 C 
BRANCH  23  24
HETATM   24  C14 UNL     1       5.490  40.071  59.836  1.00  0.00     0.299 C 
BRANCH  24  25
HETATM   25  N2  UNL     1       6.594  40.074  58.895  1.00  0.00     0.093 N 
HETATM   26  C15 UNL     1       7.361  38.865  58.902  1.00  0.00     0.302 C 
HETATM   27  C16 UNL     1       8.451  38.975  57.857  1.00  0.00     0.302 C 
HETATM   28  N3  UNL     1       8.358  40.159  57.059  1.00  0.00     0.087 N 
HETATM   29  C17 UNL     1       7.368  40.006  56.017  1.00  0.00     0.310 C 
HETATM   30  C18 UNL     1       8.234  41.383  57.787  1.00  0.00     0.302 C 
HETATM   31  C19 UNL     1       7.500  41.189  59.106  1.00  0.00     0.302 C 
ENDBRANCH  24  25
ENDBRANCH  23  24
ENDBRANCH  22  23
ENDBRANCH   3  22
TORSDOF 6
ENDMDL
