MODEL 1
REMARK VINA RESULT: -7.308481219      0.000      0.000
REMARK  10 active torsions:
REMARK  status: ('A' for Active; 'I' for Inactive)
REMARK    1  A    between atoms: C1_4  and  C2_5 
REMARK    2  A    between atoms: C1_4  and  N3_12 
REMARK    3  A    between atoms: C2_5  and  C3_6 
REMARK    4  A    between atoms: C3_6  and  C4_7 
REMARK    5  A    between atoms: C4_7  and  N2_8 
REMARK    6  A    between atoms: N3_12  and  C5_14 
REMARK    7  A    between atoms: C5_14  and  C6_15 
REMARK    8  A    between atoms: C9_18  and  C10_19 
REMARK    9  A    between atoms: C10_19  and  C11_20 
REMARK   10  A    between atoms: N4_21  and  N5_23 
ROOT
HETATM    1  C6  UNL     1      -2.834 -36.872  77.912  1.00  0.00     0.001 A 
HETATM    2  C7  UNL     1      -2.759 -36.150  79.074  1.00  0.00     0.017 A 
HETATM    3  C8  UNL     1      -3.446 -35.006  79.135  1.00  0.00     0.016 A 
HETATM    4  C9  UNL     1      -4.173 -34.642  78.034  1.00  0.00    -0.012 A 
HETATM    5  S1  UNL     1      -3.867 -35.923  76.945  1.00  0.00    -0.097 SA
ENDROOT
BRANCH   1   6
HETATM    6  C5  UNL     1      -2.182 -38.168  77.576  1.00  0.00     0.167 C 
BRANCH   6   7
HETATM    7  N3  UNL     1      -0.794 -38.082  77.949  1.00  0.00    -0.375 N 
ATOM      8  H3  UNL     1      -0.454 -38.517  78.807  1.00  0.00     0.161 HD
BRANCH   7   9
HETATM    9  C1  UNL     1       0.096 -37.369  77.082  1.00  0.00     0.070 C 
HETATM   10  N1  UNL     1       0.220 -37.719  75.864  1.00  0.00    -0.389 N 
ATOM     11  H12 UNL     1       0.854 -37.212  75.246  1.00  0.00     0.157 HD
ATOM     12  H11 UNL     1      -0.313 -38.491  75.465  1.00  0.00     0.157 HD
BRANCH   9  13
HETATM   13  C2  UNL     1       0.862 -36.259  77.655  1.00  0.00     0.077 C 
BRANCH  13  14
HETATM   14  C3  UNL     1       0.856 -35.045  76.811  1.00  0.00     0.034 C 
BRANCH  14  15
HETATM   15  C4  UNL     1      -0.390 -34.231  76.814  1.00  0.00     0.230 C 
BRANCH  15  16
HETATM   16  N2  UNL     1      -0.968 -34.132  75.476  1.00  0.00    -0.079 N 
ATOM     17  H23 UNL     1      -0.368 -33.596  74.850  1.00  0.00     0.274 HD
ATOM     18  H22 UNL     1      -0.941 -35.028  74.991  1.00  0.00     0.274 HD
ATOM     19  H21 UNL     1      -1.913 -33.751  75.505  1.00  0.00     0.274 HD
ENDBRANCH  15  16
ENDBRANCH  14  15
ENDBRANCH  13  14
ENDBRANCH   9  13
ENDBRANCH   7   9
ENDBRANCH   6   7
ENDBRANCH   1   6
BRANCH   4  20
HETATM   20  C10 UNL     1      -5.027 -33.412  77.851  1.00  0.00     0.092 C 
BRANCH  20  21
HETATM   21  C11 UNL     1      -5.589 -33.110  79.201  1.00  0.00     0.085 C 
HETATM   22  N4  UNL     1      -6.776 -32.653  79.350  1.00  0.00    -0.310 N 
ATOM     23  H4  UNL     1      -7.373 -32.484  78.541  1.00  0.00     0.186 HD
BRANCH  22  24
HETATM   24  N5  UNL     1      -7.236 -32.392  80.642  1.00  0.00    -0.279 N 
HETATM   25  C12 UNL     1      -7.907 -31.259  80.911  1.00  0.00     0.115 A 
HETATM   26  C13 UNL     1      -8.395 -30.919  82.146  1.00  0.00     0.019 A 
HETATM   27  C14 UNL     1      -8.176 -31.812  83.177  1.00  0.00     0.003 A 
HETATM   28  C15 UNL     1      -7.484 -32.984  82.899  1.00  0.00     0.019 A 
HETATM   29  C16 UNL     1      -7.008 -33.289  81.643  1.00  0.00     0.115 A 
ENDBRANCH  22  24
ENDBRANCH  20  21
ENDBRANCH   4  20
TORSDOF 10
ENDMDL
MODEL 2
REMARK VINA RESULT: -7.294985410      1.344      2.223
REMARK  10 active torsions:
REMARK  status: ('A' for Active; 'I' for Inactive)
REMARK    1  A    between atoms: C1_4  and  C2_5 
REMARK    2  A    between atoms: C1_4  and  N3_12 
REMARK    3  A    between atoms: C2_5  and  C3_6 
REMARK    4  A    between atoms: C3_6  and  C4_7 
REMARK    5  A    between atoms: C4_7  and  N2_8 
REMARK    6  A    between atoms: N3_12  and  C5_14 
REMARK    7  A    between atoms: C5_14  and  C6_15 
REMARK    8  A    between atoms: C9_18  and  C10_19 
REMARK    9  A    between atoms: C10_19  and  C11_20 
REMARK   10  A    between atoms: N4_21  and  N5_23 
ROOT
HETATM    1  C6  UNL     1      -1.297 -34.848  78.090  1.00  0.00     0.001 A 
HETATM    2  C7  UNL     1      -2.007 -34.980  79.254  1.00  0.00     0.017 A 
HETATM    3  C8  UNL     1      -3.263 -34.527  79.266  1.00  0.00     0.016 A 
HETATM    4  C9  UNL     1      -3.747 -33.967  78.114  1.00  0.00    -0.012 A 
HETATM    5  S1  UNL     1      -2.417 -34.095  77.050  1.00  0.00    -0.097 SA
ENDROOT
BRANCH   1   6
HETATM    6  C5  UNL     1       0.103 -35.265  77.800  1.00  0.00     0.167 C 
BRANCH   6   7
HETATM    7  N3  UNL     1       0.220 -36.671  78.080  1.00  0.00    -0.375 N 
ATOM      8  H3  UNL     1       0.657 -37.000  78.941  1.00  0.00     0.161 HD
BRANCH   7   9
HETATM    9  C1  UNL     1      -0.295 -37.598  77.116  1.00  0.00     0.070 C 
HETATM   10  N1  UNL     1       0.199 -37.643  75.944  1.00  0.00    -0.389 N 
ATOM     11  H12 UNL     1      -0.167 -38.304  75.257  1.00  0.00     0.157 HD
ATOM     12  H11 UNL     1       0.976 -37.047  75.660  1.00  0.00     0.157 HD
BRANCH   9  13
HETATM   13  C2  UNL     1      -1.412 -38.455  77.524  1.00  0.00     0.077 C 
BRANCH  13  14
HETATM   14  C3  UNL     1      -2.498 -38.519  76.523  1.00  0.00     0.034 C 
BRANCH  14  15
HETATM   15  C4  UNL     1      -3.692 -37.666  76.773  1.00  0.00     0.230 C 
BRANCH  15  16
HETATM   16  N2  UNL     1      -4.303 -37.222  75.523  1.00  0.00    -0.079 N 
ATOM     17  H23 UNL     1      -4.927 -36.430  75.673  1.00  0.00     0.274 HD
ATOM     18  H22 UNL     1      -3.621 -36.771  74.913  1.00  0.00     0.274 HD
ATOM     19  H21 UNL     1      -4.780 -37.988  75.047  1.00  0.00     0.274 HD
ENDBRANCH  15  16
ENDBRANCH  14  15
ENDBRANCH  13  14
ENDBRANCH   9  13
ENDBRANCH   7   9
ENDBRANCH   6   7
ENDBRANCH   1   6
BRANCH   4  20
HETATM   20  C10 UNL     1      -5.119 -33.388  77.870  1.00  0.00     0.092 C 
BRANCH  20  21
HETATM   21  C11 UNL     1      -5.657 -33.048  79.220  1.00  0.00     0.085 C 
HETATM   22  N4  UNL     1      -6.860 -32.641  79.383  1.00  0.00    -0.310 N 
ATOM     23  H4  UNL     1      -7.487 -32.539  78.585  1.00  0.00     0.186 HD
BRANCH  22  24
HETATM   24  N5  UNL     1      -7.296 -32.340  80.675  1.00  0.00    -0.279 N 
HETATM   25  C12 UNL     1      -7.966 -31.201  80.920  1.00  0.00     0.115 A 
HETATM   26  C13 UNL     1      -8.431 -30.823  82.153  1.00  0.00     0.019 A 
HETATM   27  C14 UNL     1      -8.189 -31.681  83.207  1.00  0.00     0.003 A 
HETATM   28  C15 UNL     1      -7.499 -32.860  82.954  1.00  0.00     0.019 A 
HETATM   29  C16 UNL     1      -7.045 -33.204  81.700  1.00  0.00     0.115 A 
ENDBRANCH  22  24
ENDBRANCH  20  21
ENDBRANCH   4  20
TORSDOF 10
ENDMDL
MODEL 3
REMARK VINA RESULT: -7.255671180      1.346      2.445
REMARK  10 active torsions:
REMARK  status: ('A' for Active; 'I' for Inactive)
REMARK    1  A    between atoms: C1_4  and  C2_5 
REMARK    2  A    between atoms: C1_4  and  N3_12 
REMARK    3  A    between atoms: C2_5  and  C3_6 
REMARK    4  A    between atoms: C3_6  and  C4_7 
REMARK    5  A    between atoms: C4_7  and  N2_8 
REMARK    6  A    between atoms: N3_12  and  C5_14 
REMARK    7  A    between atoms: C5_14  and  C6_15 
REMARK    8  A    between atoms: C9_18  and  C10_19 
REMARK    9  A    between atoms: C10_19  and  C11_20 
REMARK   10  A    between atoms: N4_21  and  N5_23 
ROOT
HETATM    1  C6  UNL     1      -1.261 -34.843  78.041  1.00  0.00     0.001 A 
HETATM    2  C7  UNL     1      -1.970 -34.985  79.205  1.00  0.00     0.017 A 
HETATM    3  C8  UNL     1      -3.227 -34.535  79.221  1.00  0.00     0.016 A 
HETATM    4  C9  UNL     1      -3.713 -33.967  78.074  1.00  0.00    -0.012 A 
HETATM    5  S1  UNL     1      -2.383 -34.084  77.008  1.00  0.00    -0.097 SA
ENDROOT
BRANCH   1   6
HETATM    6  C5  UNL     1       0.139 -35.254  77.748  1.00  0.00     0.167 C 
BRANCH   6   7
HETATM    7  N3  UNL     1       0.264 -36.660  78.031  1.00  0.00    -0.375 N 
ATOM      8  H3  UNL     1       0.733 -36.984  78.876  1.00  0.00     0.161 HD
BRANCH   7   9
HETATM    9  C1  UNL     1      -0.289 -37.590  77.092  1.00  0.00     0.070 C 
HETATM   10  N1  UNL     1       0.192 -37.676  75.917  1.00  0.00    -0.389 N 
ATOM     11  H12 UNL     1      -0.201 -38.339  75.248  1.00  0.00     0.157 HD
ATOM     12  H11 UNL     1       0.985 -37.112  75.613  1.00  0.00     0.157 HD
BRANCH   9  13
HETATM   13  C2  UNL     1      -1.429 -38.402  77.528  1.00  0.00     0.077 C 
BRANCH  13  14
HETATM   14  C3  UNL     1      -2.506 -38.491  76.518  1.00  0.00     0.034 C 
BRANCH  14  15
HETATM   15  C4  UNL     1      -3.726 -37.675  76.764  1.00  0.00     0.230 C 
BRANCH  15  16
HETATM   16  N2  UNL     1      -4.319 -37.209  75.513  1.00  0.00    -0.079 N 
ATOM     17  H23 UNL     1      -3.667 -37.301  74.734  1.00  0.00     0.274 HD
ATOM     18  H22 UNL     1      -5.046 -37.844  75.185  1.00  0.00     0.274 HD
ATOM     19  H21 UNL     1      -4.667 -36.254  75.597  1.00  0.00     0.274 HD
ENDBRANCH  15  16
ENDBRANCH  14  15
ENDBRANCH  13  14
ENDBRANCH   9  13
ENDBRANCH   7   9
ENDBRANCH   6   7
ENDBRANCH   1   6
BRANCH   4  20
HETATM   20  C10 UNL     1      -5.086 -33.390  77.835  1.00  0.00     0.092 C 
BRANCH  20  21
HETATM   21  C11 UNL     1      -5.631 -33.077  79.189  1.00  0.00     0.085 C 
HETATM   22  N4  UNL     1      -6.826 -32.647  79.352  1.00  0.00    -0.310 N 
ATOM     23  H4  UNL     1      -7.442 -32.508  78.550  1.00  0.00     0.186 HD
BRANCH  22  24
HETATM   24  N5  UNL     1      -7.269 -32.374  80.647  1.00  0.00    -0.279 N 
HETATM   25  C12 UNL     1      -6.995 -33.221  81.654  1.00  0.00     0.115 A 
HETATM   26  C13 UNL     1      -7.388 -33.035  82.955  1.00  0.00     0.019 A 
HETATM   27  C14 UNL     1      -8.113 -31.895  83.236  1.00  0.00     0.003 A 
HETATM   28  C15 UNL     1      -8.395 -31.018  82.196  1.00  0.00     0.019 A 
HETATM   29  C16 UNL     1      -7.983 -31.241  80.900  1.00  0.00     0.115 A 
ENDBRANCH  22  24
ENDBRANCH  20  21
ENDBRANCH   4  20
TORSDOF 10
ENDMDL
MODEL 4
REMARK VINA RESULT: -7.241244132      1.426      2.788
REMARK  10 active torsions:
REMARK  status: ('A' for Active; 'I' for Inactive)
REMARK    1  A    between atoms: C1_4  and  C2_5 
REMARK    2  A    between atoms: C1_4  and  N3_12 
REMARK    3  A    between atoms: C2_5  and  C3_6 
REMARK    4  A    between atoms: C3_6  and  C4_7 
REMARK    5  A    between atoms: C4_7  and  N2_8 
REMARK    6  A    between atoms: N3_12  and  C5_14 
REMARK    7  A    between atoms: C5_14  and  C6_15 
REMARK    8  A    between atoms: C9_18  and  C10_19 
REMARK    9  A    between atoms: C10_19  and  C11_20 
REMARK   10  A    between atoms: N4_21  and  N5_23 
ROOT
HETATM    1  C6  UNL     1      -1.409 -34.896  77.764  1.00  0.00     0.001 A 
HETATM    2  C7  UNL     1      -1.605 -34.159  76.626  1.00  0.00     0.017 A 
HETATM    3  C8  UNL     1      -2.809 -33.611  76.446  1.00  0.00     0.016 A 
HETATM    4  C9  UNL     1      -3.755 -33.826  77.411  1.00  0.00    -0.012 A 
HETATM    5  S1  UNL     1      -2.920 -34.794  78.544  1.00  0.00    -0.097 SA
ENDROOT
BRANCH   1   6
HETATM    6  C5  UNL     1      -0.179 -35.606  78.214  1.00  0.00     0.167 C 
BRANCH   6   7
HETATM    7  N3  UNL     1      -0.435 -37.022  78.167  1.00  0.00    -0.375 N 
ATOM      8  H3  UNL     1      -0.650 -37.544  79.016  1.00  0.00     0.161 HD
BRANCH   7   9
HETATM    9  C1  UNL     1      -0.380 -37.677  76.893  1.00  0.00     0.070 C 
HETATM   10  N1  UNL     1       0.464 -37.301  76.017  1.00  0.00    -0.389 N 
ATOM     11  H12 UNL     1       0.504 -37.768  75.110  1.00  0.00     0.157 HD
ATOM     12  H11 UNL     1       1.129 -36.549  76.192  1.00  0.00     0.157 HD
BRANCH   9  13
HETATM   13  C2  UNL     1      -1.336 -38.758  76.641  1.00  0.00     0.077 C 
BRANCH  13  14
HETATM   14  C3  UNL     1      -2.745 -38.308  76.647  1.00  0.00     0.034 C 
BRANCH  14  15
HETATM   15  C4  UNL     1      -3.716 -39.152  77.395  1.00  0.00     0.230 C 
BRANCH  15  16
HETATM   16  N2  UNL     1      -3.605 -40.558  77.017  1.00  0.00    -0.079 N 
ATOM     17  H23 UNL     1      -3.167 -41.109  77.755  1.00  0.00     0.274 HD
ATOM     18  H22 UNL     1      -4.517 -41.013  77.001  1.00  0.00     0.274 HD
ATOM     19  H21 UNL     1      -3.116 -40.668  76.129  1.00  0.00     0.274 HD
ENDBRANCH  15  16
ENDBRANCH  14  15
ENDBRANCH  13  14
ENDBRANCH   9  13
ENDBRANCH   7   9
ENDBRANCH   6   7
ENDBRANCH   1   6
BRANCH   4  20
HETATM   20  C10 UNL     1      -5.177 -33.321  77.445  1.00  0.00     0.092 C 
BRANCH  20  21
HETATM   21  C11 UNL     1      -5.512 -33.164  78.891  1.00  0.00     0.085 C 
HETATM   22  N4  UNL     1      -6.674 -32.790  79.277  1.00  0.00    -0.310 N 
ATOM     23  H4  UNL     1      -7.408 -32.589  78.597  1.00  0.00     0.186 HD
BRANCH  22  24
HETATM   24  N5  UNL     1      -6.918 -32.663  80.646  1.00  0.00    -0.279 N 
HETATM   25  C12 UNL     1      -7.466 -31.539  81.139  1.00  0.00     0.115 A 
HETATM   26  C13 UNL     1      -7.740 -31.326  82.465  1.00  0.00     0.019 A 
HETATM   27  C14 UNL     1      -7.428 -32.344  83.344  1.00  0.00     0.003 A 
HETATM   28  C15 UNL     1      -6.863 -33.505  82.835  1.00  0.00     0.019 A 
HETATM   29  C16 UNL     1      -6.601 -33.682  81.494  1.00  0.00     0.115 A 
ENDBRANCH  22  24
ENDBRANCH  20  21
ENDBRANCH   4  20
TORSDOF 10
ENDMDL
MODEL 5
REMARK VINA RESULT: -7.237849974      1.414      2.932
REMARK  10 active torsions:
REMARK  status: ('A' for Active; 'I' for Inactive)
REMARK    1  A    between atoms: C1_4  and  C2_5 
REMARK    2  A    between atoms: C1_4  and  N3_12 
REMARK    3  A    between atoms: C2_5  and  C3_6 
REMARK    4  A    between atoms: C3_6  and  C4_7 
REMARK    5  A    between atoms: C4_7  and  N2_8 
REMARK    6  A    between atoms: N3_12  and  C5_14 
REMARK    7  A    between atoms: C5_14  and  C6_15 
REMARK    8  A    between atoms: C9_18  and  C10_19 
REMARK    9  A    between atoms: C10_19  and  C11_20 
REMARK   10  A    between atoms: N4_21  and  N5_23 
ROOT
HETATM    1  C6  UNL     1      -1.391 -34.897  77.819  1.00  0.00     0.001 A 
HETATM    2  C7  UNL     1      -1.572 -34.146  76.687  1.00  0.00     0.017 A 
HETATM    3  C8  UNL     1      -2.781 -33.614  76.486  1.00  0.00     0.016 A 
HETATM    4  C9  UNL     1      -3.745 -33.856  77.427  1.00  0.00    -0.012 A 
HETATM    5  S1  UNL     1      -2.921 -34.828  78.565  1.00  0.00    -0.097 SA
ENDROOT
BRANCH   1   6
HETATM    6  C5  UNL     1      -0.162 -35.594  78.287  1.00  0.00     0.167 C 
BRANCH   6   7
HETATM    7  N3  UNL     1      -0.387 -37.012  78.194  1.00  0.00    -0.375 N 
ATOM      8  H3  UNL     1      -0.578 -37.569  79.028  1.00  0.00     0.161 HD
BRANCH   7   9
HETATM    9  C1  UNL     1      -0.335 -37.622  76.898  1.00  0.00     0.070 C 
HETATM   10  N1  UNL     1       0.515 -37.225  76.038  1.00  0.00    -0.389 N 
ATOM     11  H12 UNL     1       0.552 -37.659  75.115  1.00  0.00     0.157 HD
ATOM     12  H11 UNL     1       1.189 -36.488  76.241  1.00  0.00     0.157 HD
BRANCH   9  13
HETATM   13  C2  UNL     1      -1.304 -38.682  76.605  1.00  0.00     0.077 C 
BRANCH  13  14
HETATM   14  C3  UNL     1      -2.708 -38.218  76.637  1.00  0.00     0.034 C 
BRANCH  14  15
HETATM   15  C4  UNL     1      -3.685 -39.084  77.352  1.00  0.00     0.230 C 
BRANCH  15  16
HETATM   16  N2  UNL     1      -3.512 -40.490  76.997  1.00  0.00    -0.079 N 
ATOM     17  H23 UNL     1      -3.392 -40.610  75.992  1.00  0.00     0.274 HD
ATOM     18  H22 UNL     1      -2.607 -40.845  77.307  1.00  0.00     0.274 HD
ATOM     19  H21 UNL     1      -4.278 -41.062  77.352  1.00  0.00     0.274 HD
ENDBRANCH  15  16
ENDBRANCH  14  15
ENDBRANCH  13  14
ENDBRANCH   9  13
ENDBRANCH   7   9
ENDBRANCH   6   7
ENDBRANCH   1   6
BRANCH   4  20
HETATM   20  C10 UNL     1      -5.175 -33.374  77.434  1.00  0.00     0.092 C 
BRANCH  20  21
HETATM   21  C11 UNL     1      -5.514 -33.149  78.871  1.00  0.00     0.085 C 
HETATM   22  N4  UNL     1      -6.693 -32.812  79.240  1.00  0.00    -0.310 N 
ATOM     23  H4  UNL     1      -7.438 -32.688  78.553  1.00  0.00     0.186 HD
BRANCH  22  24
HETATM   24  N5  UNL     1      -6.939 -32.618  80.600  1.00  0.00    -0.279 N 
HETATM   25  C12 UNL     1      -6.688 -33.598  81.485  1.00  0.00     0.115 A 
HETATM   26  C13 UNL     1      -6.898 -33.498  82.836  1.00  0.00     0.019 A 
HETATM   27  C14 UNL     1      -7.402 -32.302  83.308  1.00  0.00     0.003 A 
HETATM   28  C15 UNL     1      -7.661 -31.289  82.394  1.00  0.00     0.019 A 
HETATM   29  C16 UNL     1      -7.437 -31.428  81.042  1.00  0.00     0.115 A 
ENDBRANCH  22  24
ENDBRANCH  20  21
ENDBRANCH   4  20
TORSDOF 10
ENDMDL
