MODEL 1
REMARK VINA RESULT: -10.223798589      0.000      0.000
REMARK  4 active torsions:
REMARK  status: ('A' for Active; 'I' for Inactive)
REMARK    1  A    between atoms: C10_21  and  C11_22 
REMARK    2  A    between atoms: C11_22  and  O6_23 
REMARK    3  A    between atoms: C16_33  and  O9_34 
REMARK    4  A    between atoms: N5_37  and  O10_39 
ROOT
HETATM    1  C1  UNL     1      12.052  -0.613   5.061  1.00  0.00     0.042 C 
HETATM    2  C2  UNL     1      10.776  -1.164   4.453  1.00  0.00     0.147 C 
HETATM    3  C3  UNL     1      10.326  -0.170   3.397  1.00  0.00     0.172 C 
HETATM    4  N1  UNL     1       9.757   1.018   3.985  1.00  0.00    -0.320 N 
ATOM      5  H1  UNL     1       9.410   1.033   4.944  1.00  0.00     0.181 HD
HETATM    6  N2  UNL     1       9.712   2.059   3.231  1.00  0.00    -0.244 N 
ATOM      7  H2  UNL     1      10.071   2.002   2.277  1.00  0.00     0.208 HD
HETATM    8  N3  UNL     1       9.179   3.274   3.697  1.00  0.00    -0.255 N 
ATOM      9  H3  UNL     1       9.719   4.136   3.616  1.00  0.00     0.191 HD
HETATM   10  C4  UNL     1       7.880   3.294   4.284  1.00  0.00     0.246 C 
HETATM   11  O1  UNL     1       7.678   4.184   5.178  1.00  0.00    -0.271 OA
HETATM   12  C5  UNL     1       6.814   2.339   3.887  1.00  0.00     0.215 C 
HETATM   13  C6  UNL     1       5.497   3.011   4.047  1.00  0.00     0.267 C 
HETATM   14  O2  UNL     1       5.481   4.263   3.820  1.00  0.00    -0.265 OA
HETATM   15  O3  UNL     1       4.371   2.301   4.421  1.00  0.00    -0.319 OA
HETATM   16  C7  UNL     1       3.980   1.083   3.804  1.00  0.00     0.205 C 
HETATM   17  C8  UNL     1       3.590   0.088   4.864  1.00  0.00     0.205 C 
HETATM   18  O4  UNL     1       4.081  -1.167   4.495  1.00  0.00    -0.318 OA
HETATM   19  C9  UNL     1       3.339  -2.276   4.201  1.00  0.00     0.284 C 
HETATM   20  O5  UNL     1       3.653  -3.057   3.253  1.00  0.00    -0.263 OA
HETATM   21  C10 UNL     1       2.118  -2.636   4.974  1.00  0.00     0.207 C 
HETATM   22  N4  UNL     1       2.055  -4.042   5.283  1.00  0.00    -0.345 N 
ATOM     23  H4  UNL     1       1.169  -4.523   5.130  1.00  0.00     0.163 HD
HETATM   24  C12 UNL     1       3.138  -4.802   5.783  1.00  0.00     0.218 C 
HETATM   25  O7  UNL     1       3.226  -6.009   5.371  1.00  0.00    -0.274 OA
HETATM   26  C13 UNL     1       4.136  -4.249   6.741  1.00  0.00     0.110 C 
HETATM   27  C14 UNL     1       5.134  -5.342   7.074  1.00  0.00     0.090 C 
HETATM   28  C15 UNL     1       6.430  -4.722   7.524  1.00  0.00     0.161 C 
HETATM   29  O8  UNL     1       6.658  -3.531   7.402  1.00  0.00    -0.295 OA
HETATM   30  C16 UNL     1       7.432  -5.637   8.130  1.00  0.00     0.234 C 
HETATM   31  C17 UNL     1       8.436  -6.106   7.136  1.00  0.00     0.045 C 
HETATM   32  N5  UNL     1       8.089  -7.044   6.332  1.00  0.00    -0.274 N 
ATOM     33  H5  UNL     1       7.152  -7.442   6.386  1.00  0.00     0.193 HD
HETATM   34  C18 UNL     1       9.796  -5.543   7.041  1.00  0.00     0.058 C 
HETATM   35  C19 UNL     1       9.876  -4.659   5.824  1.00  0.00     0.015 C 
HETATM   36  C20 UNL     1      11.144  -3.835   5.798  1.00  0.00     0.111 C 
HETATM   37  C21 UNL     1      11.456  -3.537   4.391  1.00  0.00     0.259 C 
HETATM   38  O11 UNL     1      12.152  -4.342   3.750  1.00  0.00    -0.265 OA
HETATM   39  O12 UNL     1      10.986  -2.396   3.806  1.00  0.00    -0.315 OA
ENDROOT
BRANCH  30  40
HETATM   40  O9  UNL     1       6.795  -6.724   8.751  1.00  0.00    -0.382 OA
ATOM     41  H9  UNL     1       6.603  -6.522   9.659  1.00  0.00     0.211 HD
ENDBRANCH  30  40
BRANCH  32  42
HETATM   42  O10 UNL     1       8.975  -7.507   5.404  1.00  0.00    -0.290 OA
ATOM     43  H10 UNL     1       9.322  -8.388   5.478  1.00  0.00     0.244 HD
ENDBRANCH  32  42
BRANCH  21  44
HETATM   44  C11 UNL     1       0.932  -2.273   4.075  1.00  0.00     0.199 C 
BRANCH  44  45
HETATM   45  O6  UNL     1      -0.226  -2.344   4.882  1.00  0.00    -0.398 OA
ATOM     46  H6  UNL     1      -0.438  -1.454   5.137  1.00  0.00     0.209 HD
ENDBRANCH  44  45
ENDBRANCH  21  44
TORSDOF 4
ENDMDL
MODEL 2
REMARK VINA RESULT: -10.010942032      2.053      6.959
REMARK  4 active torsions:
REMARK  status: ('A' for Active; 'I' for Inactive)
REMARK    1  A    between atoms: C10_21  and  C11_22 
REMARK    2  A    between atoms: C11_22  and  O6_23 
REMARK    3  A    between atoms: C16_33  and  O9_34 
REMARK    4  A    between atoms: N5_37  and  O10_39 
ROOT
HETATM    1  C1  UNL     1       3.794  -6.241   4.784  1.00  0.00     0.042 C 
HETATM    2  C2  UNL     1       4.535  -5.109   5.472  1.00  0.00     0.147 C 
HETATM    3  C3  UNL     1       3.502  -4.047   5.808  1.00  0.00     0.172 C 
HETATM    4  N1  UNL     1       3.083  -3.315   4.637  1.00  0.00    -0.320 N 
ATOM      5  H1  UNL     1       3.644  -3.294   3.785  1.00  0.00     0.181 HD
HETATM    6  N2  UNL     1       1.963  -2.690   4.729  1.00  0.00    -0.244 N 
ATOM      7  H2  UNL     1       1.435  -2.737   5.601  1.00  0.00     0.208 HD
HETATM    8  N3  UNL     1       1.455  -1.943   3.651  1.00  0.00    -0.255 N 
ATOM      9  H3  UNL     1       0.504  -2.104   3.320  1.00  0.00     0.191 HD
HETATM   10  C4  UNL     1       2.276  -0.961   3.026  1.00  0.00     0.246 C 
HETATM   11  O1  UNL     1       2.058  -0.750   1.784  1.00  0.00    -0.271 OA
HETATM   12  C5  UNL     1       3.330  -0.217   3.764  1.00  0.00     0.215 C 
HETATM   13  C6  UNL     1       3.465   1.134   3.158  1.00  0.00     0.267 C 
HETATM   14  O2  UNL     1       2.396   1.645   2.696  1.00  0.00    -0.265 OA
HETATM   15  O3  UNL     1       4.687   1.779   3.109  1.00  0.00    -0.319 OA
HETATM   16  C7  UNL     1       5.548   1.898   4.232  1.00  0.00     0.205 C 
HETATM   17  C8  UNL     1       6.960   1.581   3.817  1.00  0.00     0.205 C 
HETATM   18  O4  UNL     1       7.560   0.829   4.830  1.00  0.00    -0.318 OA
HETATM   19  C9  UNL     1       8.633   1.200   5.591  1.00  0.00     0.284 C 
HETATM   20  O5  UNL     1       8.692   0.943   6.831  1.00  0.00    -0.263 OA
HETATM   21  C10 UNL     1       9.797   1.927   5.013  1.00  0.00     0.207 C 
HETATM   22  N4  UNL     1      11.058   1.407   5.479  1.00  0.00    -0.345 N 
ATOM     23  H4  UNL     1      11.766   2.078   5.779  1.00  0.00     0.163 HD
HETATM   24  C12 UNL     1      11.383   0.033   5.549  1.00  0.00     0.218 C 
HETATM   25  O7  UNL     1      12.109  -0.332   6.537  1.00  0.00    -0.274 OA
HETATM   26  C13 UNL     1      10.918  -0.958   4.538  1.00  0.00     0.110 C 
HETATM   27  C14 UNL     1      11.468  -2.320   4.917  1.00  0.00     0.090 C 
HETATM   28  C15 UNL     1      10.596  -3.398   4.330  1.00  0.00     0.161 C 
HETATM   29  O8  UNL     1       9.510  -3.157   3.832  1.00  0.00    -0.295 OA
HETATM   30  C16 UNL     1      11.124  -4.786   4.384  1.00  0.00     0.234 C 
HETATM   31  C17 UNL     1      10.609  -5.535   5.563  1.00  0.00     0.045 C 
HETATM   32  N5  UNL     1      11.150  -5.301   6.703  1.00  0.00    -0.274 N 
ATOM     33  H5  UNL     1      11.905  -4.621   6.779  1.00  0.00     0.193 HD
HETATM   34  C18 UNL     1       9.517  -6.523   5.473  1.00  0.00     0.058 C 
HETATM   35  C19 UNL     1       8.264  -5.920   6.052  1.00  0.00     0.015 C 
HETATM   36  C20 UNL     1       7.040  -6.758   5.758  1.00  0.00     0.111 C 
HETATM   37  C21 UNL     1       6.057  -6.504   6.824  1.00  0.00     0.259 C 
HETATM   38  O11 UNL     1       6.097  -7.203   7.851  1.00  0.00    -0.265 OA
HETATM   39  O12 UNL     1       5.123  -5.519   6.683  1.00  0.00    -0.315 OA
ENDROOT
BRANCH  30  40
HETATM   40  O9  UNL     1      12.528  -4.780   4.366  1.00  0.00    -0.382 OA
ATOM     41  H9  UNL     1      12.859  -5.566   3.948  1.00  0.00     0.211 HD
ENDBRANCH  30  40
BRANCH  32  42
HETATM   42  O10 UNL     1      10.713  -5.964   7.812  1.00  0.00    -0.290 OA
ATOM     43  H10 UNL     1       9.979  -5.622   8.310  1.00  0.00     0.244 HD
ENDBRANCH  32  42
BRANCH  21  44
HETATM   44  C11 UNL     1       9.656   3.379   5.478  1.00  0.00     0.199 C 
BRANCH  44  45
HETATM   45  O6  UNL     1       8.361   3.504   6.031  1.00  0.00    -0.398 OA
ATOM     46  H6  UNL     1       8.473   3.822   6.919  1.00  0.00     0.209 HD
ENDBRANCH  44  45
ENDBRANCH  21  44
TORSDOF 4
ENDMDL
MODEL 3
REMARK VINA RESULT: -9.691310818      2.374      6.897
REMARK  4 active torsions:
REMARK  status: ('A' for Active; 'I' for Inactive)
REMARK    1  A    between atoms: C10_21  and  C11_22 
REMARK    2  A    between atoms: C11_22  and  O6_23 
REMARK    3  A    between atoms: C16_33  and  O9_34 
REMARK    4  A    between atoms: N5_37  and  O10_39 
ROOT
HETATM    1  C1  UNL     1       3.728   2.279   5.397  1.00  0.00     0.042 C 
HETATM    2  C2  UNL     1       4.759   1.385   6.062  1.00  0.00     0.147 C 
HETATM    3  C3  UNL     1       5.982   2.245   6.327  1.00  0.00     0.172 C 
HETATM    4  N1  UNL     1       6.720   2.516   5.117  1.00  0.00    -0.320 N 
ATOM      5  H1  UNL     1       6.617   1.941   4.282  1.00  0.00     0.181 HD
HETATM    6  N2  UNL     1       7.516   3.526   5.153  1.00  0.00    -0.244 N 
ATOM      7  H2  UNL     1       7.590   4.075   6.010  1.00  0.00     0.208 HD
HETATM    8  N3  UNL     1       8.288   3.886   4.033  1.00  0.00    -0.255 N 
ATOM      9  H3  UNL     1       8.264   4.842   3.680  1.00  0.00     0.191 HD
HETATM   10  C4  UNL     1       9.102   2.906   3.395  1.00  0.00     0.246 C 
HETATM   11  O1  UNL     1       9.291   3.059   2.140  1.00  0.00    -0.271 OA
HETATM   12  C5  UNL     1       9.702   1.766   4.134  1.00  0.00     0.215 C 
HETATM   13  C6  UNL     1      10.988   1.406   3.481  1.00  0.00     0.267 C 
HETATM   14  O2  UNL     1      11.640   2.370   2.969  1.00  0.00    -0.265 OA
HETATM   15  O3  UNL     1      11.431   0.096   3.444  1.00  0.00    -0.319 OA
HETATM   16  C7  UNL     1      11.462  -0.746   4.586  1.00  0.00     0.205 C 
HETATM   17  C8  UNL     1      10.911  -2.100   4.225  1.00  0.00     0.205 C 
HETATM   18  O4  UNL     1      10.118  -2.551   5.283  1.00  0.00    -0.318 OA
HETATM   19  C9  UNL     1      10.348  -3.652   6.060  1.00  0.00     0.284 C 
HETATM   20  O5  UNL     1      10.138  -3.641   7.310  1.00  0.00    -0.263 OA
HETATM   21  C10 UNL     1      10.859  -4.929   5.489  1.00  0.00     0.207 C 
HETATM   22  N4  UNL     1      10.169  -6.081   6.011  1.00  0.00    -0.345 N 
ATOM     23  H4  UNL     1      10.732  -6.879   6.306  1.00  0.00     0.163 HD
HETATM   24  C12 UNL     1       8.765  -6.184   6.143  1.00  0.00     0.218 C 
HETATM   25  O7  UNL     1       8.333  -6.820   7.165  1.00  0.00    -0.274 OA
HETATM   26  C13 UNL     1       7.817  -5.591   5.158  1.00  0.00     0.110 C 
HETATM   27  C14 UNL     1       6.403  -5.912   5.604  1.00  0.00     0.090 C 
HETATM   28  C15 UNL     1       5.450  -4.895   5.033  1.00  0.00     0.161 C 
HETATM   29  O8  UNL     1       5.838  -3.872   4.495  1.00  0.00    -0.295 OA
HETATM   30  C16 UNL     1       4.001  -5.196   5.155  1.00  0.00     0.234 C 
HETATM   31  C17 UNL     1       3.392  -4.543   6.347  1.00  0.00     0.045 C 
HETATM   32  N5  UNL     1       3.586  -5.087   7.493  1.00  0.00    -0.274 N 
ATOM     33  H5  UNL     1       4.142  -5.939   7.565  1.00  0.00     0.193 HD
HETATM   34  C18 UNL     1       2.584  -3.311   6.263  1.00  0.00     0.058 C 
HETATM   35  C19 UNL     1       3.399  -2.156   6.781  1.00  0.00     0.015 C 
HETATM   36  C20 UNL     1       2.751  -0.822   6.484  1.00  0.00     0.111 C 
HETATM   37  C21 UNL     1       3.201   0.132   7.511  1.00  0.00     0.259 C 
HETATM   38  O11 UNL     1       2.548   0.227   8.564  1.00  0.00    -0.265 OA
HETATM   39  O12 UNL     1       4.313   0.896   7.304  1.00  0.00    -0.315 OA
ENDROOT
BRANCH  30  40
HETATM   40  O9  UNL     1       3.786  -6.584   5.179  1.00  0.00    -0.382 OA
ATOM     41  H9  UNL     1       3.223  -6.821   5.906  1.00  0.00     0.211 HD
ENDBRANCH  30  40
BRANCH  32  42
HETATM   42  O10 UNL     1       3.048  -4.526   8.613  1.00  0.00    -0.290 OA
ATOM     43  H10 UNL     1       2.125  -4.642   8.804  1.00  0.00     0.244 HD
ENDBRANCH  32  42
BRANCH  21  44
HETATM   44  C11 UNL     1      12.333  -5.007   5.894  1.00  0.00     0.199 C 
BRANCH  44  45
HETATM   45  O6  UNL     1      12.781  -3.677   6.059  1.00  0.00    -0.398 OA
ATOM     46  H6  UNL     1      12.694  -3.471   6.982  1.00  0.00     0.209 HD
ENDBRANCH  44  45
ENDBRANCH  21  44
TORSDOF 4
ENDMDL
MODEL 4
REMARK VINA RESULT: -9.633361143      2.988      9.415
REMARK  4 active torsions:
REMARK  status: ('A' for Active; 'I' for Inactive)
REMARK    1  A    between atoms: C10_21  and  C11_22 
REMARK    2  A    between atoms: C11_22  and  O6_23 
REMARK    3  A    between atoms: C16_33  and  O9_34 
REMARK    4  A    between atoms: N5_37  and  O10_39 
ROOT
HETATM    1  C1  UNL     1       2.985  -1.768   6.833  1.00  0.00     0.042 C 
HETATM    2  C2  UNL     1       3.945  -2.819   6.306  1.00  0.00     0.147 C 
HETATM    3  C3  UNL     1       3.536  -4.142   6.932  1.00  0.00     0.172 C 
HETATM    4  N1  UNL     1       3.916  -4.218   8.322  1.00  0.00    -0.320 N 
ATOM      5  H1  UNL     1       4.638  -3.616   8.718  1.00  0.00     0.181 HD
HETATM    6  N2  UNL     1       3.292  -5.089   9.033  1.00  0.00    -0.244 N 
ATOM      7  H2  UNL     1       2.577  -5.672   8.597  1.00  0.00     0.208 HD
HETATM    8  N3  UNL     1       3.579  -5.254  10.400  1.00  0.00    -0.255 N 
ATOM      9  H3  UNL     1       2.826  -5.225  11.089  1.00  0.00     0.191 HD
HETATM   10  C4  UNL     1       4.925  -5.460  10.818  1.00  0.00     0.246 C 
HETATM   11  O1  UNL     1       5.228  -5.027  11.981  1.00  0.00    -0.271 OA
HETATM   12  C5  UNL     1       5.930  -6.138   9.959  1.00  0.00     0.215 C 
HETATM   13  C6  UNL     1       6.898  -6.847  10.836  1.00  0.00     0.267 C 
HETATM   14  O2  UNL     1       6.426  -7.316  11.920  1.00  0.00    -0.265 OA
HETATM   15  O3  UNL     1       8.227  -6.978  10.478  1.00  0.00    -0.319 OA
HETATM   16  C7  UNL     1       8.647  -7.422   9.197  1.00  0.00     0.205 C 
HETATM   17  C8  UNL     1       9.759  -6.539   8.699  1.00  0.00     0.205 C 
HETATM   18  O4  UNL     1       9.565  -6.309   7.335  1.00  0.00    -0.318 OA
HETATM   19  C9  UNL     1      10.392  -6.698   6.319  1.00  0.00     0.284 C 
HETATM   20  O5  UNL     1       9.937  -7.140   5.221  1.00  0.00    -0.263 OA
HETATM   21  C10 UNL     1      11.875  -6.627   6.437  1.00  0.00     0.207 C 
HETATM   22  N4  UNL     1      12.498  -6.097   5.250  1.00  0.00    -0.345 N 
ATOM     23  H4  UNL     1      13.317  -6.584   4.886  1.00  0.00     0.163 HD
HETATM   24  C12 UNL     1      12.052  -4.950   4.554  1.00  0.00     0.218 C 
HETATM   25  O7  UNL     1      12.161  -4.977   3.280  1.00  0.00    -0.274 OA
HETATM   26  C13 UNL     1      11.484  -3.759   5.245  1.00  0.00     0.110 C 
HETATM   27  C14 UNL     1      11.134  -2.720   4.195  1.00  0.00     0.090 C 
HETATM   28  C15 UNL     1      10.064  -1.804   4.728  1.00  0.00     0.161 C 
HETATM   29  O8  UNL     1       9.454  -2.045   5.755  1.00  0.00    -0.295 OA
HETATM   30  C16 UNL     1       9.782  -0.578   3.937  1.00  0.00     0.234 C 
HETATM   31  C17 UNL     1       8.634  -0.763   3.008  1.00  0.00     0.045 C 
HETATM   32  N5  UNL     1       8.845  -1.401   1.915  1.00  0.00    -0.274 N 
ATOM     33  H5  UNL     1       9.776  -1.762   1.707  1.00  0.00     0.193 HD
HETATM   34  C18 UNL     1       7.280  -0.249   3.290  1.00  0.00     0.058 C 
HETATM   35  C19 UNL     1       6.390  -1.401   3.677  1.00  0.00     0.015 C 
HETATM   36  C20 UNL     1       5.066  -0.935   4.240  1.00  0.00     0.111 C 
HETATM   37  C21 UNL     1       4.074  -1.992   3.984  1.00  0.00     0.259 C 
HETATM   38  O11 UNL     1       3.447  -1.975   2.911  1.00  0.00    -0.265 OA
HETATM   39  O12 UNL     1       3.852  -2.970   4.910  1.00  0.00    -0.315 OA
ENDROOT
BRANCH  30  40
HETATM   40  O9  UNL     1      10.930  -0.165   3.241  1.00  0.00    -0.382 OA
ATOM     41  H9  UNL     1      10.917   0.775   3.106  1.00  0.00     0.211 HD
ENDBRANCH  30  40
BRANCH  32  42
HETATM   42  O10 UNL     1       7.825  -1.596   1.031  1.00  0.00    -0.290 OA
ATOM     43  H10 UNL     1       7.281  -2.372   1.099  1.00  0.00     0.244 HD
ENDBRANCH  32  42
BRANCH  21  44
HETATM   44  C11 UNL     1      12.347  -8.069   6.644  1.00  0.00     0.199 C 
BRANCH  44  45
HETATM   45  O6  UNL     1      12.524  -8.628   5.357  1.00  0.00    -0.398 OA
ATOM     46  H6  UNL     1      12.819  -7.924   4.791  1.00  0.00     0.209 HD
ENDBRANCH  44  45
ENDBRANCH  21  44
TORSDOF 4
ENDMDL
MODEL 5
REMARK VINA RESULT: -9.537352487      1.043      1.061
REMARK  4 active torsions:
REMARK  status: ('A' for Active; 'I' for Inactive)
REMARK    1  A    between atoms: C10_21  and  C11_22 
REMARK    2  A    between atoms: C11_22  and  O6_23 
REMARK    3  A    between atoms: C16_33  and  O9_34 
REMARK    4  A    between atoms: N5_37  and  O10_39 
ROOT
HETATM    1  C1  UNL     1      12.465  -0.540   5.922  1.00  0.00     0.042 C 
HETATM    2  C2  UNL     1      11.259  -1.210   5.289  1.00  0.00     0.147 C 
HETATM    3  C3  UNL     1      10.867  -0.367   4.088  1.00  0.00     0.172 C 
HETATM    4  N1  UNL     1      10.217   0.860   4.481  1.00  0.00    -0.320 N 
ATOM      5  H1  UNL     1       9.793   0.975   5.402  1.00  0.00     0.181 HD
HETATM    6  N2  UNL     1      10.203   1.801   3.604  1.00  0.00    -0.244 N 
ATOM      7  H2  UNL     1      10.639   1.644   2.695  1.00  0.00     0.208 HD
HETATM    8  N3  UNL     1       9.597   3.041   3.876  1.00  0.00    -0.255 N 
ATOM      9  H3  UNL     1      10.116   3.907   3.732  1.00  0.00     0.191 HD
HETATM   10  C4  UNL     1       8.255   3.080   4.354  1.00  0.00     0.246 C 
HETATM   11  O1  UNL     1       7.955   4.061   5.115  1.00  0.00    -0.271 OA
HETATM   12  C5  UNL     1       7.253   2.043   3.996  1.00  0.00     0.215 C 
HETATM   13  C6  UNL     1       5.908   2.677   3.971  1.00  0.00     0.267 C 
HETATM   14  O2  UNL     1       5.873   3.890   3.593  1.00  0.00    -0.265 OA
HETATM   15  O3  UNL     1       4.777   1.972   4.341  1.00  0.00    -0.319 OA
HETATM   16  C7  UNL     1       4.474   0.675   3.850  1.00  0.00     0.205 C 
HETATM   17  C8  UNL     1       4.030  -0.201   4.990  1.00  0.00     0.205 C 
HETATM   18  O4  UNL     1       4.586  -1.471   4.816  1.00  0.00    -0.318 OA
HETATM   19  C9  UNL     1       3.904  -2.635   4.603  1.00  0.00     0.284 C 
HETATM   20  O5  UNL     1       4.317  -3.511   3.785  1.00  0.00    -0.263 OA
HETATM   21  C10 UNL     1       2.635  -2.949   5.318  1.00  0.00     0.207 C 
HETATM   22  N4  UNL     1       2.590  -4.309   5.791  1.00  0.00    -0.345 N 
ATOM     23  H4  UNL     1       1.734  -4.840   5.630  1.00  0.00     0.163 HD
HETATM   24  C12 UNL     1       3.650  -4.961   6.462  1.00  0.00     0.218 C 
HETATM   25  O7  UNL     1       3.808  -6.204   6.209  1.00  0.00    -0.274 OA
HETATM   26  C13 UNL     1       4.550  -4.258   7.419  1.00  0.00     0.110 C 
HETATM   27  C14 UNL     1       5.550  -5.264   7.959  1.00  0.00     0.090 C 
HETATM   28  C15 UNL     1       6.787  -4.544   8.428  1.00  0.00     0.161 C 
HETATM   29  O8  UNL     1       6.988  -3.368   8.180  1.00  0.00    -0.295 OA
HETATM   30  C16 UNL     1       7.763  -5.339   9.217  1.00  0.00     0.234 C 
HETATM   31  C17 UNL     1       8.858  -5.883   8.368  1.00  0.00     0.045 C 
HETATM   32  N5  UNL     1       8.605  -6.924   7.659  1.00  0.00    -0.274 N 
ATOM     33  H5  UNL     1       7.679  -7.349   7.690  1.00  0.00     0.193 HD
HETATM   34  C18 UNL     1      10.204  -5.282   8.309  1.00  0.00     0.058 C 
HETATM   35  C19 UNL     1      10.356  -4.548   7.003  1.00  0.00     0.015 C 
HETATM   36  C20 UNL     1      11.596  -3.684   6.975  1.00  0.00     0.111 C 
HETATM   37  C21 UNL     1      12.012  -3.544   5.570  1.00  0.00     0.259 C 
HETATM   38  O11 UNL     1      12.782  -4.392   5.088  1.00  0.00    -0.265 OA
HETATM   39  O12 UNL     1      11.558  -2.501   4.816  1.00  0.00    -0.315 OA
ENDROOT
BRANCH  30  40
HETATM   40  O9  UNL     1       7.110  -6.368   9.915  1.00  0.00    -0.382 OA
ATOM     41  H9  UNL     1       7.714  -7.075  10.108  1.00  0.00     0.211 HD
ENDBRANCH  30  40
BRANCH  32  42
HETATM   42  O10 UNL     1       9.577  -7.459   6.866  1.00  0.00    -0.290 OA
ATOM     43  H10 UNL     1       9.946  -6.946   6.157  1.00  0.00     0.244 HD
ENDBRANCH  32  42
BRANCH  21  44
HETATM   44  C11 UNL     1       1.516  -2.742   4.293  1.00  0.00     0.199 C 
BRANCH  44  45
HETATM   45  O6  UNL     1       2.094  -2.074   3.189  1.00  0.00    -0.398 OA
ATOM     46  H6  UNL     1       2.583  -1.339   3.539  1.00  0.00     0.209 HD
ENDBRANCH  44  45
ENDBRANCH  21  44
TORSDOF 4
ENDMDL
