MODEL 1
REMARK VINA RESULT: -7.293202507      0.000      0.000
REMARK  5 active torsions:
REMARK  status: ('A' for Active; 'I' for Inactive)
REMARK    1  A    between atoms: C2_2  and  C3_3 
REMARK    2  A    between atoms: C4_4  and  C5_5 
REMARK    3  A    between atoms: C5_5  and  N1_6 
REMARK    4  A    between atoms: N1_6  and  S1_8 
REMARK    5  A    between atoms: S1_8  and  N2_11 
ROOT
HETATM    1  N2  UNL     1     -10.644  22.070  60.077  1.00  0.00    -0.193 NA
HETATM    2  C6  UNL     1     -11.432  23.200  59.698  1.00  0.00     0.112 C 
HETATM    3  C7  UNL     1     -11.248  23.586  58.247  1.00  0.00     0.056 C 
HETATM    4  C8  UNL     1     -11.584  22.416  57.377  1.00  0.00     0.084 C 
HETATM    5  C9  UNL     1     -10.753  21.217  57.823  1.00  0.00     0.056 C 
HETATM    6  C10 UNL     1     -10.968  20.925  59.278  1.00  0.00     0.112 C 
HETATM    7  C11 UNL     1     -11.181  22.715  55.947  1.00  0.00     0.205 C 
HETATM    8  O3  UNL     1     -11.974  23.792  55.522  1.00  0.00    -0.386 OA
HETATM    9  C12 UNL     1     -13.276  23.289  55.416  1.00  0.00     0.193 C 
HETATM   10  C13 UNL     1     -13.775  22.839  56.749  1.00  0.00     0.195 C 
HETATM   11  O4  UNL     1     -12.906  22.042  57.452  1.00  0.00    -0.376 OA
ENDROOT
BRANCH   1  12
HETATM   12  S1  UNL     1     -10.899  21.744  61.747  1.00  0.00     0.299 S 
HETATM   13  O1  UNL     1     -12.361  21.683  62.094  1.00  0.00    -0.188 OA
HETATM   14  O2  UNL     1     -10.309  22.881  62.550  1.00  0.00    -0.188 OA
BRANCH  12  15
HETATM   15  N1  UNL     1     -10.092  20.298  62.240  1.00  0.00    -0.296 N 
ATOM     16  H1  UNL     1      -9.869  19.498  61.648  1.00  0.00     0.174 HD
BRANCH  15  17
HETATM   17  C5  UNL     1      -9.790  20.433  63.641  1.00  0.00     0.226 C 
BRANCH  17  18
HETATM   18  C4  UNL     1     -10.922  19.849  64.395  1.00  0.00    -0.086 C 
HETATM   19  C3  UNL     1     -11.856  19.385  65.007  1.00  0.00    -0.105 C 
BRANCH  19  20
HETATM   20  C2  UNL     1     -13.008  18.825  65.733  1.00  0.00     0.089 C 
HETATM   21  C1  UNL     1     -14.298  19.088  65.023  1.00  0.00     0.018 C 
ENDBRANCH  19  20
ENDBRANCH  17  18
ENDBRANCH  15  17
ENDBRANCH  12  15
ENDBRANCH   1  12
TORSDOF 5
ENDMDL
MODEL 2
REMARK VINA RESULT: -7.262693371      1.002      1.201
REMARK  5 active torsions:
REMARK  status: ('A' for Active; 'I' for Inactive)
REMARK    1  A    between atoms: C2_2  and  C3_3 
REMARK    2  A    between atoms: C4_4  and  C5_5 
REMARK    3  A    between atoms: C5_5  and  N1_6 
REMARK    4  A    between atoms: N1_6  and  S1_8 
REMARK    5  A    between atoms: S1_8  and  N2_11 
ROOT
HETATM    1  N2  UNL     1     -10.539  21.508  59.920  1.00  0.00    -0.193 NA
HETATM    2  C6  UNL     1     -11.378  22.664  59.858  1.00  0.00     0.112 C 
HETATM    3  C7  UNL     1     -11.226  23.433  58.565  1.00  0.00     0.056 C 
HETATM    4  C8  UNL     1     -11.522  22.526  57.412  1.00  0.00     0.084 C 
HETATM    5  C9  UNL     1     -10.636  21.288  57.520  1.00  0.00     0.056 C 
HETATM    6  C10 UNL     1     -10.824  20.608  58.843  1.00  0.00     0.112 C 
HETATM    7  C11 UNL     1     -11.147  23.215  56.116  1.00  0.00     0.205 C 
HETATM    8  O3  UNL     1     -11.989  24.331  55.995  1.00  0.00    -0.386 OA
HETATM    9  C12 UNL     1     -13.270  23.819  55.757  1.00  0.00     0.193 C 
HETATM   10  C13 UNL     1     -13.736  23.007  56.919  1.00  0.00     0.195 C 
HETATM   11  O4  UNL     1     -12.826  22.088  57.382  1.00  0.00    -0.376 OA
ENDROOT
BRANCH   1  12
HETATM   12  S1  UNL     1     -10.761  20.735  61.441  1.00  0.00     0.299 S 
HETATM   13  O1  UNL     1     -10.051  19.411  61.511  1.00  0.00    -0.188 OA
HETATM   14  O2  UNL     1     -12.235  20.447  61.618  1.00  0.00    -0.188 OA
BRANCH  12  15
HETATM   15  N1  UNL     1     -10.280  21.757  62.747  1.00  0.00    -0.296 N 
ATOM     16  H1  UNL     1     -10.453  22.760  62.826  1.00  0.00     0.174 HD
BRANCH  15  17
HETATM   17  C5  UNL     1      -9.592  20.932  63.705  1.00  0.00     0.226 C 
BRANCH  17  18
HETATM   18  C4  UNL     1     -10.620  20.251  64.522  1.00  0.00    -0.086 C 
HETATM   19  C3  UNL     1     -11.472  19.701  65.181  1.00  0.00    -0.105 C 
BRANCH  19  20
HETATM   20  C2  UNL     1     -12.520  19.024  65.962  1.00  0.00     0.089 C 
HETATM   21  C1  UNL     1     -13.861  19.125  65.305  1.00  0.00     0.018 C 
ENDBRANCH  19  20
ENDBRANCH  17  18
ENDBRANCH  15  17
ENDBRANCH  12  15
ENDBRANCH   1  12
TORSDOF 5
ENDMDL
MODEL 3
REMARK VINA RESULT: -6.989389042      2.387      3.067
REMARK  5 active torsions:
REMARK  status: ('A' for Active; 'I' for Inactive)
REMARK    1  A    between atoms: C2_2  and  C3_3 
REMARK    2  A    between atoms: C4_4  and  C5_5 
REMARK    3  A    between atoms: C5_5  and  N1_6 
REMARK    4  A    between atoms: N1_6  and  S1_8 
REMARK    5  A    between atoms: S1_8  and  N2_11 
ROOT
HETATM    1  N2  UNL     1     -11.988  22.185  57.825  1.00  0.00    -0.193 NA
HETATM    2  C6  UNL     1     -12.606  23.243  58.559  1.00  0.00     0.112 C 
HETATM    3  C7  UNL     1     -13.168  24.329  57.668  1.00  0.00     0.056 C 
HETATM    4  C8  UNL     1     -14.152  23.727  56.715  1.00  0.00     0.084 C 
HETATM    5  C9  UNL     1     -13.476  22.580  55.968  1.00  0.00     0.056 C 
HETATM    6  C10 UNL     1     -12.919  21.570  56.926  1.00  0.00     0.112 C 
HETATM    7  C11 UNL     1     -14.541  24.754  55.671  1.00  0.00     0.205 C 
HETATM    8  O3  UNL     1     -15.200  25.789  56.352  1.00  0.00    -0.386 OA
HETATM    9  C12 UNL     1     -16.419  25.251  56.779  1.00  0.00     0.193 C 
HETATM   10  C13 UNL     1     -16.192  24.132  57.739  1.00  0.00     0.195 C 
HETATM   11  O4  UNL     1     -15.263  23.204  57.335  1.00  0.00    -0.376 OA
ENDROOT
BRANCH   1  12
HETATM   12  S1  UNL     1     -11.352  21.032  58.932  1.00  0.00     0.299 S 
HETATM   13  O1  UNL     1     -10.001  20.526  58.507  1.00  0.00    -0.188 OA
HETATM   14  O2  UNL     1     -12.276  19.834  58.956  1.00  0.00    -0.188 OA
BRANCH  12  15
HETATM   15  N1  UNL     1     -11.292  21.663  60.538  1.00  0.00    -0.296 N 
ATOM     16  H1  UNL     1     -11.474  22.627  60.816  1.00  0.00     0.174 HD
BRANCH  15  17
HETATM   17  C5  UNL     1     -10.939  20.575  61.413  1.00  0.00     0.226 C 
BRANCH  17  18
HETATM   18  C4  UNL     1     -11.903  20.579  62.536  1.00  0.00    -0.086 C 
HETATM   19  C3  UNL     1     -12.683  20.570  63.460  1.00  0.00    -0.105 C 
BRANCH  19  20
HETATM   20  C2  UNL     1     -13.613  20.561  64.601  1.00  0.00     0.089 C 
HETATM   21  C1  UNL     1     -14.192  19.201  64.839  1.00  0.00     0.018 C 
ENDBRANCH  19  20
ENDBRANCH  17  18
ENDBRANCH  15  17
ENDBRANCH  12  15
ENDBRANCH   1  12
TORSDOF 5
ENDMDL
MODEL 4
REMARK VINA RESULT: -6.974613424      2.363      3.776
REMARK  5 active torsions:
REMARK  status: ('A' for Active; 'I' for Inactive)
REMARK    1  A    between atoms: C2_2  and  C3_3 
REMARK    2  A    between atoms: C4_4  and  C5_5 
REMARK    3  A    between atoms: C5_5  and  N1_6 
REMARK    4  A    between atoms: N1_6  and  S1_8 
REMARK    5  A    between atoms: S1_8  and  N2_11 
ROOT
HETATM    1  N2  UNL     1     -10.613  21.244  60.752  1.00  0.00    -0.193 NA
HETATM    2  C6  UNL     1     -11.161  22.491  60.319  1.00  0.00     0.112 C 
HETATM    3  C7  UNL     1     -10.683  22.898  58.943  1.00  0.00     0.056 C 
HETATM    4  C8  UNL     1     -11.027  21.822  57.961  1.00  0.00     0.084 C 
HETATM    5  C9  UNL     1     -10.458  20.498  58.464  1.00  0.00     0.056 C 
HETATM    6  C10 UNL     1     -10.955  20.189  59.844  1.00  0.00     0.112 C 
HETATM    7  C11 UNL     1     -10.351  22.109  56.636  1.00  0.00     0.205 C 
HETATM    8  O3  UNL     1     -10.904  23.305  56.154  1.00  0.00    -0.386 OA
HETATM    9  C12 UNL     1     -12.226  23.005  55.809  1.00  0.00     0.193 C 
HETATM   10  C13 UNL     1     -13.001  22.585  57.014  1.00  0.00     0.195 C 
HETATM   11  O4  UNL     1     -12.382  21.644  57.799  1.00  0.00    -0.376 OA
ENDROOT
BRANCH   1  12
HETATM   12  S1  UNL     1     -11.188  20.899  62.336  1.00  0.00     0.299 S 
HETATM   13  O1  UNL     1     -10.385  19.818  63.006  1.00  0.00    -0.188 OA
HETATM   14  O2  UNL     1     -12.605  20.383  62.227  1.00  0.00    -0.188 OA
BRANCH  12  15
HETATM   15  N1  UNL     1     -11.236  22.321  63.315  1.00  0.00    -0.296 N 
ATOM     16  H1  UNL     1     -12.037  22.939  63.445  1.00  0.00     0.174 HD
BRANCH  15  17
HETATM   17  C5  UNL     1      -9.936  22.471  63.916  1.00  0.00     0.226 C 
BRANCH  17  18
HETATM   18  C4  UNL     1      -9.288  23.640  63.281  1.00  0.00    -0.086 C 
HETATM   19  C3  UNL     1      -8.770  24.595  62.750  1.00  0.00    -0.105 C 
BRANCH  19  20
HETATM   20  C2  UNL     1      -8.161  25.770  62.105  1.00  0.00     0.089 C 
HETATM   21  C1  UNL     1      -9.018  26.309  61.002  1.00  0.00     0.018 C 
ENDBRANCH  19  20
ENDBRANCH  17  18
ENDBRANCH  15  17
ENDBRANCH  12  15
ENDBRANCH   1  12
TORSDOF 5
ENDMDL
MODEL 5
REMARK VINA RESULT: -6.899702164      2.263      7.347
REMARK  5 active torsions:
REMARK  status: ('A' for Active; 'I' for Inactive)
REMARK    1  A    between atoms: C2_2  and  C3_3 
REMARK    2  A    between atoms: C4_4  and  C5_5 
REMARK    3  A    between atoms: C5_5  and  N1_6 
REMARK    4  A    between atoms: N1_6  and  S1_8 
REMARK    5  A    between atoms: S1_8  and  N2_11 
ROOT
HETATM    1  N2  UNL     1     -11.425  20.537  60.932  1.00  0.00    -0.193 NA
HETATM    2  C6  UNL     1     -11.798  21.845  61.371  1.00  0.00     0.112 C 
HETATM    3  C7  UNL     1     -12.127  21.900  62.846  1.00  0.00     0.056 C 
HETATM    4  C8  UNL     1     -10.952  21.414  63.634  1.00  0.00     0.084 C 
HETATM    5  C9  UNL     1     -10.557  20.031  63.125  1.00  0.00     0.056 C 
HETATM    6  C10 UNL     1     -10.282  20.060  61.651  1.00  0.00     0.112 C 
HETATM    7  C11 UNL     1     -11.351  21.243  65.086  1.00  0.00     0.205 C 
HETATM    8  O3  UNL     1     -11.675  22.521  65.567  1.00  0.00    -0.386 OA
HETATM    9  C12 UNL     1     -10.468  23.227  65.621  1.00  0.00     0.193 C 
HETATM   10  C13 UNL     1      -9.886  23.377  64.255  1.00  0.00     0.195 C 
HETATM   11  O4  UNL     1      -9.844  22.220  63.515  1.00  0.00    -0.376 OA
ENDROOT
BRANCH   1  12
HETATM   12  S1  UNL     1     -11.112  20.581  59.241  1.00  0.00     0.299 S 
HETATM   13  O1  UNL     1     -12.302  20.137  58.435  1.00  0.00    -0.188 OA
HETATM   14  O2  UNL     1      -9.995  19.608  58.938  1.00  0.00    -0.188 OA
BRANCH  12  15
HETATM   15  N1  UNL     1     -10.579  22.144  58.736  1.00  0.00    -0.296 N 
ATOM     16  H1  UNL     1     -10.676  23.014  59.260  1.00  0.00     0.174 HD
BRANCH  15  17
HETATM   17  C5  UNL     1      -9.972  21.991  57.439  1.00  0.00     0.226 C 
BRANCH  17  18
HETATM   18  C4  UNL     1     -10.842  22.679  56.460  1.00  0.00    -0.086 C 
HETATM   19  C3  UNL     1     -11.565  23.230  55.662  1.00  0.00    -0.105 C 
BRANCH  19  20
HETATM   20  C2  UNL     1     -12.463  23.900  54.707  1.00  0.00     0.089 C 
HETATM   21  C1  UNL     1     -13.775  23.191  54.581  1.00  0.00     0.018 C 
ENDBRANCH  19  20
ENDBRANCH  17  18
ENDBRANCH  15  17
ENDBRANCH  12  15
ENDBRANCH   1  12
TORSDOF 5
ENDMDL
