MODEL 1
REMARK VINA RESULT: -7.107142560      0.000      0.000
REMARK  3 active torsions:
REMARK  status: ('A' for Active; 'I' for Inactive)
REMARK    1  A    between atoms: C9_10  and  N1_11 
REMARK    2  A    between atoms: N1_11  and  N2_13 
REMARK       I    between atoms: N2_13  and  C10_15 
REMARK       I    between atoms: C10_15  and  N3_17 
REMARK    3  A    between atoms: N3_17  and  C11_19 
ROOT
HETATM    1  N1  UNL     1      12.788  52.214  60.947  1.00  0.00    -0.299 N 
ATOM      2  H1  UNL     1      13.022  53.203  60.857  1.00  0.00     0.186 HD
ENDROOT
BRANCH   1   3
HETATM    3  C9  UNL     1      13.726  51.347  60.672  1.00  0.00     0.051 C 
HETATM    4  C2  UNL     1      14.605  50.803  61.666  1.00  0.00     0.016 C 
HETATM    5  C1  UNL     1      14.452  50.563  62.943  1.00  0.00     0.033 C 
HETATM    6  S1  UNL     1      16.130  50.470  60.747  1.00  0.00    -0.118 SA
HETATM    7  C3  UNL     1      15.322  50.379  59.122  1.00  0.00     0.018 C 
HETATM    8  C4  UNL     1      16.098  51.165  58.088  1.00  0.00     0.028 C 
HETATM    9  C5  UNL     1      15.384  48.922  58.693  1.00  0.00     0.028 C 
HETATM   10  C6  UNL     1      13.934  50.875  59.319  1.00  0.00     0.014 C 
HETATM   11  C7  UNL     1      13.526  51.932  58.332  1.00  0.00     0.023 C 
HETATM   12  C8  UNL     1      12.976  49.694  59.094  1.00  0.00     0.023 C 
ENDBRANCH   1   3
BRANCH   1  13
HETATM   13  N2  UNL     1      11.514  51.902  61.346  1.00  0.00    -0.251 N 
HETATM   14  C10 UNL     1      10.431  52.049  60.416  1.00  0.00     0.335 C 
HETATM   15  O1  UNL     1      10.645  52.461  59.239  1.00  0.00    -0.246 OA
HETATM   16  N3  UNL     1       9.106  51.739  60.787  1.00  0.00    -0.334 N 
ATOM     17  H3  UNL     1       8.915  51.406  61.733  1.00  0.00     0.165 HD
ATOM     18  H2  UNL     1      11.338  51.568  62.294  1.00  0.00     0.191 HD
BRANCH  16  19
HETATM   19  C11 UNL     1       8.019  51.887  59.855  1.00  0.00     0.023 C 
HETATM   20  C12 UNL     1       7.985  53.316  59.342  1.00  0.00     0.037 C 
HETATM   21  C13 UNL     1       8.159  50.945  58.668  1.00  0.00     0.037 C 
HETATM   22  C14 UNL     1       6.690  51.579  60.507  1.00  0.00     0.037 C 
ENDBRANCH  16  19
ENDBRANCH   1  13
TORSDOF 3
ENDMDL
MODEL 2
REMARK VINA RESULT: -6.943159341      1.706      2.179
REMARK  3 active torsions:
REMARK  status: ('A' for Active; 'I' for Inactive)
REMARK    1  A    between atoms: C9_10  and  N1_11 
REMARK    2  A    between atoms: N1_11  and  N2_13 
REMARK       I    between atoms: N2_13  and  C10_15 
REMARK       I    between atoms: C10_15  and  N3_17 
REMARK    3  A    between atoms: N3_17  and  C11_19 
ROOT
HETATM    1  N1  UNL     1      12.718  49.968  60.131  1.00  0.00    -0.299 N 
ATOM      2  H1  UNL     1      12.848  49.544  61.049  1.00  0.00     0.186 HD
ENDROOT
BRANCH   1   3
HETATM    3  C9  UNL     1      13.790  50.355  59.491  1.00  0.00     0.051 C 
HETATM    4  C2  UNL     1      14.588  51.472  59.903  1.00  0.00     0.016 C 
HETATM    5  C1  UNL     1      14.832  51.997  61.076  1.00  0.00     0.033 C 
HETATM    6  S1  UNL     1      15.273  52.101  58.348  1.00  0.00    -0.118 SA
HETATM    7  C3  UNL     1      15.079  50.538  57.443  1.00  0.00     0.018 C 
HETATM    8  C4  UNL     1      14.483  50.777  56.073  1.00  0.00     0.028 C 
HETATM    9  C5  UNL     1      16.481  49.997  57.216  1.00  0.00     0.028 C 
HETATM   10  C6  UNL     1      14.243  49.659  58.304  1.00  0.00     0.014 C 
HETATM   11  C7  UNL     1      13.075  49.045  57.585  1.00  0.00     0.023 C 
HETATM   12  C8  UNL     1      15.119  48.484  58.769  1.00  0.00     0.023 C 
ENDBRANCH   1   3
BRANCH   1  13
HETATM   13  N2  UNL     1      11.434  50.085  59.666  1.00  0.00    -0.251 N 
HETATM   14  C10 UNL     1      10.731  51.322  59.852  1.00  0.00     0.335 C 
HETATM   15  O1  UNL     1      11.287  52.298  60.436  1.00  0.00    -0.246 OA
HETATM   16  N3  UNL     1       9.407  51.484  59.390  1.00  0.00    -0.334 N 
ATOM     17  H3  UNL     1       8.943  50.708  58.917  1.00  0.00     0.165 HD
ATOM     18  H2  UNL     1      10.983  49.302  59.194  1.00  0.00     0.191 HD
BRANCH  16  19
HETATM   19  C11 UNL     1       8.701  52.725  59.576  1.00  0.00     0.023 C 
HETATM   20  C12 UNL     1       8.327  52.878  61.040  1.00  0.00     0.037 C 
HETATM   21  C13 UNL     1       9.542  53.922  59.158  1.00  0.00     0.037 C 
HETATM   22  C14 UNL     1       7.435  52.765  58.751  1.00  0.00     0.037 C 
ENDBRANCH  16  19
ENDBRANCH   1  13
TORSDOF 3
ENDMDL
MODEL 3
REMARK VINA RESULT: -6.916759846      1.593      2.716
REMARK  3 active torsions:
REMARK  status: ('A' for Active; 'I' for Inactive)
REMARK    1  A    between atoms: C9_10  and  N1_11 
REMARK    2  A    between atoms: N1_11  and  N2_13 
REMARK       I    between atoms: N2_13  and  C10_15 
REMARK       I    between atoms: C10_15  and  N3_17 
REMARK    3  A    between atoms: N3_17  and  C11_19 
ROOT
HETATM    1  N1  UNL     1      12.701  51.462  58.510  1.00  0.00    -0.299 N 
ATOM      2  H1  UNL     1      12.760  52.371  58.051  1.00  0.00     0.186 HD
ENDROOT
BRANCH   1   3
HETATM    3  C9  UNL     1      13.820  50.913  58.901  1.00  0.00     0.051 C 
HETATM    4  C2  UNL     1      14.460  49.846  58.188  1.00  0.00     0.016 C 
HETATM    5  C1  UNL     1      14.490  49.525  56.920  1.00  0.00     0.033 C 
HETATM    6  S1  UNL     1      15.312  48.917  59.490  1.00  0.00    -0.118 SA
HETATM    7  C3  UNL     1      15.374  50.303  60.662  1.00  0.00     0.018 C 
HETATM    8  C4  UNL     1      14.966  49.857  62.049  1.00  0.00     0.028 C 
HETATM    9  C5  UNL     1      16.832  50.722  60.754  1.00  0.00     0.028 C 
HETATM   10  C6  UNL     1      14.494  51.363  60.102  1.00  0.00     0.014 C 
HETATM   11  C7  UNL     1      13.494  51.900  61.087  1.00  0.00     0.023 C 
HETATM   12  C8  UNL     1      15.383  52.554  59.709  1.00  0.00     0.023 C 
ENDBRANCH   1   3
BRANCH   1  13
HETATM   13  N2  UNL     1      11.454  50.915  58.667  1.00  0.00    -0.251 N 
HETATM   14  C10 UNL     1      10.371  51.751  59.102  1.00  0.00     0.335 C 
HETATM   15  O1  UNL     1      10.560  52.980  59.337  1.00  0.00    -0.246 OA
HETATM   16  N3  UNL     1       9.073  51.227  59.277  1.00  0.00    -0.334 N 
ATOM     17  H3  UNL     1       8.902  50.238  59.093  1.00  0.00     0.165 HD
ATOM     18  H2  UNL     1      11.297  49.925  58.477  1.00  0.00     0.191 HD
BRANCH  16  19
HETATM   19  C11 UNL     1       7.986  52.064  59.713  1.00  0.00     0.023 C 
HETATM   20  C12 UNL     1       8.374  52.763  61.005  1.00  0.00     0.037 C 
HETATM   21  C13 UNL     1       7.632  53.119  58.675  1.00  0.00     0.037 C 
HETATM   22  C14 UNL     1       6.734  51.254  59.964  1.00  0.00     0.037 C 
ENDBRANCH  16  19
ENDBRANCH   1  13
TORSDOF 3
ENDMDL
MODEL 4
REMARK VINA RESULT: -6.762441966      1.938      3.077
REMARK  3 active torsions:
REMARK  status: ('A' for Active; 'I' for Inactive)
REMARK    1  A    between atoms: C9_10  and  N1_11 
REMARK    2  A    between atoms: N1_11  and  N2_13 
REMARK       I    between atoms: N2_13  and  C10_15 
REMARK       I    between atoms: C10_15  and  N3_17 
REMARK    3  A    between atoms: N3_17  and  C11_19 
ROOT
HETATM    1  N1  UNL     1      12.018  49.377  58.879  1.00  0.00    -0.299 N 
ATOM      2  H1  UNL     1      11.992  48.623  59.565  1.00  0.00     0.186 HD
ENDROOT
BRANCH   1   3
HETATM    3  C9  UNL     1      13.192  49.826  58.524  1.00  0.00     0.051 C 
HETATM    4  C2  UNL     1      13.728  49.660  57.204  1.00  0.00     0.016 C 
HETATM    5  C1  UNL     1      13.163  49.570  56.027  1.00  0.00     0.033 C 
HETATM    6  S1  UNL     1      15.518  49.589  57.478  1.00  0.00    -0.118 SA
HETATM    7  C3  UNL     1      15.470  50.456  59.074  1.00  0.00     0.018 C 
HETATM    8  C4  UNL     1      16.331  49.751  60.098  1.00  0.00     0.028 C 
HETATM    9  C5  UNL     1      16.104  51.818  58.841  1.00  0.00     0.028 C 
HETATM   10  C6  UNL     1      14.037  50.535  59.463  1.00  0.00     0.014 C 
HETATM   11  C7  UNL     1      13.765  50.062  60.864  1.00  0.00     0.023 C 
HETATM   12  C8  UNL     1      13.620  52.014  59.428  1.00  0.00     0.023 C 
ENDBRANCH   1   3
BRANCH   1  13
HETATM   13  N2  UNL     1      10.817  49.839  58.404  1.00  0.00    -0.251 N 
HETATM   14  C10 UNL     1      10.045  50.742  59.209  1.00  0.00     0.335 C 
HETATM   15  O1  UNL     1      10.464  51.111  60.345  1.00  0.00    -0.246 OA
HETATM   16  N3  UNL     1       8.804  51.239  58.758  1.00  0.00    -0.334 N 
ATOM     17  H3  UNL     1       8.451  50.952  57.845  1.00  0.00     0.165 HD
ATOM     18  H2  UNL     1      10.477  49.545  57.489  1.00  0.00     0.191 HD
BRANCH  16  19
HETATM   19  C11 UNL     1       8.028  52.144  59.565  1.00  0.00     0.023 C 
HETATM   20  C12 UNL     1       6.929  51.372  60.275  1.00  0.00     0.037 C 
HETATM   21  C13 UNL     1       8.884  52.847  60.609  1.00  0.00     0.037 C 
HETATM   22  C14 UNL     1       7.388  53.223  58.720  1.00  0.00     0.037 C 
ENDBRANCH  16  19
ENDBRANCH   1  13
TORSDOF 3
ENDMDL
MODEL 5
REMARK VINA RESULT: -6.454468631      1.649      2.092
REMARK  3 active torsions:
REMARK  status: ('A' for Active; 'I' for Inactive)
REMARK    1  A    between atoms: C9_10  and  N1_11 
REMARK    2  A    between atoms: N1_11  and  N2_13 
REMARK       I    between atoms: N2_13  and  C10_15 
REMARK       I    between atoms: C10_15  and  N3_17 
REMARK    3  A    between atoms: N3_17  and  C11_19 
ROOT
HETATM    1  N1  UNL     1      12.156  49.918  60.123  1.00  0.00    -0.299 N 
ATOM      2  H1  UNL     1      11.945  49.022  60.563  1.00  0.00     0.186 HD
ENDROOT
BRANCH   1   3
HETATM    3  C9  UNL     1      13.299  50.478  60.419  1.00  0.00     0.051 C 
HETATM    4  C2  UNL     1      13.430  51.525  61.390  1.00  0.00     0.016 C 
HETATM    5  C1  UNL     1      12.759  51.810  62.476  1.00  0.00     0.033 C 
HETATM    6  S1  UNL     1      14.839  52.490  60.786  1.00  0.00    -0.118 SA
HETATM    7  C3  UNL     1      15.552  51.137  59.806  1.00  0.00     0.018 C 
HETATM    8  C4  UNL     1      15.960  51.621  58.431  1.00  0.00     0.028 C 
HETATM    9  C5  UNL     1      16.831  50.722  60.514  1.00  0.00     0.028 C 
HETATM   10  C6  UNL     1      14.525  50.062  59.770  1.00  0.00     0.014 C 
HETATM   11  C7  UNL     1      14.233  49.552  58.387  1.00  0.00     0.023 C 
HETATM   12  C8  UNL     1      15.074  48.860  60.557  1.00  0.00     0.023 C 
ENDBRANCH   1   3
BRANCH   1  13
HETATM   13  N2  UNL     1      11.219  50.436  59.267  1.00  0.00    -0.251 N 
HETATM   14  C10 UNL     1      10.092  51.143  59.806  1.00  0.00     0.335 C 
HETATM   15  O1  UNL     1       9.963  51.290  61.057  1.00  0.00    -0.246 OA
HETATM   16  N3  UNL     1       9.104  51.691  58.960  1.00  0.00    -0.334 N 
ATOM     17  H3  UNL     1       9.193  51.582  57.950  1.00  0.00     0.165 HD
ATOM     18  H2  UNL     1      11.321  50.321  58.259  1.00  0.00     0.191 HD
BRANCH  16  19
HETATM   19  C11 UNL     1       7.974  52.400  59.500  1.00  0.00     0.023 C 
HETATM   20  C12 UNL     1       7.046  51.418  60.193  1.00  0.00     0.037 C 
HETATM   21  C13 UNL     1       8.398  53.462  60.504  1.00  0.00     0.037 C 
HETATM   22  C14 UNL     1       7.198  53.108  58.412  1.00  0.00     0.037 C 
ENDBRANCH  16  19
ENDBRANCH   1  13
TORSDOF 3
ENDMDL
