MODEL 1
REMARK VINA RESULT: -6.157742290      0.000      0.000
REMARK  4 active torsions:
REMARK  status: ('A' for Active; 'I' for Inactive)
REMARK    1  A    between atoms: C4_6  and  O2_7 
REMARK    2  A    between atoms: C5_9  and  C6_10 
REMARK    3  A    between atoms: C6_10  and  O3_11 
REMARK    4  A    between atoms: C7_14  and  C8_15 
ROOT
HETATM    1  C1  UNL     1      -6.419   4.585  14.001  1.00  0.00     0.064 C 
HETATM    2  C2  UNL     1      -4.964   4.717  14.226  1.00  0.00     0.142 C 
HETATM    3 CL1  UNL     1      -4.703   6.200  15.235  1.00  0.00    -0.088 Cl
HETATM    4  O1  UNL     1      -4.350   5.019  12.983  1.00  0.00    -0.356 OA
HETATM    5  C3  UNL     1      -3.594   3.863  13.082  1.00  0.00     0.166 C 
HETATM    6  C4  UNL     1      -3.981   2.858  12.084  1.00  0.00     0.178 C 
HETATM    7  C5  UNL     1      -4.669   1.637  12.596  1.00  0.00     0.176 C 
HETATM    8  O4  UNL     1      -4.148   1.299  13.811  1.00  0.00    -0.374 OA
HETATM    9  C7  UNL     1      -4.414   2.251  14.823  1.00  0.00     0.142 C 
HETATM   10  C9  UNL     1      -4.068   3.617  14.495  1.00  0.00     0.097 C 
ENDROOT
BRANCH   7  11
HETATM   11  C6  UNL     1      -4.457   0.459  11.667  1.00  0.00     0.198 C 
BRANCH  11  12
HETATM   12  O3  UNL     1      -4.447   0.863  10.325  1.00  0.00    -0.398 OA
ATOM     13  H3  UNL     1      -5.284   1.232  10.068  1.00  0.00     0.209 HD
ENDBRANCH  11  12
ENDBRANCH   7  11
BRANCH   6  14
HETATM   14  O2  UNL     1      -4.823   3.414  11.091  1.00  0.00    -0.390 OA
ATOM     15  H2  UNL     1      -4.343   3.998  10.515  1.00  0.00     0.210 HD
ENDBRANCH   6  14
BRANCH   9  16
HETATM   16  C8  UNL     1      -5.815   1.964  15.301  1.00  0.00     0.117 C 
HETATM   17 BR1  UNL     1      -5.892   2.393  17.222  1.00  0.00    -0.094 Br
ENDBRANCH   9  16
TORSDOF 4
ENDMDL
MODEL 2
REMARK VINA RESULT: -5.953157321      1.421      1.577
REMARK  4 active torsions:
REMARK  status: ('A' for Active; 'I' for Inactive)
REMARK    1  A    between atoms: C4_6  and  O2_7 
REMARK    2  A    between atoms: C5_9  and  C6_10 
REMARK    3  A    between atoms: C6_10  and  O3_11 
REMARK    4  A    between atoms: C7_14  and  C8_15 
ROOT
HETATM    1  C1  UNL     1      -4.987   5.809  12.428  1.00  0.00     0.064 C 
HETATM    2  C2  UNL     1      -3.694   5.376  12.998  1.00  0.00     0.142 C 
HETATM    3 CL1  UNL     1      -2.956   6.813  13.820  1.00  0.00    -0.088 Cl
HETATM    4  O1  UNL     1      -2.812   5.087  11.924  1.00  0.00    -0.356 OA
HETATM    5  C3  UNL     1      -2.698   3.783  12.377  1.00  0.00     0.166 C 
HETATM    6  C4  UNL     1      -3.330   2.820  11.466  1.00  0.00     0.178 C 
HETATM    7  C5  UNL     1      -4.575   2.157  11.952  1.00  0.00     0.176 C 
HETATM    8  O4  UNL     1      -4.477   1.938  13.295  1.00  0.00    -0.374 OA
HETATM    9  C7  UNL     1      -4.442   3.128  14.059  1.00  0.00     0.142 C 
HETATM   10  C9  UNL     1      -3.460   4.105  13.641  1.00  0.00     0.097 C 
ENDROOT
BRANCH   7  11
HETATM   11  C6  UNL     1      -4.774   0.812  11.285  1.00  0.00     0.198 C 
BRANCH  11  12
HETATM   12  O3  UNL     1      -4.442   0.862   9.925  1.00  0.00    -0.398 OA
ATOM     13  H3  UNL     1      -3.666   1.391   9.777  1.00  0.00     0.209 HD
ENDBRANCH  11  12
ENDBRANCH   7  11
BRANCH   6  14
HETATM   14  O2  UNL     1      -3.645   3.418  10.221  1.00  0.00    -0.390 OA
ATOM     15  H2  UNL     1      -4.567   3.642  10.167  1.00  0.00     0.210 HD
ENDBRANCH   6  14
BRANCH   9  16
HETATM   16  C8  UNL     1      -5.876   3.572  14.197  1.00  0.00     0.117 C 
HETATM   17 BR1  UNL     1      -6.059   4.479  15.936  1.00  0.00    -0.094 Br
ENDBRANCH   9  16
TORSDOF 4
ENDMDL
MODEL 3
REMARK VINA RESULT: -5.431294203      2.518      4.034
REMARK  4 active torsions:
REMARK  status: ('A' for Active; 'I' for Inactive)
REMARK    1  A    between atoms: C4_6  and  O2_7 
REMARK    2  A    between atoms: C5_9  and  C6_10 
REMARK    3  A    between atoms: C6_10  and  O3_11 
REMARK    4  A    between atoms: C7_14  and  C8_15 
ROOT
HETATM    1  C1  UNL     1      -5.287   2.400  12.448  1.00  0.00     0.064 C 
HETATM    2  C2  UNL     1      -4.141   2.776  13.303  1.00  0.00     0.142 C 
HETATM    3 CL1  UNL     1      -2.937   3.630  12.251  1.00  0.00    -0.088 Cl
HETATM    4  O1  UNL     1      -3.482   1.585  13.706  1.00  0.00    -0.356 OA
HETATM    5  C3  UNL     1      -3.727   1.905  15.031  1.00  0.00     0.166 C 
HETATM    6  C4  UNL     1      -4.695   0.991  15.652  1.00  0.00     0.178 C 
HETATM    7  C5  UNL     1      -6.036   1.558  15.978  1.00  0.00     0.176 C 
HETATM    8  O4  UNL     1      -5.896   2.856  16.374  1.00  0.00    -0.374 OA
HETATM    9  C7  UNL     1      -5.440   3.713  15.346  1.00  0.00     0.142 C 
HETATM   10  C9  UNL     1      -4.247   3.272  14.654  1.00  0.00     0.097 C 
ENDROOT
BRANCH   7  11
HETATM   11  C6  UNL     1      -6.687   0.802  17.118  1.00  0.00     0.198 C 
BRANCH  11  12
HETATM   12  O3  UNL     1      -6.047  -0.422  17.350  1.00  0.00    -0.398 OA
ATOM     13  H3  UNL     1      -6.478  -0.913  18.041  1.00  0.00     0.209 HD
ENDBRANCH  11  12
ENDBRANCH   7  11
BRANCH   6  14
HETATM   14  O2  UNL     1      -4.920  -0.151  14.845  1.00  0.00    -0.390 OA
ATOM     15  H2  UNL     1      -5.266  -0.873  15.355  1.00  0.00     0.210 HD
ENDBRANCH   6  14
BRANCH   9  16
HETATM   16  C8  UNL     1      -6.656   4.056  14.524  1.00  0.00     0.117 C 
HETATM   17 BR1  UNL     1      -6.349   5.821  13.706  1.00  0.00    -0.094 Br
ENDBRANCH   9  16
TORSDOF 4
ENDMDL
MODEL 4
REMARK VINA RESULT: -5.430944448      2.751      3.766
REMARK  4 active torsions:
REMARK  status: ('A' for Active; 'I' for Inactive)
REMARK    1  A    between atoms: C4_6  and  O2_7 
REMARK    2  A    between atoms: C5_9  and  C6_10 
REMARK    3  A    between atoms: C6_10  and  O3_11 
REMARK    4  A    between atoms: C7_14  and  C8_15 
ROOT
HETATM    1  C1  UNL     1      -1.806   4.544  13.097  1.00  0.00     0.064 C 
HETATM    2  C2  UNL     1      -3.180   5.078  13.212  1.00  0.00     0.142 C 
HETATM    3 CL1  UNL     1      -3.052   6.772  13.843  1.00  0.00    -0.088 Cl
HETATM    4  O1  UNL     1      -3.847   4.363  14.240  1.00  0.00    -0.356 OA
HETATM    5  C3  UNL     1      -4.795   3.940  13.323  1.00  0.00     0.166 C 
HETATM    6  C4  UNL     1      -4.707   2.498  13.059  1.00  0.00     0.178 C 
HETATM    7  C5  UNL     1      -4.215   2.095  11.709  1.00  0.00     0.176 C 
HETATM    8  O4  UNL     1      -4.666   2.984  10.777  1.00  0.00    -0.374 OA
HETATM    9  C7  UNL     1      -4.124   4.282  10.928  1.00  0.00     0.142 C 
HETATM   10  C9  UNL     1      -4.236   4.850  12.255  1.00  0.00     0.097 C 
ENDROOT
BRANCH   7  11
HETATM   11  C6  UNL     1      -4.739   0.727  11.322  1.00  0.00     0.198 C 
BRANCH  11  12
HETATM   12  O3  UNL     1      -4.527   0.464   9.963  1.00  0.00    -0.398 OA
ATOM     13  H3  UNL     1      -4.944  -0.348   9.698  1.00  0.00     0.209 HD
ENDBRANCH  11  12
ENDBRANCH   7  11
BRANCH   6  14
HETATM   14  O2  UNL     1      -3.878   1.848  14.006  1.00  0.00    -0.390 OA
ATOM     15  H2  UNL     1      -4.096   0.926  14.082  1.00  0.00     0.210 HD
ENDBRANCH   6  14
BRANCH   9  16
HETATM   16  C8  UNL     1      -2.762   4.238  10.283  1.00  0.00     0.117 C 
HETATM   17 BR1  UNL     1      -2.391   6.026   9.545  1.00  0.00    -0.094 Br
ENDBRANCH   9  16
TORSDOF 4
ENDMDL
MODEL 5
REMARK VINA RESULT: -5.415150941      2.070      3.250
REMARK  4 active torsions:
REMARK  status: ('A' for Active; 'I' for Inactive)
REMARK    1  A    between atoms: C4_6  and  O2_7 
REMARK    2  A    between atoms: C5_9  and  C6_10 
REMARK    3  A    between atoms: C6_10  and  O3_11 
REMARK    4  A    between atoms: C7_14  and  C8_15 
ROOT
HETATM    1  C1  UNL     1      -3.518   2.463  15.289  1.00  0.00     0.064 C 
HETATM    2  C2  UNL     1      -4.789   2.037  14.666  1.00  0.00     0.142 C 
HETATM    3 CL1  UNL     1      -5.826   1.332  15.975  1.00  0.00    -0.088 Cl
HETATM    4  O1  UNL     1      -4.514   0.945  13.802  1.00  0.00    -0.356 OA
HETATM    5  C3  UNL     1      -4.998   1.679  12.731  1.00  0.00     0.166 C 
HETATM    6  C4  UNL     1      -3.936   2.052  11.788  1.00  0.00     0.178 C 
HETATM    7  C5  UNL     1      -3.569   3.497  11.732  1.00  0.00     0.176 C 
HETATM    8  O4  UNL     1      -4.689   4.256  11.912  1.00  0.00    -0.374 OA
HETATM    9  C7  UNL     1      -5.253   4.131  13.203  1.00  0.00     0.142 C 
HETATM   10  C9  UNL     1      -5.495   2.774  13.645  1.00  0.00     0.097 C 
ENDROOT
BRANCH   7  11
HETATM   11  C6  UNL     1      -2.986   3.861  10.382  1.00  0.00     0.198 C 
BRANCH  11  12
HETATM   12  O3  UNL     1      -3.085   2.795   9.478  1.00  0.00    -0.398 OA
ATOM     13  H3  UNL     1      -3.964   2.720   9.126  1.00  0.00     0.209 HD
ENDBRANCH  11  12
ENDBRANCH   7  11
BRANCH   6  14
HETATM   14  O2  UNL     1      -2.741   1.338  12.046  1.00  0.00    -0.390 OA
ATOM     15  H2  UNL     1      -1.981   1.905  12.000  1.00  0.00     0.210 HD
ENDBRANCH   6  14
BRANCH   9  16
HETATM   16  C8  UNL     1      -4.446   5.039  14.096  1.00  0.00     0.117 C 
HETATM   17 BR1  UNL     1      -5.629   5.663  15.542  1.00  0.00    -0.094 Br
ENDBRANCH   9  16
TORSDOF 4
ENDMDL
