MODEL 1
REMARK VINA RESULT: -4.296848089      0.000      0.000
REMARK  15 active torsions:
REMARK  status: ('A' for Active; 'I' for Inactive)
REMARK    1  A    between atoms: C3_3  and  C4_4 
REMARK    2  A    between atoms: C4_4  and  C5_6 
REMARK    3  A    between atoms: C5_6  and  N1_7 
REMARK    4  A    between atoms: C5_6  and  C6_11 
REMARK    5  A    between atoms: C6_11  and  C7_12 
REMARK    6  A    between atoms: C6_11  and  C9_15 
REMARK    7  A    between atoms: C7_12  and  C8_13 
REMARK    8  A    between atoms: N3_18  and  C10_19 
REMARK    9  A    between atoms: C11_22  and  N5_23 
REMARK   10  A    between atoms: C12_28  and  N7_29 
REMARK   11  A    between atoms: C14_34  and  N8_35 
REMARK   12  A    between atoms: C15_43  and  C16_44 
REMARK   13  A    between atoms: C16_44  and  O3_45 
REMARK   14  A    between atoms: C16_44  and  C17_47 
REMARK   15  A    between atoms: C17_47  and  O4_48 
ROOT
HETATM    1  C9  UNL     1      57.426  10.489  29.601  1.00  0.00     0.145 A 
HETATM    2  N2  UNL     1      57.880  11.096  30.705  1.00  0.00    -0.262 N 
ATOM      3  H2  UNL     1      57.897  10.672  31.632  1.00  0.00     0.190 HD
HETATM    4  N3  UNL     1      58.309  12.342  30.428  1.00  0.00    -0.065 N 
HETATM    5  C14 UNL     1      58.100  12.479  29.092  1.00  0.00     0.700 A 
HETATM    6  N9  UNL     1      57.556  11.332  28.590  1.00  0.00    -0.173 N 
ATOM      7  H9  UNL     1      57.297  11.158  27.619  1.00  0.00     0.186 HD
ENDROOT
BRANCH   1   8
HETATM    8  C6  UNL     1      56.887   9.073  29.524  1.00  0.00     0.024 C 
BRANCH   8   9
HETATM    9  C5  UNL     1      55.478   8.987  29.106  1.00  0.00     0.295 C 
BRANCH   9  10
HETATM   10  C4  UNL     1      55.066   8.476  27.818  1.00  0.00     0.213 C 
HETATM   11  O1  UNL     1      54.612   9.269  26.929  1.00  0.00    -0.288 OA
BRANCH  10  12
HETATM   12  C3  UNL     1      55.103   7.050  27.393  1.00  0.00     0.112 A 
HETATM   13  C2  UNL     1      56.068   6.473  26.554  1.00  0.00     0.009 A 
HETATM   14  C1  UNL     1      57.373   7.094  26.177  1.00  0.00     0.054 C 
HETATM   15  C15 UNL     1      55.676   5.146  26.287  1.00  0.00     0.138 A 
HETATM   16  O2  UNL     1      54.566   4.976  26.950  1.00  0.00    -0.234 OA
HETATM   17  N10 UNL     1      54.231   6.067  27.586  1.00  0.00    -0.256 N 
ATOM     18  H10 UNL     1      53.396   6.154  28.164  1.00  0.00     0.195 HD
BRANCH  15  19
HETATM   19  C16 UNL     1      56.454   4.278  25.395  1.00  0.00     0.103 C 
BRANCH  19  20
HETATM   20  O3  UNL     1      57.758   4.055  25.661  1.00  0.00    -0.360 OA
ATOM     21  H3  UNL     1      58.319   3.704  24.979  1.00  0.00     0.217 HD
ENDBRANCH  19  20
BRANCH  19  22
HETATM   22  C17 UNL     1      55.700   3.192  24.641  1.00  0.00     0.231 C 
BRANCH  22  23
HETATM   23  O4  UNL     1      55.317   3.547  23.385  1.00  0.00    -0.394 OA
ATOM     24  H4  UNL     1      54.533   4.083  23.353  1.00  0.00     0.209 HD
ENDBRANCH  22  23
ENDBRANCH  19  22
ENDBRANCH  15  19
ENDBRANCH  10  12
ENDBRANCH   9  10
BRANCH   9  25
HETATM   25  N1  UNL     1      54.747  10.259  29.394  1.00  0.00    -0.064 N 
ATOM     26  H13 UNL     1      55.370  11.067  29.402  1.00  0.00     0.275 HD
ATOM     27  H12 UNL     1      54.148  10.543  28.619  1.00  0.00     0.275 HD
ATOM     28  H11 UNL     1      54.229  10.162  30.267  1.00  0.00     0.275 HD
ENDBRANCH   9  25
ENDBRANCH   8   9
BRANCH   8  29
HETATM   29  C7  UNL     1      57.909   8.139  29.082  1.00  0.00     0.017 C 
BRANCH  29  30
HETATM   30  C8  UNL     1      59.212   7.959  29.737  1.00  0.00     0.250 C 
HETATM   31  F1  UNL     1      59.954   6.847  29.333  1.00  0.00    -0.251 F 
ENDBRANCH  29  30
ENDBRANCH   8  29
ENDBRANCH   1   8
BRANCH   4  32
HETATM   32  C10 UNL     1      58.828  13.356  31.298  1.00  0.00     0.203 A 
HETATM   33  N4  UNL     1      58.061  14.403  31.700  1.00  0.00    -0.171 N 
HETATM   34  C11 UNL     1      58.515  15.390  32.459  1.00  0.00     0.679 A 
ATOM     35  H4  UNL     1      57.086  14.432  31.401  1.00  0.00     0.186 HD
HETATM   36  N6  UNL     1      59.813  15.354  32.857  1.00  0.00    -0.174 N 
HETATM   37  C12 UNL     1      60.663  14.361  32.515  1.00  0.00     0.157 A 
ATOM     38  H6  UNL     1      60.163  16.112  33.442  1.00  0.00     0.186 HD
HETATM   39  C13 UNL     1      60.141  13.338  31.713  1.00  0.00     0.207 A 
HETATM   40  F2  UNL     1      61.023  12.355  31.416  1.00  0.00    -0.198 F 
BRANCH  34  41
HETATM   41  N5  UNL     1      57.740  16.396  32.802  1.00  0.00    -0.234 N 
ATOM     42  H52 UNL     1      56.804  16.486  32.407  1.00  0.00     0.174 HD
ATOM     43  H51 UNL     1      58.048  17.092  33.480  1.00  0.00     0.174 HD
ENDBRANCH  34  41
BRANCH  37  44
HETATM   44  N7  UNL     1      61.878  14.383  32.927  1.00  0.00    -0.382 N 
ATOM     45  H72 UNL     1      62.337  15.226  33.270  1.00  0.00     0.157 HD
ATOM     46  H71 UNL     1      62.437  13.529  32.918  1.00  0.00     0.157 HD
ENDBRANCH  37  44
ENDBRANCH   4  32
BRANCH   5  47
HETATM   47  N8  UNL     1      58.363  13.540  28.380  1.00  0.00    -0.233 N 
ATOM     48  H82 UNL     1      59.284  13.768  28.006  1.00  0.00     0.174 HD
ATOM     49  H81 UNL     1      57.693  14.259  28.104  1.00  0.00     0.174 HD
ENDBRANCH   5  47
TORSDOF 15
ENDMDL
MODEL 2
REMARK VINA RESULT: -3.469999198      0.974      1.638
REMARK  15 active torsions:
REMARK  status: ('A' for Active; 'I' for Inactive)
REMARK    1  A    between atoms: C3_3  and  C4_4 
REMARK    2  A    between atoms: C4_4  and  C5_6 
REMARK    3  A    between atoms: C5_6  and  N1_7 
REMARK    4  A    between atoms: C5_6  and  C6_11 
REMARK    5  A    between atoms: C6_11  and  C7_12 
REMARK    6  A    between atoms: C6_11  and  C9_15 
REMARK    7  A    between atoms: C7_12  and  C8_13 
REMARK    8  A    between atoms: N3_18  and  C10_19 
REMARK    9  A    between atoms: C11_22  and  N5_23 
REMARK   10  A    between atoms: C12_28  and  N7_29 
REMARK   11  A    between atoms: C14_34  and  N8_35 
REMARK   12  A    between atoms: C15_43  and  C16_44 
REMARK   13  A    between atoms: C16_44  and  O3_45 
REMARK   14  A    between atoms: C16_44  and  C17_47 
REMARK   15  A    between atoms: C17_47  and  O4_48 
ROOT
HETATM    1  C9  UNL     1      57.638  10.666  29.701  1.00  0.00     0.145 A 
HETATM    2  N2  UNL     1      58.161  11.271  30.775  1.00  0.00    -0.262 N 
ATOM      3  H2  UNL     1      58.206  10.858  31.706  1.00  0.00     0.190 HD
HETATM    4  N3  UNL     1      58.620  12.497  30.462  1.00  0.00    -0.065 N 
HETATM    5  C14 UNL     1      58.356  12.625  29.135  1.00  0.00     0.700 A 
HETATM    6  N9  UNL     1      57.750  11.492  28.674  1.00  0.00    -0.173 N 
ATOM      7  H9  UNL     1      57.443  11.315  27.717  1.00  0.00     0.186 HD
ENDROOT
BRANCH   1   8
HETATM    8  C6  UNL     1      57.048   9.269  29.667  1.00  0.00     0.024 C 
BRANCH   8   9
HETATM    9  C5  UNL     1      55.655   9.215  29.191  1.00  0.00     0.295 C 
BRANCH   9  10
HETATM   10  C4  UNL     1      55.287   8.733  27.880  1.00  0.00     0.213 C 
HETATM   11  O1  UNL     1      54.966   9.555  26.961  1.00  0.00    -0.288 OA
BRANCH  10  12
HETATM   12  C3  UNL     1      55.225   7.305  27.460  1.00  0.00     0.112 A 
HETATM   13  C2  UNL     1      56.171   6.648  26.660  1.00  0.00     0.009 A 
HETATM   14  C1  UNL     1      57.534   7.160  26.330  1.00  0.00     0.054 C 
HETATM   15  C15 UNL     1      55.683   5.354  26.383  1.00  0.00     0.138 A 
HETATM   16  O2  UNL     1      54.540   5.278  27.004  1.00  0.00    -0.234 OA
HETATM   17  N10 UNL     1      54.270   6.397  27.624  1.00  0.00    -0.256 N 
ATOM     18  H10 UNL     1      53.424   6.554  28.170  1.00  0.00     0.195 HD
BRANCH  15  19
HETATM   19  C16 UNL     1      56.422   4.422  25.523  1.00  0.00     0.103 C 
BRANCH  19  20
HETATM   20  O3  UNL     1      57.706   4.131  25.813  1.00  0.00    -0.360 OA
ATOM     21  H3  UNL     1      57.986   3.223  25.829  1.00  0.00     0.217 HD
ENDBRANCH  19  20
BRANCH  19  22
HETATM   22  C17 UNL     1      55.615   3.363  24.784  1.00  0.00     0.231 C 
BRANCH  22  23
HETATM   23  O4  UNL     1      55.388   3.648  23.473  1.00  0.00    -0.394 OA
ATOM     24  H4  UNL     1      55.430   2.894  22.897  1.00  0.00     0.209 HD
ENDBRANCH  22  23
ENDBRANCH  19  22
ENDBRANCH  15  19
ENDBRANCH  10  12
ENDBRANCH   9  10
BRANCH   9  25
HETATM   25  N1  UNL     1      54.935  10.494  29.472  1.00  0.00    -0.064 N 
ATOM     26  H13 UNL     1      54.126  10.622  28.864  1.00  0.00     0.275 HD
ATOM     27  H12 UNL     1      54.445  10.472  30.366  1.00  0.00     0.275 HD
ATOM     28  H11 UNL     1      55.591  11.273  29.411  1.00  0.00     0.275 HD
ENDBRANCH   9  25
ENDBRANCH   8   9
BRANCH   8  29
HETATM   29  C7  UNL     1      58.051   8.277  29.315  1.00  0.00     0.017 C 
BRANCH  29  30
HETATM   30  C8  UNL     1      59.299   8.056  30.058  1.00  0.00     0.250 C 
HETATM   31  F1  UNL     1      60.050   6.941  29.679  1.00  0.00    -0.251 F 
ENDBRANCH  29  30
ENDBRANCH   8  29
ENDBRANCH   1   8
BRANCH   4  32
HETATM   32  C10 UNL     1      59.212  13.503  31.294  1.00  0.00     0.203 A 
HETATM   33  N4  UNL     1      60.549  13.523  31.537  1.00  0.00    -0.171 N 
HETATM   34  C11 UNL     1      61.131  14.401  32.343  1.00  0.00     0.679 A 
ATOM     35  H4  UNL     1      61.135  12.826  31.077  1.00  0.00     0.186 HD
HETATM   36  N6  UNL     1      60.351  15.329  32.956  1.00  0.00    -0.174 N 
HETATM   37  C12 UNL     1      59.013  15.398  32.786  1.00  0.00     0.157 A 
ATOM     38  H6  UNL     1      60.798  16.005  33.575  1.00  0.00     0.186 HD
HETATM   39  C13 UNL     1      58.440  14.453  31.926  1.00  0.00     0.207 A 
HETATM   40  F2  UNL     1      57.101  14.577  31.769  1.00  0.00    -0.198 F 
BRANCH  34  41
HETATM   41  N5  UNL     1      62.426  14.364  32.565  1.00  0.00    -0.234 N 
ATOM     42  H52 UNL     1      63.067  14.906  31.986  1.00  0.00     0.174 HD
ATOM     43  H51 UNL     1      62.814  13.811  33.329  1.00  0.00     0.174 HD
ENDBRANCH  34  41
BRANCH  37  44
HETATM   44  N7  UNL     1      58.333  16.302  33.393  1.00  0.00    -0.382 N 
ATOM     45  H72 UNL     1      57.413  16.613  33.083  1.00  0.00     0.157 HD
ATOM     46  H71 UNL     1      58.711  16.752  34.227  1.00  0.00     0.157 HD
ENDBRANCH  37  44
ENDBRANCH   4  32
BRANCH   5  47
HETATM   47  N8  UNL     1      58.623  13.668  28.397  1.00  0.00    -0.233 N 
ATOM     48  H82 UNL     1      59.225  14.438  28.688  1.00  0.00     0.174 HD
ATOM     49  H81 UNL     1      58.277  13.839  27.453  1.00  0.00     0.174 HD
ENDBRANCH   5  47
TORSDOF 15
ENDMDL
MODEL 3
REMARK VINA RESULT: -3.344583662      1.517      2.233
REMARK  15 active torsions:
REMARK  status: ('A' for Active; 'I' for Inactive)
REMARK    1  A    between atoms: C3_3  and  C4_4 
REMARK    2  A    between atoms: C4_4  and  C5_6 
REMARK    3  A    between atoms: C5_6  and  N1_7 
REMARK    4  A    between atoms: C5_6  and  C6_11 
REMARK    5  A    between atoms: C6_11  and  C7_12 
REMARK    6  A    between atoms: C6_11  and  C9_15 
REMARK    7  A    between atoms: C7_12  and  C8_13 
REMARK    8  A    between atoms: N3_18  and  C10_19 
REMARK    9  A    between atoms: C11_22  and  N5_23 
REMARK   10  A    between atoms: C12_28  and  N7_29 
REMARK   11  A    between atoms: C14_34  and  N8_35 
REMARK   12  A    between atoms: C15_43  and  C16_44 
REMARK   13  A    between atoms: C16_44  and  O3_45 
REMARK   14  A    between atoms: C16_44  and  C17_47 
REMARK   15  A    between atoms: C17_47  and  O4_48 
ROOT
HETATM    1  C9  UNL     1      57.258  11.005  29.225  1.00  0.00     0.145 A 
HETATM    2  N2  UNL     1      57.378  12.171  29.873  1.00  0.00    -0.262 N 
ATOM      3  H2  UNL     1      56.727  12.951  29.783  1.00  0.00     0.190 HD
HETATM    4  N3  UNL     1      58.472  12.177  30.658  1.00  0.00    -0.065 N 
HETATM    5  C14 UNL     1      59.028  10.952  30.466  1.00  0.00     0.700 A 
HETATM    6  N9  UNL     1      58.274  10.236  29.581  1.00  0.00    -0.173 N 
ATOM      7  H9  UNL     1      58.459   9.287  29.257  1.00  0.00     0.186 HD
ENDROOT
BRANCH   1   8
HETATM    8  C6  UNL     1      56.138  10.628  28.274  1.00  0.00     0.024 C 
BRANCH   8   9
HETATM    9  C5  UNL     1      55.473   9.355  28.602  1.00  0.00     0.295 C 
BRANCH   9  10
HETATM   10  C4  UNL     1      54.704   8.597  27.643  1.00  0.00     0.213 C 
HETATM   11  O1  UNL     1      53.759   9.155  26.993  1.00  0.00    -0.288 OA
BRANCH  10  12
HETATM   12  C3  UNL     1      54.889   7.155  27.319  1.00  0.00     0.112 A 
HETATM   13  C2  UNL     1      56.007   6.600  26.680  1.00  0.00     0.009 A 
HETATM   14  C1  UNL     1      57.318   7.285  26.475  1.00  0.00     0.054 C 
HETATM   15  C15 UNL     1      55.739   5.237  26.439  1.00  0.00     0.138 A 
HETATM   16  O2  UNL     1      54.549   5.030  26.929  1.00  0.00    -0.234 OA
HETATM   17  N10 UNL     1      54.054   6.129  27.434  1.00  0.00    -0.256 N 
ATOM     18  H10 UNL     1      53.134   6.191  27.868  1.00  0.00     0.195 HD
BRANCH  15  19
HETATM   19  C16 UNL     1      56.699   4.377  25.736  1.00  0.00     0.103 C 
BRANCH  19  20
HETATM   20  O3  UNL     1      57.906   4.143  26.291  1.00  0.00    -0.360 OA
ATOM     21  H3  UNL     1      58.161   3.250  26.493  1.00  0.00     0.217 HD
ENDBRANCH  19  20
BRANCH  19  22
HETATM   22  C17 UNL     1      56.134   3.305  24.815  1.00  0.00     0.231 C 
BRANCH  22  23
HETATM   23  O4  UNL     1      55.174   3.753  23.960  1.00  0.00    -0.394 OA
ATOM     24  H4  UNL     1      55.040   3.199  23.200  1.00  0.00     0.209 HD
ENDBRANCH  22  23
ENDBRANCH  19  22
ENDBRANCH  15  19
ENDBRANCH  10  12
ENDBRANCH   9  10
BRANCH   9  25
HETATM   25  N1  UNL     1      54.713   9.455  29.885  1.00  0.00    -0.064 N 
ATOM     26  H13 UNL     1      53.860  10.006  29.785  1.00  0.00     0.275 HD
ATOM     27  H12 UNL     1      54.285   8.568  30.149  1.00  0.00     0.275 HD
ATOM     28  H11 UNL     1      55.324   9.821  30.615  1.00  0.00     0.275 HD
ENDBRANCH   9  25
ENDBRANCH   8   9
BRANCH   8  29
HETATM   29  C7  UNL     1      55.425  11.802  27.801  1.00  0.00     0.017 C 
BRANCH  29  30
HETATM   30  C8  UNL     1      55.974  12.786  26.857  1.00  0.00     0.250 C 
HETATM   31  F1  UNL     1      56.759  13.798  27.413  1.00  0.00    -0.251 F 
ENDBRANCH  29  30
ENDBRANCH   8  29
ENDBRANCH   1   8
BRANCH   4  32
HETATM   32  C10 UNL     1      59.009  13.216  31.487  1.00  0.00     0.203 A 
HETATM   33  N4  UNL     1      58.214  14.185  32.010  1.00  0.00    -0.171 N 
HETATM   34  C11 UNL     1      58.675  15.194  32.737  1.00  0.00     0.679 A 
ATOM     35  H4  UNL     1      57.210  14.135  31.835  1.00  0.00     0.186 HD
HETATM   36  N6  UNL     1      60.011  15.262  32.971  1.00  0.00    -0.174 N 
HETATM   37  C12 UNL     1      60.891  14.353  32.498  1.00  0.00     0.157 A 
ATOM     38  H6  UNL     1      60.367  16.036  33.530  1.00  0.00     0.186 HD
HETATM   39  C13 UNL     1      60.361  13.303  31.737  1.00  0.00     0.207 A 
HETATM   40  F2  UNL     1      61.277  12.406  31.304  1.00  0.00    -0.198 F 
BRANCH  34  41
HETATM   41  N5  UNL     1      57.868  16.121  33.201  1.00  0.00    -0.234 N 
ATOM     42  H52 UNL     1      57.444  16.025  34.124  1.00  0.00     0.174 HD
ATOM     43  H51 UNL     1      57.664  16.962  32.660  1.00  0.00     0.174 HD
ENDBRANCH  34  41
BRANCH  37  44
HETATM   44  N7  UNL     1      62.142  14.472  32.758  1.00  0.00    -0.382 N 
ATOM     45  H72 UNL     1      62.507  15.094  33.478  1.00  0.00     0.157 HD
ATOM     46  H71 UNL     1      62.828  13.933  32.229  1.00  0.00     0.157 HD
ENDBRANCH  37  44
ENDBRANCH   4  32
BRANCH   5  47
HETATM   47  N8  UNL     1      60.122  10.511  31.025  1.00  0.00    -0.233 N 
ATOM     48  H82 UNL     1      60.156  10.043  31.930  1.00  0.00     0.174 HD
ATOM     49  H81 UNL     1      61.062  10.569  30.631  1.00  0.00     0.174 HD
ENDBRANCH   5  47
TORSDOF 15
ENDMDL
MODEL 4
REMARK VINA RESULT: -3.337289192      1.961      2.765
REMARK  15 active torsions:
REMARK  status: ('A' for Active; 'I' for Inactive)
REMARK    1  A    between atoms: C3_3  and  C4_4 
REMARK    2  A    between atoms: C4_4  and  C5_6 
REMARK    3  A    between atoms: C5_6  and  N1_7 
REMARK    4  A    between atoms: C5_6  and  C6_11 
REMARK    5  A    between atoms: C6_11  and  C7_12 
REMARK    6  A    between atoms: C6_11  and  C9_15 
REMARK    7  A    between atoms: C7_12  and  C8_13 
REMARK    8  A    between atoms: N3_18  and  C10_19 
REMARK    9  A    between atoms: C11_22  and  N5_23 
REMARK   10  A    between atoms: C12_28  and  N7_29 
REMARK   11  A    between atoms: C14_34  and  N8_35 
REMARK   12  A    between atoms: C15_43  and  C16_44 
REMARK   13  A    between atoms: C16_44  and  O3_45 
REMARK   14  A    between atoms: C16_44  and  C17_47 
REMARK   15  A    between atoms: C17_47  and  O4_48 
ROOT
HETATM    1  C9  UNL     1      57.452  11.127  29.292  1.00  0.00     0.145 A 
HETATM    2  N2  UNL     1      57.635  12.324  29.865  1.00  0.00    -0.262 N 
ATOM      3  H2  UNL     1      57.026  13.130  29.726  1.00  0.00     0.190 HD
HETATM    4  N3  UNL     1      58.730  12.321  30.648  1.00  0.00    -0.065 N 
HETATM    5  C14 UNL     1      59.220  11.059  30.535  1.00  0.00     0.700 A 
HETATM    6  N9  UNL     1      58.426  10.330  29.697  1.00  0.00    -0.173 N 
ATOM      7  H9  UNL     1      58.559   9.353  29.433  1.00  0.00     0.186 HD
ENDROOT
BRANCH   1   8
HETATM    8  C6  UNL     1      56.310  10.750  28.367  1.00  0.00     0.024 C 
BRANCH   8   9
HETATM    9  C5  UNL     1      55.669   9.465  28.695  1.00  0.00     0.295 C 
BRANCH   9  10
HETATM   10  C4  UNL     1      54.829   8.744  27.767  1.00  0.00     0.213 C 
HETATM   11  O1  UNL     1      53.872   9.339  27.171  1.00  0.00    -0.288 OA
BRANCH  10  12
HETATM   12  C3  UNL     1      54.951   7.301  27.420  1.00  0.00     0.112 A 
HETATM   13  C2  UNL     1      56.050   6.704  26.785  1.00  0.00     0.009 A 
HETATM   14  C1  UNL     1      57.395   7.331  26.609  1.00  0.00     0.054 C 
HETATM   15  C15 UNL     1      55.722   5.360  26.516  1.00  0.00     0.138 A 
HETATM   16  O2  UNL     1      54.516   5.201  26.986  1.00  0.00    -0.234 OA
HETATM   17  N10 UNL     1      54.067   6.313  27.505  1.00  0.00    -0.256 N 
ATOM     18  H10 UNL     1      53.145   6.411  27.928  1.00  0.00     0.195 HD
BRANCH  15  19
HETATM   19  C16 UNL     1      56.649   4.468  25.810  1.00  0.00     0.103 C 
BRANCH  19  20
HETATM   20  O3  UNL     1      57.839   4.173  26.373  1.00  0.00    -0.360 OA
ATOM     21  H3  UNL     1      58.208   3.305  26.255  1.00  0.00     0.217 HD
ENDBRANCH  19  20
BRANCH  19  22
HETATM   22  C17 UNL     1      56.047   3.436  24.867  1.00  0.00     0.231 C 
BRANCH  22  23
HETATM   23  O4  UNL     1      55.148   3.946  23.983  1.00  0.00    -0.394 OA
ATOM     24  H4  UNL     1      54.552   4.584  24.356  1.00  0.00     0.209 HD
ENDBRANCH  22  23
ENDBRANCH  19  22
ENDBRANCH  15  19
ENDBRANCH  10  12
ENDBRANCH   9  10
BRANCH   9  25
HETATM   25  N1  UNL     1      55.006   9.515  30.033  1.00  0.00    -0.064 N 
ATOM     26  H13 UNL     1      54.138   8.980  30.054  1.00  0.00     0.275 HD
ATOM     27  H12 UNL     1      55.521   8.987  30.738  1.00  0.00     0.275 HD
ATOM     28  H11 UNL     1      54.866  10.488  30.307  1.00  0.00     0.275 HD
ENDBRANCH   9  25
ENDBRANCH   8   9
BRANCH   8  29
HETATM   29  C7  UNL     1      55.570  11.923  27.931  1.00  0.00     0.017 C 
BRANCH  29  30
HETATM   30  C8  UNL     1      56.012  12.838  26.871  1.00  0.00     0.250 C 
HETATM   31  F1  UNL     1      56.904  13.841  27.256  1.00  0.00    -0.251 F 
ENDBRANCH  29  30
ENDBRANCH   8  29
ENDBRANCH   1   8
BRANCH   4  32
HETATM   32  C10 UNL     1      59.324  13.381  31.410  1.00  0.00     0.203 A 
HETATM   33  N4  UNL     1      60.664  13.424  31.634  1.00  0.00    -0.171 N 
HETATM   34  C11 UNL     1      61.249  14.354  32.376  1.00  0.00     0.679 A 
ATOM     35  H4  UNL     1      61.249  12.704  31.210  1.00  0.00     0.186 HD
HETATM   36  N6  UNL     1      60.470  15.313  32.942  1.00  0.00    -0.174 N 
HETATM   37  C12 UNL     1      59.129  15.363  32.784  1.00  0.00     0.157 A 
ATOM     38  H6  UNL     1      60.919  16.029  33.512  1.00  0.00     0.186 HD
HETATM   39  C13 UNL     1      58.553  14.362  31.991  1.00  0.00     0.207 A 
HETATM   40  F2  UNL     1      57.212  14.467  31.844  1.00  0.00    -0.198 F 
BRANCH  34  41
HETATM   41  N5  UNL     1      62.547  14.340  32.585  1.00  0.00    -0.234 N 
ATOM     42  H52 UNL     1      62.956  13.694  33.259  1.00  0.00     0.174 HD
ATOM     43  H51 UNL     1      63.171  14.957  32.066  1.00  0.00     0.174 HD
ENDBRANCH  34  41
BRANCH  37  44
HETATM   44  N7  UNL     1      58.450  16.298  33.343  1.00  0.00    -0.382 N 
ATOM     45  H72 UNL     1      58.853  16.968  33.997  1.00  0.00     0.157 HD
ATOM     46  H71 UNL     1      57.454  16.395  33.143  1.00  0.00     0.157 HD
ENDBRANCH  37  44
ENDBRANCH   4  32
BRANCH   5  47
HETATM   47  N8  UNL     1      60.291  10.597  31.120  1.00  0.00    -0.233 N 
ATOM     48  H82 UNL     1      60.283   9.897  31.862  1.00  0.00     0.174 HD
ATOM     49  H81 UNL     1      61.253  10.865  30.909  1.00  0.00     0.174 HD
ENDBRANCH   5  47
TORSDOF 15
ENDMDL
MODEL 5
REMARK VINA RESULT: -3.171588444      2.357      3.406
REMARK  15 active torsions:
REMARK  status: ('A' for Active; 'I' for Inactive)
REMARK    1  A    between atoms: C3_3  and  C4_4 
REMARK    2  A    between atoms: C4_4  and  C5_6 
REMARK    3  A    between atoms: C5_6  and  N1_7 
REMARK    4  A    between atoms: C5_6  and  C6_11 
REMARK    5  A    between atoms: C6_11  and  C7_12 
REMARK    6  A    between atoms: C6_11  and  C9_15 
REMARK    7  A    between atoms: C7_12  and  C8_13 
REMARK    8  A    between atoms: N3_18  and  C10_19 
REMARK    9  A    between atoms: C11_22  and  N5_23 
REMARK   10  A    between atoms: C12_28  and  N7_29 
REMARK   11  A    between atoms: C14_34  and  N8_35 
REMARK   12  A    between atoms: C15_43  and  C16_44 
REMARK   13  A    between atoms: C16_44  and  O3_45 
REMARK   14  A    between atoms: C16_44  and  C17_47 
REMARK   15  A    between atoms: C17_47  and  O4_48 
ROOT
HETATM    1  C9  UNL     1      57.362  11.845  28.912  1.00  0.00     0.145 A 
HETATM    2  N2  UNL     1      57.683  12.970  29.564  1.00  0.00    -0.262 N 
ATOM      3  H2  UNL     1      57.243  13.875  29.403  1.00  0.00     0.190 HD
HETATM    4  N3  UNL     1      58.662  12.745  30.460  1.00  0.00    -0.065 N 
HETATM    5  C14 UNL     1      58.936  11.420  30.333  1.00  0.00     0.700 A 
HETATM    6  N9  UNL     1      58.130  10.873  29.377  1.00  0.00    -0.173 N 
ATOM      7  H9  UNL     1      58.122   9.897  29.077  1.00  0.00     0.186 HD
ENDROOT
BRANCH   1   8
HETATM    8  C6  UNL     1      56.288  11.708  27.850  1.00  0.00     0.024 C 
BRANCH   8   9
HETATM    9  C5  UNL     1      55.224  10.748  28.189  1.00  0.00     0.295 C 
BRANCH   9  10
HETATM   10  C4  UNL     1      55.491   9.421  28.695  1.00  0.00     0.213 C 
HETATM   11  O1  UNL     1      55.287   9.150  29.924  1.00  0.00    -0.288 OA
BRANCH  10  12
HETATM   12  C3  UNL     1      56.019   8.275  27.904  1.00  0.00     0.112 A 
HETATM   13  C2  UNL     1      55.312   7.105  27.590  1.00  0.00     0.009 A 
HETATM   14  C1  UNL     1      53.837   6.919  27.733  1.00  0.00     0.054 C 
HETATM   15  C15 UNL     1      56.200   6.218  26.949  1.00  0.00     0.138 A 
HETATM   16  O2  UNL     1      57.336   6.854  26.887  1.00  0.00    -0.234 OA
HETATM   17  N10 UNL     1      57.239   8.036  27.436  1.00  0.00    -0.256 N 
ATOM     18  H10 UNL     1      58.011   8.700  27.497  1.00  0.00     0.195 HD
BRANCH  15  19
HETATM   19  C16 UNL     1      55.778   4.875  26.531  1.00  0.00     0.103 C 
BRANCH  19  20
HETATM   20  O3  UNL     1      54.557   4.425  26.887  1.00  0.00    -0.360 OA
ATOM     21  H3  UNL     1      53.804   4.997  26.790  1.00  0.00     0.217 HD
ENDBRANCH  19  20
BRANCH  19  22
HETATM   22  C17 UNL     1      56.382   4.319  25.250  1.00  0.00     0.231 C 
BRANCH  22  23
HETATM   23  O4  UNL     1      57.728   4.127  25.303  1.00  0.00    -0.394 OA
ATOM     24  H4  UNL     1      58.087   4.123  26.183  1.00  0.00     0.209 HD
ENDBRANCH  22  23
ENDBRANCH  19  22
ENDBRANCH  15  19
ENDBRANCH  10  12
ENDBRANCH   9  10
BRANCH   9  25
HETATM   25  N1  UNL     1      54.196  10.671  27.107  1.00  0.00    -0.064 N 
ATOM     26  H13 UNL     1      54.530  11.070  26.230  1.00  0.00     0.275 HD
ATOM     27  H12 UNL     1      54.046   9.715  26.786  1.00  0.00     0.275 HD
ATOM     28  H11 UNL     1      53.333  11.111  27.427  1.00  0.00     0.275 HD
ENDBRANCH   9  25
ENDBRANCH   8   9
BRANCH   8  29
HETATM   29  C7  UNL     1      56.036  12.975  27.184  1.00  0.00     0.017 C 
BRANCH  29  30
HETATM   30  C8  UNL     1      55.504  13.107  25.821  1.00  0.00     0.250 C 
HETATM   31  F1  UNL     1      56.413  13.518  24.844  1.00  0.00    -0.251 F 
ENDBRANCH  29  30
ENDBRANCH   8  29
ENDBRANCH   1   8
BRANCH   4  32
HETATM   32  C10 UNL     1      59.339  13.655  31.337  1.00  0.00     0.203 A 
HETATM   33  N4  UNL     1      60.684  13.593  31.520  1.00  0.00    -0.171 N 
HETATM   34  C11 UNL     1      61.343  14.378  32.361  1.00  0.00     0.679 A 
ATOM     35  H4  UNL     1      61.214  12.905  30.984  1.00  0.00     0.186 HD
HETATM   36  N6  UNL     1      60.638  15.293  33.076  1.00  0.00    -0.174 N 
HETATM   37  C12 UNL     1      59.300  15.439  32.972  1.00  0.00     0.157 A 
ATOM     38  H6  UNL     1      61.144  15.898  33.722  1.00  0.00     0.186 HD
HETATM   39  C13 UNL     1      58.644  14.591  32.071  1.00  0.00     0.207 A 
HETATM   40  F2  UNL     1      57.308  14.790  31.985  1.00  0.00    -0.198 F 
BRANCH  34  41
HETATM   41  N5  UNL     1      62.643  14.262  32.522  1.00  0.00    -0.234 N 
ATOM     42  H52 UNL     1      63.282  14.900  32.048  1.00  0.00     0.174 HD
ATOM     43  H51 UNL     1      63.036  13.548  33.134  1.00  0.00     0.174 HD
ENDBRANCH  34  41
BRANCH  37  44
HETATM   44  N7  UNL     1      58.693  16.326  33.674  1.00  0.00    -0.382 N 
ATOM     45  H72 UNL     1      59.153  17.157  34.044  1.00  0.00     0.157 HD
ATOM     46  H71 UNL     1      57.702  16.217  33.891  1.00  0.00     0.157 HD
ENDBRANCH  37  44
ENDBRANCH   4  32
BRANCH   5  47
HETATM   47  N8  UNL     1      59.835  10.756  31.005  1.00  0.00    -0.233 N 
ATOM     48  H82 UNL     1      60.827  10.729  30.768  1.00  0.00     0.174 HD
ATOM     49  H81 UNL     1      59.667  10.196  31.842  1.00  0.00     0.174 HD
ENDBRANCH   5  47
TORSDOF 15
ENDMDL
