MODEL 1
REMARK VINA RESULT: -8.290240955      0.000      0.000
REMARK  9 active torsions:
REMARK  status: ('A' for Active; 'I' for Inactive)
REMARK    1  A    between atoms: C2_2  and  C3_3 
REMARK    2  A    between atoms: C3_3  and  C4_4 
REMARK    3  A    between atoms: C3_3  and  O4_29 
REMARK    4  A    between atoms: C4_4  and  C5_5 
REMARK    5  A    between atoms: C9_11  and  O1_12 
REMARK    6  A    between atoms: C15_19  and  O2_20 
REMARK    7  A    between atoms: O2_20  and  C16_21 
REMARK       I    between atoms: C16_21  and  N2_23 
REMARK    8  A    between atoms: N2_23  and  C17_25 
REMARK    9  A    between atoms: O4_29  and  C21_30 
ROOT
HETATM    1  C5  UNL     1     -11.837  -8.339  36.843  1.00  0.00     0.033 C 
HETATM    2  C6  UNL     1     -11.795  -9.693  36.338  1.00  0.00     0.006 A 
HETATM    3  C7  UNL     1     -13.055 -10.123  35.996  1.00  0.00    -0.023 A 
HETATM    4  C8  UNL     1     -12.942 -11.408  35.534  1.00  0.00     0.099 A 
HETATM    5  N1  UNL     1     -11.666 -11.811  35.562  1.00  0.00    -0.346 N 
ATOM      6  H1  UNL     1     -11.297 -12.718  35.276  1.00  0.00     0.167 HD
HETATM    7  C9  UNL     1     -10.969 -10.756  36.052  1.00  0.00     0.147 A 
HETATM    8  C10 UNL     1     -14.023  -9.008  36.203  1.00  0.00    -0.008 C 
HETATM    9  C11 UNL     1     -14.844  -9.314  37.416  1.00  0.00     0.021 C 
HETATM   10  C12 UNL     1     -14.993  -9.035  35.041  1.00  0.00     0.014 C 
HETATM   11  C13 UNL     1     -14.201  -8.791  33.784  1.00  0.00     0.004 C 
HETATM   12  C14 UNL     1     -13.798  -7.346  33.858  1.00  0.00     0.033 C 
HETATM   13  C15 UNL     1     -12.924  -7.018  35.031  1.00  0.00     0.139 C 
HETATM   14  C20 UNL     1     -13.184  -7.785  36.266  1.00  0.00     0.037 C 
ENDROOT
BRANCH   1  15
HETATM   15  C4  UNL     1     -11.832  -8.172  38.305  1.00  0.00     0.042 C 
BRANCH  15  16
HETATM   16  C3  UNL     1     -12.103  -6.890  38.976  1.00  0.00     0.132 C 
BRANCH  16  17
HETATM   17  C2  UNL     1     -13.319  -7.171  39.982  1.00  0.00     0.028 C 
HETATM   18  C1  UNL     1     -14.411  -6.254  39.525  1.00  0.00     0.007 C 
ENDBRANCH  16  17
BRANCH  16  19
HETATM   19  O4  UNL     1     -11.157  -6.370  39.853  1.00  0.00    -0.316 OA
BRANCH  19  20
HETATM   20  C21 UNL     1     -10.345  -5.280  39.457  1.00  0.00     0.255 C 
HETATM   21  C22 UNL     1     -10.269  -4.156  40.421  1.00  0.00     0.126 C 
HETATM   22  O5  UNL     1      -9.744  -5.298  38.358  1.00  0.00    -0.266 OA
ENDBRANCH  19  20
ENDBRANCH  16  19
ENDBRANCH  15  16
ENDBRANCH   1  15
BRANCH   7  23
HETATM   23  O1  UNL     1      -9.586 -10.852  36.197  1.00  0.00    -0.346 OA
ATOM     24  H1  UNL     1      -9.029 -10.471  36.865  1.00  0.00     0.219 HD
ENDBRANCH   7  23
BRANCH  13  25
HETATM   25  O2  UNL     1     -11.572  -6.852  34.724  1.00  0.00    -0.298 OA
BRANCH  25  26
HETATM   26  C16 UNL     1     -10.910  -5.690  34.419  1.00  0.00     0.361 C 
HETATM   27  O3  UNL     1     -11.160  -5.249  33.273  1.00  0.00    -0.238 OA
HETATM   28  N2  UNL     1     -10.017  -5.023  35.302  1.00  0.00    -0.333 N 
ATOM     29  H2  UNL     1      -9.823  -5.392  36.233  1.00  0.00     0.165 HD
BRANCH  28  30
HETATM   30  C17 UNL     1      -9.395  -3.805  34.835  1.00  0.00     0.078 C 
HETATM   31  C18 UNL     1      -9.332  -2.751  35.929  1.00  0.00     0.032 C 
HETATM   32  C19 UNL     1      -8.007  -4.163  34.362  1.00  0.00     0.032 C 
ENDBRANCH  28  30
ENDBRANCH  25  26
ENDBRANCH  13  25
TORSDOF 9
ENDMDL
MODEL 2
REMARK VINA RESULT: -8.205511973      2.196      6.042
REMARK  9 active torsions:
REMARK  status: ('A' for Active; 'I' for Inactive)
REMARK    1  A    between atoms: C2_2  and  C3_3 
REMARK    2  A    between atoms: C3_3  and  C4_4 
REMARK    3  A    between atoms: C3_3  and  O4_29 
REMARK    4  A    between atoms: C4_4  and  C5_5 
REMARK    5  A    between atoms: C9_11  and  O1_12 
REMARK    6  A    between atoms: C15_19  and  O2_20 
REMARK    7  A    between atoms: O2_20  and  C16_21 
REMARK       I    between atoms: C16_21  and  N2_23 
REMARK    8  A    between atoms: N2_23  and  C17_25 
REMARK    9  A    between atoms: O4_29  and  C21_30 
ROOT
HETATM    1  C5  UNL     1     -11.413  -5.714  37.135  1.00  0.00     0.033 C 
HETATM    2  C6  UNL     1     -10.687  -5.229  38.287  1.00  0.00     0.006 A 
HETATM    3  C7  UNL     1     -11.530  -5.066  39.360  1.00  0.00    -0.023 A 
HETATM    4  C8  UNL     1     -10.781  -4.601  40.408  1.00  0.00     0.099 A 
HETATM    5  N1  UNL     1      -9.499  -4.466  40.050  1.00  0.00    -0.346 N 
ATOM      6  H1  UNL     1      -8.726  -4.141  40.631  1.00  0.00     0.167 HD
HETATM    7  C9  UNL     1      -9.447  -4.854  38.752  1.00  0.00     0.147 A 
HETATM    8  C10 UNL     1     -12.899  -5.518  38.975  1.00  0.00    -0.008 C 
HETATM    9  C11 UNL     1     -13.766  -4.310  38.811  1.00  0.00     0.021 C 
HETATM   10  C12 UNL     1     -13.472  -6.269  40.158  1.00  0.00     0.014 C 
HETATM   11  C13 UNL     1     -12.593  -7.467  40.404  1.00  0.00     0.004 C 
HETATM   12  C14 UNL     1     -12.870  -8.388  39.249  1.00  0.00     0.033 C 
HETATM   13  C15 UNL     1     -12.511  -7.812  37.913  1.00  0.00     0.139 C 
HETATM   14  C20 UNL     1     -12.697  -6.354  37.766  1.00  0.00     0.037 C 
ENDROOT
BRANCH   1  15
HETATM   15  C4  UNL     1     -11.813  -4.717  36.129  1.00  0.00     0.042 C 
BRANCH  15  16
HETATM   16  C3  UNL     1     -11.060  -4.467  34.890  1.00  0.00     0.132 C 
BRANCH  16  17
HETATM   17  C2  UNL     1     -12.161  -4.258  33.743  1.00  0.00     0.028 C 
HETATM   18  C1  UNL     1     -11.422  -4.482  32.461  1.00  0.00     0.007 C 
ENDBRANCH  16  17
BRANCH  16  19
HETATM   19  O4  UNL     1     -10.331  -3.289  34.765  1.00  0.00    -0.316 OA
BRANCH  19  20
HETATM   20  C21 UNL     1      -8.972  -3.250  35.161  1.00  0.00     0.255 C 
HETATM   21  C22 UNL     1      -8.048  -4.085  34.356  1.00  0.00     0.126 C 
HETATM   22  O5  UNL     1      -8.610  -2.547  36.132  1.00  0.00    -0.266 OA
ENDBRANCH  19  20
ENDBRANCH  16  19
ENDBRANCH  15  16
ENDBRANCH   1  15
BRANCH   7  23
HETATM   23  O1  UNL     1      -8.227  -4.841  38.078  1.00  0.00    -0.346 OA
ATOM     24  H1  UNL     1      -7.864  -4.165  37.517  1.00  0.00     0.219 HD
ENDBRANCH   7  23
BRANCH  13  25
HETATM   25  O2  UNL     1     -11.326  -8.305  37.362  1.00  0.00    -0.298 OA
BRANCH  25  26
HETATM   26  C16 UNL     1     -11.154  -9.427  36.592  1.00  0.00     0.361 C 
HETATM   27  O3  UNL     1     -10.255 -10.195  37.007  1.00  0.00    -0.238 OA
HETATM   28  N2  UNL     1     -11.911  -9.718  35.424  1.00  0.00    -0.333 N 
ATOM     29  H2  UNL     1     -12.641  -9.084  35.097  1.00  0.00     0.165 HD
BRANCH  28  30
HETATM   30  C17 UNL     1     -11.612 -10.943  34.718  1.00  0.00     0.078 C 
HETATM   31  C18 UNL     1     -12.614 -12.039  35.043  1.00  0.00     0.032 C 
HETATM   32  C19 UNL     1     -11.632 -10.626  33.242  1.00  0.00     0.032 C 
ENDBRANCH  28  30
ENDBRANCH  25  26
ENDBRANCH  13  25
TORSDOF 9
ENDMDL
MODEL 3
REMARK VINA RESULT: -8.144975857      3.598      6.028
REMARK  9 active torsions:
REMARK  status: ('A' for Active; 'I' for Inactive)
REMARK    1  A    between atoms: C2_2  and  C3_3 
REMARK    2  A    between atoms: C3_3  and  C4_4 
REMARK    3  A    between atoms: C3_3  and  O4_29 
REMARK    4  A    between atoms: C4_4  and  C5_5 
REMARK    5  A    between atoms: C9_11  and  O1_12 
REMARK    6  A    between atoms: C15_19  and  O2_20 
REMARK    7  A    between atoms: O2_20  and  C16_21 
REMARK       I    between atoms: C16_21  and  N2_23 
REMARK    8  A    between atoms: N2_23  and  C17_25 
REMARK    9  A    between atoms: O4_29  and  C21_30 
ROOT
HETATM    1  C5  UNL     1     -10.595  -3.475  38.072  1.00  0.00     0.033 C 
HETATM    2  C6  UNL     1     -10.794  -4.904  37.984  1.00  0.00     0.006 A 
HETATM    3  C7  UNL     1     -11.387  -5.384  39.128  1.00  0.00    -0.023 A 
HETATM    4  C8  UNL     1     -11.539  -6.737  38.978  1.00  0.00     0.099 A 
HETATM    5  N1  UNL     1     -11.075  -7.137  37.789  1.00  0.00    -0.346 N 
ATOM      6  H1  UNL     1     -11.063  -8.087  37.417  1.00  0.00     0.167 HD
HETATM    7  C9  UNL     1     -10.622  -6.011  37.184  1.00  0.00     0.147 A 
HETATM    8  C10 UNL     1     -11.683  -4.241  40.038  1.00  0.00    -0.008 C 
HETATM    9  C11 UNL     1     -10.716  -4.283  41.179  1.00  0.00     0.021 C 
HETATM   10  C12 UNL     1     -13.043  -4.496  40.652  1.00  0.00     0.014 C 
HETATM   11  C13 UNL     1     -14.048  -4.524  39.531  1.00  0.00     0.004 C 
HETATM   12  C14 UNL     1     -14.146  -3.098  39.068  1.00  0.00     0.033 C 
HETATM   13  C15 UNL     1     -12.861  -2.544  38.530  1.00  0.00     0.139 C 
HETATM   14  C20 UNL     1     -11.625  -3.039  39.169  1.00  0.00     0.037 C 
ENDROOT
BRANCH   1  15
HETATM   15  C4  UNL     1      -9.252  -3.011  38.457  1.00  0.00     0.042 C 
BRANCH  15  16
HETATM   16  C3  UNL     1      -8.150  -2.834  37.498  1.00  0.00     0.132 C 
BRANCH  16  17
HETATM   17  C2  UNL     1      -6.800  -2.946  38.358  1.00  0.00     0.028 C 
HETATM   18  C1  UNL     1      -6.748  -4.375  38.800  1.00  0.00     0.007 C 
ENDBRANCH  16  17
BRANCH  16  19
HETATM   19  O4  UNL     1      -7.924  -3.813  36.536  1.00  0.00    -0.316 OA
BRANCH  19  20
HETATM   20  C21 UNL     1      -8.208  -3.549  35.174  1.00  0.00     0.255 C 
HETATM   21  C22 UNL     1      -9.343  -2.628  34.925  1.00  0.00     0.126 C 
HETATM   22  O5  UNL     1      -7.526  -4.077  34.267  1.00  0.00    -0.266 OA
ENDBRANCH  19  20
ENDBRANCH  16  19
ENDBRANCH  15  16
ENDBRANCH   1  15
BRANCH   7  23
HETATM   23  O1  UNL     1     -10.078  -6.089  35.903  1.00  0.00    -0.346 OA
ATOM     24  H1  UNL     1     -10.519  -6.236  35.076  1.00  0.00     0.219 HD
ENDBRANCH   7  23
BRANCH  13  25
HETATM   25  O2  UNL     1     -12.800  -2.457  37.138  1.00  0.00    -0.298 OA
BRANCH  25  26
HETATM   26  C16 UNL     1     -12.901  -1.336  36.354  1.00  0.00     0.361 C 
HETATM   27  O3  UNL     1     -12.879  -0.262  36.999  1.00  0.00    -0.238 OA
HETATM   28  N2  UNL     1     -13.021  -1.359  34.938  1.00  0.00    -0.333 N 
ATOM     29  H2  UNL     1     -13.038  -2.241  34.424  1.00  0.00     0.165 HD
BRANCH  28  30
HETATM   30  C17 UNL     1     -13.119  -0.091  34.251  1.00  0.00     0.078 C 
HETATM   31  C18 UNL     1     -12.474  -0.146  32.876  1.00  0.00     0.032 C 
HETATM   32  C19 UNL     1     -14.586   0.246  34.136  1.00  0.00     0.032 C 
ENDBRANCH  28  30
ENDBRANCH  25  26
ENDBRANCH  13  25
TORSDOF 9
ENDMDL
MODEL 4
REMARK VINA RESULT: -8.142638778      2.152      6.604
REMARK  9 active torsions:
REMARK  status: ('A' for Active; 'I' for Inactive)
REMARK    1  A    between atoms: C2_2  and  C3_3 
REMARK    2  A    between atoms: C3_3  and  C4_4 
REMARK    3  A    between atoms: C3_3  and  O4_29 
REMARK    4  A    between atoms: C4_4  and  C5_5 
REMARK    5  A    between atoms: C9_11  and  O1_12 
REMARK    6  A    between atoms: C15_19  and  O2_20 
REMARK    7  A    between atoms: O2_20  and  C16_21 
REMARK       I    between atoms: C16_21  and  N2_23 
REMARK    8  A    between atoms: N2_23  and  C17_25 
REMARK    9  A    between atoms: O4_29  and  C21_30 
ROOT
HETATM    1  C5  UNL     1     -10.913  -5.325  36.460  1.00  0.00     0.033 C 
HETATM    2  C6  UNL     1      -9.745  -4.526  36.753  1.00  0.00     0.006 A 
HETATM    3  C7  UNL     1     -10.061  -3.502  37.614  1.00  0.00    -0.023 A 
HETATM    4  C8  UNL     1      -8.916  -2.785  37.842  1.00  0.00     0.099 A 
HETATM    5  N1  UNL     1      -7.886  -3.312  37.169  1.00  0.00    -0.346 N 
ATOM      6  H1  UNL     1      -6.921  -2.981  37.157  1.00  0.00     0.167 HD
HETATM    7  C9  UNL     1      -8.398  -4.378  36.507  1.00  0.00     0.147 A 
HETATM    8  C10 UNL     1     -11.496  -3.617  38.002  1.00  0.00    -0.008 C 
HETATM    9  C11 UNL     1     -12.262  -2.536  37.307  1.00  0.00     0.021 C 
HETATM   10  C12 UNL     1     -11.589  -3.294  39.478  1.00  0.00     0.014 C 
HETATM   11  C13 UNL     1     -10.780  -4.324  40.220  1.00  0.00     0.004 C 
HETATM   12  C14 UNL     1     -11.572  -5.595  40.099  1.00  0.00     0.033 C 
HETATM   13  C15 UNL     1     -11.750  -6.068  38.687  1.00  0.00     0.139 C 
HETATM   14  C20 UNL     1     -11.870  -5.013  37.661  1.00  0.00     0.037 C 
ENDROOT
BRANCH   1  15
HETATM   15  C4  UNL     1     -11.614  -5.045  35.197  1.00  0.00     0.042 C 
BRANCH  15  16
HETATM   16  C3  UNL     1     -11.267  -5.685  33.917  1.00  0.00     0.132 C 
BRANCH  16  17
HETATM   17  C2  UNL     1     -11.386  -4.534  32.807  1.00  0.00     0.028 C 
HETATM   18  C1  UNL     1     -12.003  -3.375  33.525  1.00  0.00     0.007 C 
ENDBRANCH  16  17
BRANCH  16  19
HETATM   19  O4  UNL     1      -9.961  -6.113  33.706  1.00  0.00    -0.316 OA
BRANCH  19  20
HETATM   20  C21 UNL     1      -9.609  -7.464  33.945  1.00  0.00     0.255 C 
HETATM   21  C22 UNL     1     -10.190  -8.451  33.003  1.00  0.00     0.126 C 
HETATM   22  O5  UNL     1      -8.855  -7.768  34.897  1.00  0.00    -0.266 OA
ENDBRANCH  19  20
ENDBRANCH  16  19
ENDBRANCH  15  16
ENDBRANCH   1  15
BRANCH   7  23
HETATM   23  O1  UNL     1      -7.564  -5.160  35.710  1.00  0.00    -0.346 OA
ATOM     24  H1  UNL     1      -6.629  -5.302  35.787  1.00  0.00     0.219 HD
ENDBRANCH   7  23
BRANCH  13  25
HETATM   25  O2  UNL     1     -10.935  -7.142  38.323  1.00  0.00    -0.298 OA
BRANCH  25  26
HETATM   26  C16 UNL     1     -11.317  -8.394  37.914  1.00  0.00     0.361 C 
HETATM   27  O3  UNL     1     -11.486  -9.206  38.852  1.00  0.00    -0.238 OA
HETATM   28  N2  UNL     1     -11.514  -8.764  36.555  1.00  0.00    -0.333 N 
ATOM     29  H2  UNL     1     -11.374  -8.093  35.799  1.00  0.00     0.165 HD
BRANCH  28  30
HETATM   30  C17 UNL     1     -11.919 -10.125  36.281  1.00  0.00     0.078 C 
HETATM   31  C18 UNL     1     -13.089 -10.179  35.312  1.00  0.00     0.032 C 
HETATM   32  C19 UNL     1     -10.721 -10.843  35.710  1.00  0.00     0.032 C 
ENDBRANCH  28  30
ENDBRANCH  25  26
ENDBRANCH  13  25
TORSDOF 9
ENDMDL
MODEL 5
REMARK VINA RESULT: -8.125366166      2.067      3.715
REMARK  9 active torsions:
REMARK  status: ('A' for Active; 'I' for Inactive)
REMARK    1  A    between atoms: C2_2  and  C3_3 
REMARK    2  A    between atoms: C3_3  and  C4_4 
REMARK    3  A    between atoms: C3_3  and  O4_29 
REMARK    4  A    between atoms: C4_4  and  C5_5 
REMARK    5  A    between atoms: C9_11  and  O1_12 
REMARK    6  A    between atoms: C15_19  and  O2_20 
REMARK    7  A    between atoms: O2_20  and  C16_21 
REMARK       I    between atoms: C16_21  and  N2_23 
REMARK    8  A    between atoms: N2_23  and  C17_25 
REMARK    9  A    between atoms: O4_29  and  C21_30 
ROOT
HETATM    1  C5  UNL     1     -12.572  -7.729  36.549  1.00  0.00     0.033 C 
HETATM    2  C6  UNL     1     -11.572  -8.663  37.017  1.00  0.00     0.006 A 
HETATM    3  C7  UNL     1     -10.847  -9.167  35.964  1.00  0.00    -0.023 A 
HETATM    4  C8  UNL     1      -9.929 -10.044  36.476  1.00  0.00     0.099 A 
HETATM    5  N1  UNL     1     -10.034 -10.116  37.808  1.00  0.00    -0.346 N 
ATOM      6  H1  UNL     1      -9.477 -10.688  38.443  1.00  0.00     0.167 HD
HETATM    7  C9  UNL     1     -11.040  -9.267  38.134  1.00  0.00     0.147 A 
HETATM    8  C10 UNL     1     -11.304  -8.514  34.703  1.00  0.00    -0.008 C 
HETATM    9  C11 UNL     1     -12.100  -9.509  33.918  1.00  0.00     0.021 C 
HETATM   10  C12 UNL     1     -10.071  -8.236  33.870  1.00  0.00     0.014 C 
HETATM   11  C13 UNL     1      -9.204  -7.281  34.648  1.00  0.00     0.004 C 
HETATM   12  C14 UNL     1      -9.944  -5.974  34.611  1.00  0.00     0.033 C 
HETATM   13  C15 UNL     1     -11.292  -6.019  35.264  1.00  0.00     0.139 C 
HETATM   14  C20 UNL     1     -12.026  -7.296  35.146  1.00  0.00     0.037 C 
ENDROOT
BRANCH   1  15
HETATM   15  C4  UNL     1     -13.944  -8.239  36.399  1.00  0.00     0.042 C 
BRANCH  15  16
HETATM   16  C3  UNL     1     -14.801  -8.610  37.537  1.00  0.00     0.132 C 
BRANCH  16  17
HETATM   17  C2  UNL     1     -14.921 -10.209  37.490  1.00  0.00     0.028 C 
HETATM   18  C1  UNL     1     -14.934 -10.547  36.032  1.00  0.00     0.007 C 
ENDBRANCH  16  17
BRANCH  16  19
HETATM   19  O4  UNL     1     -14.327  -8.424  38.831  1.00  0.00    -0.316 OA
BRANCH  19  20
HETATM   20  C21 UNL     1     -14.200  -7.117  39.359  1.00  0.00     0.255 C 
HETATM   21  C22 UNL     1     -15.380  -6.237  39.182  1.00  0.00     0.126 C 
HETATM   22  O5  UNL     1     -13.144  -6.760  39.932  1.00  0.00    -0.266 OA
ENDBRANCH  19  20
ENDBRANCH  16  19
ENDBRANCH  15  16
ENDBRANCH   1  15
BRANCH   7  23
HETATM   23  O1  UNL     1     -11.396  -9.102  39.471  1.00  0.00    -0.346 OA
ATOM     24  H1  UNL     1     -12.252  -8.925  39.842  1.00  0.00     0.219 HD
ENDBRANCH   7  23
BRANCH  13  25
HETATM   25  O2  UNL     1     -11.349  -5.432  36.530  1.00  0.00    -0.298 OA
BRANCH  25  26
HETATM   26  C16 UNL     1     -10.440  -4.586  37.112  1.00  0.00     0.361 C 
HETATM   27  O3  UNL     1     -10.580  -3.385  36.784  1.00  0.00    -0.238 OA
HETATM   28  N2  UNL     1      -9.420  -5.005  38.010  1.00  0.00    -0.333 N 
ATOM     29  H2  UNL     1      -9.316  -5.986  38.270  1.00  0.00     0.165 HD
BRANCH  28  30
HETATM   30  C17 UNL     1      -8.536  -3.992  38.543  1.00  0.00     0.078 C 
HETATM   31  C18 UNL     1      -8.825  -3.708  40.008  1.00  0.00     0.032 C 
HETATM   32  C19 UNL     1      -7.123  -4.493  38.367  1.00  0.00     0.032 C 
ENDBRANCH  28  30
ENDBRANCH  25  26
ENDBRANCH  13  25
TORSDOF 9
ENDMDL
