MODEL 1
REMARK VINA RESULT: -6.078941739      0.000      0.000
REMARK  3 active torsions:
REMARK  status: ('A' for Active; 'I' for Inactive)
REMARK    1  A    between atoms: C2_2  and  O1_4 
REMARK    2  A    between atoms: C2_2  and  C4_8 
REMARK    3  A    between atoms: O1_4  and  N1_5 
ROOT
HETATM    1  C4  UNL     1       8.470  23.989  34.095  1.00  0.00     0.228 C 
HETATM    2  N2  UNL     1       7.402  23.077  34.141  1.00  0.00    -0.384 N 
ATOM      3  H2  UNL     1       7.347  22.372  34.877  1.00  0.00     0.156 HD
HETATM    4  C5  UNL     1       6.408  23.161  33.144  1.00  0.00     0.250 C 
HETATM    5  N3  UNL     1       6.842  23.788  31.914  1.00  0.00    -0.107 NA
HETATM    6  N4  UNL     1       7.389  25.018  32.242  1.00  0.00    -0.033 NA
HETATM    7  N5  UNL     1       8.442  24.955  33.081  1.00  0.00    -0.298 N 
ATOM      8  H5  UNL     1       9.217  25.611  32.977  1.00  0.00     0.179 HD
ENDROOT
BRANCH   1   9
HETATM    9  C2  UNL     1       8.700  24.721  35.427  1.00  0.00     0.119 C 
HETATM   10  C1  UNL     1       9.619  25.925  35.174  1.00  0.00     0.052 C 
HETATM   11  C3  UNL     1       7.413  25.170  36.038  1.00  0.00     0.052 C 
BRANCH   9  12
HETATM   12  O1  UNL     1       9.367  23.932  36.354  1.00  0.00    -0.273 OA
BRANCH  12  13
HETATM   13  N1  UNL     1       9.023  24.305  37.582  1.00  0.00    -0.310 N 
ATOM     14  H12 UNL     1       8.195  24.855  37.808  1.00  0.00     0.184 HD
ATOM     15  H11 UNL     1       9.713  23.957  38.248  1.00  0.00     0.184 HD
ENDBRANCH  12  13
ENDBRANCH   9  12
ENDBRANCH   1   9
TORSDOF 3
ENDMDL
MODEL 2
REMARK VINA RESULT: -5.764458443      1.037      1.410
REMARK  3 active torsions:
REMARK  status: ('A' for Active; 'I' for Inactive)
REMARK    1  A    between atoms: C2_2  and  O1_4 
REMARK    2  A    between atoms: C2_2  and  C4_8 
REMARK    3  A    between atoms: O1_4  and  N1_5 
ROOT
HETATM    1  C4  UNL     1       8.613  24.172  34.127  1.00  0.00     0.228 C 
HETATM    2  N2  UNL     1       7.635  23.179  33.952  1.00  0.00    -0.384 N 
ATOM      3  H2  UNL     1       7.616  22.352  34.548  1.00  0.00     0.156 HD
HETATM    4  C5  UNL     1       6.678  23.357  32.930  1.00  0.00     0.250 C 
HETATM    5  N3  UNL     1       7.101  24.229  31.856  1.00  0.00    -0.107 NA
HETATM    6  N4  UNL     1       7.516  25.422  32.426  1.00  0.00    -0.033 NA
HETATM    7  N5  UNL     1       8.536  25.300  33.299  1.00  0.00    -0.298 N 
ATOM      8  H5  UNL     1       9.250  26.026  33.356  1.00  0.00     0.179 HD
ENDROOT
BRANCH   1   9
HETATM    9  C2  UNL     1       8.720  24.669  35.578  1.00  0.00     0.119 C 
HETATM   10  C1  UNL     1       7.327  25.112  36.049  1.00  0.00     0.052 C 
HETATM   11  C3  UNL     1       9.263  23.613  36.483  1.00  0.00     0.052 C 
BRANCH   9  12
HETATM   12  O1  UNL     1       9.526  25.794  35.692  1.00  0.00    -0.273 OA
BRANCH  12  13
HETATM   13  N1  UNL     1       9.557  26.190  36.960  1.00  0.00    -0.310 N 
ATOM     14  H12 UNL     1       9.262  25.617  37.751  1.00  0.00     0.184 HD
ATOM     15  H11 UNL     1       9.917  27.142  37.010  1.00  0.00     0.184 HD
ENDBRANCH  12  13
ENDBRANCH   9  12
ENDBRANCH   1   9
TORSDOF 3
ENDMDL
MODEL 3
REMARK VINA RESULT: -5.693266072      1.459      2.050
REMARK  3 active torsions:
REMARK  status: ('A' for Active; 'I' for Inactive)
REMARK    1  A    between atoms: C2_2  and  O1_4 
REMARK    2  A    between atoms: C2_2  and  C4_8 
REMARK    3  A    between atoms: O1_4  and  N1_5 
ROOT
HETATM    1  C4  UNL     1       7.903  25.223  34.238  1.00  0.00     0.228 C 
HETATM    2  N2  UNL     1       8.786  25.381  33.156  1.00  0.00    -0.384 N 
ATOM      3  H2  UNL     1       9.602  25.988  33.232  1.00  0.00     0.156 HD
HETATM    4  C5  UNL     1       8.515  24.678  31.963  1.00  0.00     0.250 C 
HETATM    5  N3  UNL     1       7.127  24.310  31.786  1.00  0.00    -0.107 NA
HETATM    6  N4  UNL     1       6.727  23.626  32.923  1.00  0.00    -0.033 NA
HETATM    7  N5  UNL     1       6.835  24.332  34.066  1.00  0.00    -0.298 N 
ATOM      8  H5  UNL     1       6.140  24.217  34.804  1.00  0.00     0.179 HD
ENDROOT
BRANCH   1   9
HETATM    9  C2  UNL     1       8.611  24.850  35.550  1.00  0.00     0.119 C 
HETATM   10  C1  UNL     1       7.631  25.053  36.713  1.00  0.00     0.052 C 
HETATM   11  C3  UNL     1       9.105  23.440  35.528  1.00  0.00     0.052 C 
BRANCH   9  12
HETATM   12  O1  UNL     1       9.689  25.681  35.821  1.00  0.00    -0.273 OA
BRANCH  12  13
HETATM   13  N1  UNL     1       9.550  26.205  37.035  1.00  0.00    -0.310 N 
ATOM     14  H12 UNL     1       8.911  25.851  37.746  1.00  0.00     0.184 HD
ATOM     15  H11 UNL     1      10.177  27.003  37.135  1.00  0.00     0.184 HD
ENDBRANCH  12  13
ENDBRANCH   9  12
ENDBRANCH   1   9
TORSDOF 3
ENDMDL
MODEL 4
REMARK VINA RESULT: -5.664394648      1.995      3.917
REMARK  3 active torsions:
REMARK  status: ('A' for Active; 'I' for Inactive)
REMARK    1  A    between atoms: C2_2  and  O1_4 
REMARK    2  A    between atoms: C2_2  and  C4_8 
REMARK    3  A    between atoms: O1_4  and  N1_5 
ROOT
HETATM    1  C4  UNL     1       8.109  25.256  34.847  1.00  0.00     0.228 C 
HETATM    2  N2  UNL     1       7.967  24.585  36.074  1.00  0.00    -0.384 N 
ATOM      3  H2  UNL     1       7.197  23.935  36.229  1.00  0.00     0.156 HD
HETATM    4  C5  UNL     1       8.920  24.832  37.085  1.00  0.00     0.250 C 
HETATM    5  N3  UNL     1       9.603  26.102  36.968  1.00  0.00    -0.107 NA
HETATM    6  N4  UNL     1      10.135  26.175  35.691  1.00  0.00    -0.033 NA
HETATM    7  N5  UNL     1       9.224  26.092  34.701  1.00  0.00    -0.298 N 
ATOM      8  H5  UNL     1       9.347  26.636  33.847  1.00  0.00     0.179 HD
ENDROOT
BRANCH   1   9
HETATM    9  C2  UNL     1       8.073  24.314  33.633  1.00  0.00     0.119 C 
HETATM   10  C1  UNL     1       7.005  23.239  33.876  1.00  0.00     0.052 C 
HETATM   11  C3  UNL     1       7.786  25.056  32.369  1.00  0.00     0.052 C 
BRANCH   9  12
HETATM   12  O1  UNL     1       9.266  23.623  33.467  1.00  0.00    -0.273 OA
BRANCH  12  13
HETATM   13  N1  UNL     1       9.569  23.567  32.174  1.00  0.00    -0.310 N 
ATOM     14  H12 UNL     1      10.510  23.430  31.807  1.00  0.00     0.184 HD
ATOM     15  H11 UNL     1       8.720  23.682  31.620  1.00  0.00     0.184 HD
ENDBRANCH  12  13
ENDBRANCH   9  12
ENDBRANCH   1   9
TORSDOF 3
ENDMDL
MODEL 5
REMARK VINA RESULT: -5.595780246      1.309      2.079
REMARK  3 active torsions:
REMARK  status: ('A' for Active; 'I' for Inactive)
REMARK    1  A    between atoms: C2_2  and  O1_4 
REMARK    2  A    between atoms: C2_2  and  C4_8 
REMARK    3  A    between atoms: O1_4  and  N1_5 
ROOT
HETATM    1  C4  UNL     1       7.483  24.952  34.452  1.00  0.00     0.228 C 
HETATM    2  N2  UNL     1       7.800  25.275  33.122  1.00  0.00    -0.384 N 
ATOM      3  H2  UNL     1       8.278  26.147  32.895  1.00  0.00     0.156 HD
HETATM    4  C5  UNL     1       7.441  24.361  32.108  1.00  0.00     0.250 C 
HETATM    5  N3  UNL     1       6.347  23.480  32.454  1.00  0.00    -0.107 NA
HETATM    6  N4  UNL     1       6.670  22.864  33.653  1.00  0.00    -0.033 NA
HETATM    7  N5  UNL     1       6.872  23.711  34.680  1.00  0.00    -0.298 N 
ATOM      8  H5  UNL     1       6.580  23.451  35.623  1.00  0.00     0.179 HD
ENDROOT
BRANCH   1   9
HETATM    9  C2  UNL     1       8.684  25.059  35.405  1.00  0.00     0.119 C 
HETATM   10  C1  UNL     1       9.152  23.643  35.769  1.00  0.00     0.052 C 
HETATM   11  C3  UNL     1       9.805  25.835  34.794  1.00  0.00     0.052 C 
BRANCH   9  12
HETATM   12  O1  UNL     1       8.349  25.662  36.610  1.00  0.00    -0.273 OA
BRANCH  12  13
HETATM   13  N1  UNL     1       9.441  26.174  37.169  1.00  0.00    -0.310 N 
ATOM     14  H12 UNL     1      10.064  25.662  37.793  1.00  0.00     0.184 HD
ATOM     15  H11 UNL     1       9.549  27.144  36.875  1.00  0.00     0.184 HD
ENDBRANCH  12  13
ENDBRANCH   9  12
ENDBRANCH   1   9
TORSDOF 3
ENDMDL
