MODEL 1
REMARK VINA RESULT: -5.860442763      0.000      0.000
REMARK  5 active torsions:
REMARK  status: ('A' for Active; 'I' for Inactive)
REMARK    1  A    between atoms: N1_1  and  C1_4 
REMARK    2  A    between atoms: C2_9  and  S1_10 
REMARK    3  A    between atoms: S1_10  and  C3_11 
REMARK    4  A    between atoms: C3_11  and  N4_12 
REMARK    5  A    between atoms: C3_11  and  N5_16 
ROOT
HETATM    1  C1  UNL     1      11.107  28.144  36.298  1.00  0.00     0.692 A 
HETATM    2  N2  UNL     1      11.226  27.786  35.012  1.00  0.00    -0.130 N 
ATOM      3  H2  UNL     1      11.783  28.273  34.310  1.00  0.00     0.205 HD
HETATM    4  N3  UNL     1      10.507  26.701  34.802  1.00  0.00    -0.265 N 
ATOM      5  H3  UNL     1      10.419  26.214  33.911  1.00  0.00     0.189 HD
HETATM    6  C2  UNL     1       9.909  26.337  35.949  1.00  0.00     0.178 A 
HETATM    7  N6  UNL     1      10.292  27.242  36.865  1.00  0.00    -0.168 N 
ATOM      8  H6  UNL     1      10.007  27.242  37.844  1.00  0.00     0.186 HD
ENDROOT
BRANCH   6   9
HETATM    9  S1  UNL     1       8.826  24.952  36.248  1.00  0.00    -0.031 SA
BRANCH   9  10
HETATM   10  C3  UNL     1       7.919  24.587  34.741  1.00  0.00     0.447 C 
BRANCH  10  11
HETATM   11  N4  UNL     1       6.656  23.932  35.010  1.00  0.00    -0.041 N 
ATOM     12  H43 UNL     1       6.798  23.024  35.453  1.00  0.00     0.277 HD
ATOM     13  H42 UNL     1       6.149  24.401  35.760  1.00  0.00     0.277 HD
ATOM     14  H41 UNL     1       6.081  23.848  34.172  1.00  0.00     0.277 HD
ENDBRANCH  10  11
BRANCH  10  15
HETATM   15  N5  UNL     1       8.755  23.782  33.848  1.00  0.00    -0.041 N 
ATOM     16  H53 UNL     1       8.243  23.461  33.026  1.00  0.00     0.277 HD
ATOM     17  H52 UNL     1       9.461  24.344  33.371  1.00  0.00     0.277 HD
ATOM     18  H51 UNL     1       9.167  23.009  34.371  1.00  0.00     0.277 HD
ENDBRANCH  10  15
ENDBRANCH   9  10
ENDBRANCH   6   9
BRANCH   1  19
HETATM   19  N1  UNL     1      11.673  29.168  36.881  1.00  0.00    -0.233 N 
ATOM     20  H12 UNL     1      12.591  29.562  36.674  1.00  0.00     0.174 HD
ATOM     21  H11 UNL     1      11.283  29.734  37.635  1.00  0.00     0.174 HD
ENDBRANCH   1  19
TORSDOF 5
ENDMDL
MODEL 2
REMARK VINA RESULT: -5.790594135      1.612      1.970
REMARK  5 active torsions:
REMARK  status: ('A' for Active; 'I' for Inactive)
REMARK    1  A    between atoms: N1_1  and  C1_4 
REMARK    2  A    between atoms: C2_9  and  S1_10 
REMARK    3  A    between atoms: S1_10  and  C3_11 
REMARK    4  A    between atoms: C3_11  and  N4_12 
REMARK    5  A    between atoms: C3_11  and  N5_16 
ROOT
HETATM    1  C1  UNL     1      10.912  27.529  35.622  1.00  0.00     0.692 A 
HETATM    2  N2  UNL     1      10.359  27.223  36.804  1.00  0.00    -0.130 N 
ATOM      3  H2  UNL     1      10.538  27.706  37.685  1.00  0.00     0.205 HD
HETATM    4  N3  UNL     1       9.547  26.198  36.643  1.00  0.00    -0.265 N 
ATOM      5  H3  UNL     1       8.996  25.759  37.381  1.00  0.00     0.189 HD
HETATM    6  C2  UNL     1       9.558  25.821  35.353  1.00  0.00     0.178 A 
HETATM    7  N6  UNL     1      10.409  26.657  34.735  1.00  0.00    -0.168 N 
ATOM      8  H6  UNL     1      10.637  26.632  33.742  1.00  0.00     0.186 HD
ENDROOT
BRANCH   6   9
HETATM    9  S1  UNL     1       8.653  24.498  34.573  1.00  0.00    -0.031 SA
BRANCH   9  10
HETATM   10  C3  UNL     1       8.832  24.641  32.791  1.00  0.00     0.447 C 
BRANCH  10  11
HETATM   11  N4  UNL     1       7.554  24.744  32.120  1.00  0.00    -0.041 N 
ATOM     12  H43 UNL     1       6.939  23.971  32.376  1.00  0.00     0.277 HD
ATOM     13  H42 UNL     1       7.003  25.518  32.492  1.00  0.00     0.277 HD
ATOM     14  H41 UNL     1       7.655  24.816  31.108  1.00  0.00     0.277 HD
ENDBRANCH  10  11
BRANCH  10  15
HETATM   15  N5  UNL     1       9.609  23.508  32.283  1.00  0.00    -0.041 N 
ATOM     16  H53 UNL     1       9.575  22.705  32.912  1.00  0.00     0.277 HD
ATOM     17  H52 UNL     1       9.171  23.075  31.470  1.00  0.00     0.277 HD
ATOM     18  H51 UNL     1      10.565  23.807  32.092  1.00  0.00     0.277 HD
ENDBRANCH  10  15
ENDBRANCH   9  10
ENDBRANCH   6   9
BRANCH   1  19
HETATM   19  N1  UNL     1      11.768  28.487  35.382  1.00  0.00    -0.233 N 
ATOM     20  H12 UNL     1      12.440  28.887  36.037  1.00  0.00     0.174 HD
ATOM     21  H11 UNL     1      11.899  28.984  34.501  1.00  0.00     0.174 HD
ENDBRANCH   1  19
TORSDOF 5
ENDMDL
MODEL 3
REMARK VINA RESULT: -5.561854772      1.166      1.166
REMARK  5 active torsions:
REMARK  status: ('A' for Active; 'I' for Inactive)
REMARK    1  A    between atoms: N1_1  and  C1_4 
REMARK    2  A    between atoms: C2_9  and  S1_10 
REMARK    3  A    between atoms: S1_10  and  C3_11 
REMARK    4  A    between atoms: C3_11  and  N4_12 
REMARK    5  A    between atoms: C3_11  and  N5_16 
ROOT
HETATM    1  C1  UNL     1      10.747  27.660  36.401  1.00  0.00     0.692 A 
HETATM    2  N2  UNL     1      11.147  27.678  35.122  1.00  0.00    -0.130 N 
ATOM      3  H2  UNL     1      11.801  28.347  34.715  1.00  0.00     0.205 HD
HETATM    4  N3  UNL     1      10.560  26.690  34.477  1.00  0.00    -0.265 N 
ATOM      5  H3  UNL     1      10.686  26.473  33.488  1.00  0.00     0.189 HD
HETATM    6  C2  UNL     1       9.768  26.014  35.326  1.00  0.00     0.178 A 
HETATM    7  N6  UNL     1       9.897  26.628  36.513  1.00  0.00    -0.168 N 
ATOM      8  H6  UNL     1       9.420  26.351  37.372  1.00  0.00     0.186 HD
ENDROOT
BRANCH   6   9
HETATM    9  S1  UNL     1       8.742  24.593  34.998  1.00  0.00    -0.031 SA
BRANCH   9  10
HETATM   10  C3  UNL     1       8.447  24.484  33.229  1.00  0.00     0.447 C 
BRANCH  10  11
HETATM   11  N4  UNL     1       7.121  23.988  32.926  1.00  0.00    -0.041 N 
ATOM     12  H43 UNL     1       6.710  23.516  33.732  1.00  0.00     0.277 HD
ATOM     13  H42 UNL     1       6.454  24.753  32.830  1.00  0.00     0.277 HD
ATOM     14  H41 UNL     1       7.114  23.386  32.103  1.00  0.00     0.277 HD
ENDBRANCH  10  11
BRANCH  10  15
HETATM   15  N5  UNL     1       9.480  23.650  32.610  1.00  0.00    -0.041 N 
ATOM     16  H53 UNL     1      10.265  23.480  33.239  1.00  0.00     0.277 HD
ATOM     17  H52 UNL     1       9.174  22.684  32.492  1.00  0.00     0.277 HD
ATOM     18  H51 UNL     1       9.776  24.071  31.729  1.00  0.00     0.277 HD
ENDBRANCH  10  15
ENDBRANCH   9  10
ENDBRANCH   6   9
BRANCH   1  19
HETATM   19  N1  UNL     1      11.114  28.482  37.348  1.00  0.00    -0.233 N 
ATOM     20  H12 UNL     1      11.704  29.309  37.249  1.00  0.00     0.174 HD
ATOM     21  H11 UNL     1      10.867  28.426  38.336  1.00  0.00     0.174 HD
ENDBRANCH   1  19
TORSDOF 5
ENDMDL
MODEL 4
REMARK VINA RESULT: -5.543577005      1.045      1.715
REMARK  5 active torsions:
REMARK  status: ('A' for Active; 'I' for Inactive)
REMARK    1  A    between atoms: N1_1  and  C1_4 
REMARK    2  A    between atoms: C2_9  and  S1_10 
REMARK    3  A    between atoms: S1_10  and  C3_11 
REMARK    4  A    between atoms: C3_11  and  N4_12 
REMARK    5  A    between atoms: C3_11  and  N5_16 
ROOT
HETATM    1  C1  UNL     1      11.326  28.193  36.035  1.00  0.00     0.692 A 
HETATM    2  N2  UNL     1      10.639  27.723  37.087  1.00  0.00    -0.130 N 
ATOM      3  H2  UNL     1      10.701  28.078  38.041  1.00  0.00     0.205 HD
HETATM    4  N3  UNL     1       9.870  26.731  36.686  1.00  0.00    -0.265 N 
ATOM      5  H3  UNL     1       9.242  26.193  37.282  1.00  0.00     0.189 HD
HETATM    6  C2  UNL     1      10.045  26.539  35.368  1.00  0.00     0.178 A 
HETATM    7  N6  UNL     1      10.950  27.453  34.981  1.00  0.00    -0.168 N 
ATOM      8  H6  UNL     1      11.297  27.568  34.029  1.00  0.00     0.186 HD
ENDROOT
BRANCH   6   9
HETATM    9  S1  UNL     1       9.264  25.338  34.305  1.00  0.00    -0.031 SA
BRANCH   9  10
HETATM   10  C3  UNL     1       8.285  24.218  35.313  1.00  0.00     0.447 C 
BRANCH  10  11
HETATM   11  N4  UNL     1       8.031  22.961  34.643  1.00  0.00    -0.041 N 
ATOM     12  H43 UNL     1       7.088  22.624  34.834  1.00  0.00     0.277 HD
ATOM     13  H42 UNL     1       7.955  23.090  33.634  1.00  0.00     0.277 HD
ATOM     14  H41 UNL     1       8.730  22.254  34.873  1.00  0.00     0.277 HD
ENDBRANCH  10  11
BRANCH  10  15
HETATM   15  N5  UNL     1       7.035  24.875  35.702  1.00  0.00    -0.041 N 
ATOM     16  H53 UNL     1       7.151  25.469  36.523  1.00  0.00     0.277 HD
ATOM     17  H52 UNL     1       6.756  25.596  35.037  1.00  0.00     0.277 HD
ATOM     18  H51 UNL     1       6.307  24.172  35.835  1.00  0.00     0.277 HD
ENDBRANCH  10  15
ENDBRANCH   9  10
ENDBRANCH   6   9
BRANCH   1  19
HETATM   19  N1  UNL     1      12.188  29.175  36.039  1.00  0.00    -0.233 N 
ATOM     20  H12 UNL     1      11.981  30.173  36.069  1.00  0.00     0.174 HD
ATOM     21  H11 UNL     1      13.205  29.096  36.013  1.00  0.00     0.174 HD
ENDBRANCH   1  19
TORSDOF 5
ENDMDL
MODEL 5
REMARK VINA RESULT: -5.395683277      2.220      4.760
REMARK  5 active torsions:
REMARK  status: ('A' for Active; 'I' for Inactive)
REMARK    1  A    between atoms: N1_1  and  C1_4 
REMARK    2  A    between atoms: C2_9  and  S1_10 
REMARK    3  A    between atoms: S1_10  and  C3_11 
REMARK    4  A    between atoms: C3_11  and  N4_12 
REMARK    5  A    between atoms: C3_11  and  N5_16 
ROOT
HETATM    1  C1  UNL     1       9.356  25.552  36.058  1.00  0.00     0.692 A 
HETATM    2  N2  UNL     1       9.816  25.804  34.824  1.00  0.00    -0.130 N 
ATOM      3  H2  UNL     1       9.657  25.221  34.002  1.00  0.00     0.205 HD
HETATM    4  N3  UNL     1      10.506  26.926  34.846  1.00  0.00    -0.265 N 
ATOM      5  H3  UNL     1      10.968  27.352  34.042  1.00  0.00     0.189 HD
HETATM    6  C2  UNL     1      10.506  27.423  36.094  1.00  0.00     0.178 A 
HETATM    7  N6  UNL     1       9.788  26.559  36.832  1.00  0.00    -0.168 N 
ATOM      8  H6  UNL     1       9.601  26.655  37.830  1.00  0.00     0.186 HD
ENDROOT
BRANCH   6   9
HETATM    9  S1  UNL     1      11.278  28.912  36.700  1.00  0.00    -0.031 SA
BRANCH   9  10
HETATM   10  C3  UNL     1      12.578  29.398  35.559  1.00  0.00     0.447 C 
BRANCH  10  11
HETATM   11  N4  UNL     1      12.058  29.737  34.251  1.00  0.00    -0.041 N 
ATOM     12  H43 UNL     1      11.374  30.491  34.310  1.00  0.00     0.277 HD
ATOM     13  H42 UNL     1      12.764  30.204  33.683  1.00  0.00     0.277 HD
ATOM     14  H41 UNL     1      11.673  28.925  33.769  1.00  0.00     0.277 HD
ENDBRANCH  10  11
BRANCH  10  15
HETATM   15  N5  UNL     1      13.579  28.332  35.472  1.00  0.00    -0.041 N 
ATOM     16  H53 UNL     1      14.511  28.657  35.729  1.00  0.00     0.277 HD
ATOM     17  H52 UNL     1      13.460  27.632  36.205  1.00  0.00     0.277 HD
ATOM     18  H51 UNL     1      13.559  27.920  34.539  1.00  0.00     0.277 HD
ENDBRANCH  10  15
ENDBRANCH   9  10
ENDBRANCH   6   9
BRANCH   1  19
HETATM   19  N1  UNL     1       8.630  24.531  36.430  1.00  0.00    -0.233 N 
ATOM     20  H12 UNL     1       8.622  23.600  36.013  1.00  0.00     0.174 HD
ATOM     21  H11 UNL     1       7.959  24.506  37.197  1.00  0.00     0.174 HD
ENDBRANCH   1  19
TORSDOF 5
ENDMDL
