MODEL 1
REMARK VINA RESULT: -5.661516482      0.000      0.000
REMARK  6 active torsions:
REMARK  status: ('A' for Active; 'I' for Inactive)
REMARK    1  A    between atoms: C2_2  and  N1_3 
REMARK    2  A    between atoms: N1_3  and  N2_5 
REMARK    3  A    between atoms: N3_7  and  C4_9 
REMARK    4  A    between atoms: C7_15  and  N5_16 
REMARK    5  A    between atoms: C10_22  and  O1_23 
REMARK    6  A    between atoms: O1_23  and  C11_24 
ROOT
HETATM    1  C4  UNL     1      22.060   4.438  20.485  1.00  0.00     0.071 A 
HETATM    2  C5  UNL     1      22.567   5.489  19.775  1.00  0.00     0.083 A 
HETATM    3  S1  UNL     1      22.539   6.768  20.893  1.00  0.00    -0.081 SA
HETATM    4  C6  UNL     1      21.885   5.946  22.240  1.00  0.00     0.091 A 
HETATM    5  N4  UNL     1      21.565   6.344  23.515  1.00  0.00    -0.335 N 
ATOM      6  H4  UNL     1      21.733   7.314  23.782  1.00  0.00     0.168 HD
HETATM    7  C7  UNL     1      21.041   5.506  24.422  1.00  0.00     0.123 A 
HETATM    8  C8  UNL     1      20.847   4.207  23.974  1.00  0.00     0.122 A 
HETATM    9  C9  UNL     1      20.285   3.269  24.918  1.00  0.00     0.106 C 
HETATM   10  N6  UNL     1      19.832   2.532  25.689  1.00  0.00    -0.191 NA
HETATM   11  C10 UNL     1      21.152   3.767  22.711  1.00  0.00     0.108 A 
HETATM   12  C13 UNL     1      21.702   4.673  21.774  1.00  0.00     0.061 A 
ENDROOT
BRANCH   7  13
HETATM   13  N5  UNL     1      20.749   5.885  25.596  1.00  0.00    -0.384 N 
ATOM     14  H52 UNL     1      21.400   5.826  26.379  1.00  0.00     0.157 HD
ATOM     15  H51 UNL     1      19.834   6.273  25.826  1.00  0.00     0.157 HD
ENDBRANCH   7  13
BRANCH  11  16
HETATM   16  O1  UNL     1      20.897   2.445  22.431  1.00  0.00    -0.349 OA
BRANCH  16  17
HETATM   17  C11 UNL     1      19.704   1.883  21.999  1.00  0.00     0.171 C 
HETATM   18  C12 UNL     1      19.711   0.408  22.421  1.00  0.00     0.034 C 
ENDBRANCH  16  17
ENDBRANCH  11  16
BRANCH   1  19
HETATM   19  N3  UNL     1      21.909   3.139  19.830  1.00  0.00    -0.285 N 
HETATM   20  N2  UNL     1      22.825   2.268  19.866  1.00  0.00    -0.241 N 
ATOM     21  H2  UNL     1      22.698   1.367  19.403  1.00  0.00     0.208 HD
ATOM     22  H3  UNL     1      21.044   2.931  19.330  1.00  0.00     0.188 HD
BRANCH  20  23
HETATM   23  N1  UNL     1      24.009   2.548  20.545  1.00  0.00    -0.294 N 
HETATM   24  C3  UNL     1      25.073   3.378  20.026  1.00  0.00     0.178 C 
BRANCH  23  25
HETATM   25  C2  UNL     1      24.181   1.981  21.824  1.00  0.00     0.101 C 
HETATM   26  C1  UNL     1      23.912   0.717  22.045  1.00  0.00     0.031 C 
ENDBRANCH  23  25
ENDBRANCH  20  23
ENDBRANCH   1  19
TORSDOF 6
ENDMDL
MODEL 2
REMARK VINA RESULT: -5.627947412      2.613      4.516
REMARK  6 active torsions:
REMARK  status: ('A' for Active; 'I' for Inactive)
REMARK    1  A    between atoms: C2_2  and  N1_3 
REMARK    2  A    between atoms: N1_3  and  N2_5 
REMARK    3  A    between atoms: N3_7  and  C4_9 
REMARK    4  A    between atoms: C7_15  and  N5_16 
REMARK    5  A    between atoms: C10_22  and  O1_23 
REMARK    6  A    between atoms: O1_23  and  C11_24 
ROOT
HETATM    1  C4  UNL     1      21.498   2.971  24.004  1.00  0.00     0.071 A 
HETATM    2  C5  UNL     1      21.357   2.025  24.979  1.00  0.00     0.083 A 
HETATM    3  S1  UNL     1      20.434   2.816  26.165  1.00  0.00    -0.081 SA
HETATM    4  C6  UNL     1      20.243   4.333  25.402  1.00  0.00     0.091 A 
HETATM    5  N4  UNL     1      19.611   5.494  25.773  1.00  0.00    -0.335 N 
ATOM      6  H4  UNL     1      19.131   5.526  26.672  1.00  0.00     0.168 HD
HETATM    7  C7  UNL     1      19.601   6.589  24.997  1.00  0.00     0.123 A 
HETATM    8  C8  UNL     1      20.277   6.458  23.793  1.00  0.00     0.122 A 
HETATM    9  C9  UNL     1      20.291   7.612  22.923  1.00  0.00     0.106 C 
HETATM   10  N6  UNL     1      20.293   8.549  22.241  1.00  0.00    -0.191 NA
HETATM   11  C10 UNL     1      20.920   5.318  23.383  1.00  0.00     0.108 A 
HETATM   12  C13 UNL     1      20.917   4.179  24.221  1.00  0.00     0.061 A 
ENDROOT
BRANCH   7  13
HETATM   13  N5  UNL     1      19.015   7.656  25.350  1.00  0.00    -0.384 N 
ATOM     14  H52 UNL     1      18.032   7.689  25.620  1.00  0.00     0.157 HD
ATOM     15  H51 UNL     1      19.500   8.553  25.383  1.00  0.00     0.157 HD
ENDBRANCH   7  13
BRANCH  11  16
HETATM   16  O1  UNL     1      21.542   5.357  22.156  1.00  0.00    -0.349 OA
BRANCH  16  17
HETATM   17  C11 UNL     1      22.828   5.793  21.869  1.00  0.00     0.171 C 
HETATM   18  C12 UNL     1      22.976   5.814  20.342  1.00  0.00     0.034 C 
ENDBRANCH  16  17
ENDBRANCH  11  16
BRANCH   1  19
HETATM   19  N3  UNL     1      22.270   2.651  22.804  1.00  0.00    -0.285 N 
HETATM   20  N2  UNL     1      21.849   1.825  21.944  1.00  0.00    -0.241 N 
ATOM     21  H2  UNL     1      22.404   1.619  21.113  1.00  0.00     0.208 HD
ATOM     22  H3  UNL     1      23.172   3.106  22.656  1.00  0.00     0.188 HD
BRANCH  20  23
HETATM   23  N1  UNL     1      20.619   1.200  22.141  1.00  0.00    -0.294 N 
HETATM   24  C3  UNL     1      20.457  -0.145  22.648  1.00  0.00     0.178 C 
BRANCH  23  25
HETATM   25  C2  UNL     1      19.455   1.928  21.823  1.00  0.00     0.101 C 
HETATM   26  C1  UNL     1      18.273   1.362  21.858  1.00  0.00     0.031 C 
ENDBRANCH  23  25
ENDBRANCH  20  23
ENDBRANCH   1  19
TORSDOF 6
ENDMDL
MODEL 3
REMARK VINA RESULT: -5.518506135      2.411      4.380
REMARK  6 active torsions:
REMARK  status: ('A' for Active; 'I' for Inactive)
REMARK    1  A    between atoms: C2_2  and  N1_3 
REMARK    2  A    between atoms: N1_3  and  N2_5 
REMARK    3  A    between atoms: N3_7  and  C4_9 
REMARK    4  A    between atoms: C7_15  and  N5_16 
REMARK    5  A    between atoms: C10_22  and  O1_23 
REMARK    6  A    between atoms: O1_23  and  C11_24 
ROOT
HETATM    1  C4  UNL     1      23.033   3.691  22.060  1.00  0.00     0.071 A 
HETATM    2  C5  UNL     1      23.666   2.796  21.246  1.00  0.00     0.083 A 
HETATM    3  S1  UNL     1      23.836   3.646  19.785  1.00  0.00    -0.081 SA
HETATM    4  C6  UNL     1      23.100   5.121  20.234  1.00  0.00     0.091 A 
HETATM    5  N4  UNL     1      22.862   6.293  19.559  1.00  0.00    -0.335 N 
ATOM      6  H4  UNL     1      23.166   6.370  18.588  1.00  0.00     0.168 HD
HETATM    7  C7  UNL     1      22.245   7.340  20.126  1.00  0.00     0.123 A 
HETATM    8  C8  UNL     1      21.866   7.149  21.447  1.00  0.00     0.122 A 
HETATM    9  C9  UNL     1      21.197   8.251  22.100  1.00  0.00     0.106 C 
HETATM   10  N6  UNL     1      20.662   9.147  22.605  1.00  0.00    -0.191 NA
HETATM   11  C10 UNL     1      22.084   5.998  22.159  1.00  0.00     0.108 A 
HETATM   12  C13 UNL     1      22.735   4.909  21.536  1.00  0.00     0.061 A 
ENDROOT
BRANCH   7  13
HETATM   13  N5  UNL     1      22.029   8.416  19.492  1.00  0.00    -0.384 N 
ATOM     14  H52 UNL     1      21.121   8.881  19.476  1.00  0.00     0.157 HD
ATOM     15  H51 UNL     1      22.761   8.882  18.955  1.00  0.00     0.157 HD
ENDBRANCH   7  13
BRANCH  11  16
HETATM   16  O1  UNL     1      21.644   5.975  23.462  1.00  0.00    -0.349 OA
BRANCH  16  17
HETATM   17  C11 UNL     1      20.354   5.747  23.921  1.00  0.00     0.171 C 
HETATM   18  C12 UNL     1      20.209   6.469  25.266  1.00  0.00     0.034 C 
ENDBRANCH  16  17
ENDBRANCH  11  16
BRANCH   1  19
HETATM   19  N3  UNL     1      22.694   3.297  23.428  1.00  0.00    -0.285 N 
HETATM   20  N2  UNL     1      21.769   2.470  23.670  1.00  0.00    -0.241 N 
ATOM     21  H2  UNL     1      21.551   2.209  24.632  1.00  0.00     0.208 HD
ATOM     22  H3  UNL     1      23.217   3.701  24.206  1.00  0.00     0.188 HD
BRANCH  20  23
HETATM   23  N1  UNL     1      21.051   1.917  22.611  1.00  0.00    -0.294 N 
HETATM   24  C3  UNL     1      20.005   2.603  21.886  1.00  0.00     0.178 C 
BRANCH  23  25
HETATM   25  C2  UNL     1      21.365   0.599  22.224  1.00  0.00     0.101 C 
HETATM   26  C1  UNL     1      20.723  -0.425  22.731  1.00  0.00     0.031 C 
ENDBRANCH  23  25
ENDBRANCH  20  23
ENDBRANCH   1  19
TORSDOF 6
ENDMDL
MODEL 4
REMARK VINA RESULT: -5.512414275      4.883      7.702
REMARK  6 active torsions:
REMARK  status: ('A' for Active; 'I' for Inactive)
REMARK    1  A    between atoms: C2_2  and  N1_3 
REMARK    2  A    between atoms: N1_3  and  N2_5 
REMARK    3  A    between atoms: N3_7  and  C4_9 
REMARK    4  A    between atoms: C7_15  and  N5_16 
REMARK    5  A    between atoms: C10_22  and  O1_23 
REMARK    6  A    between atoms: O1_23  and  C11_24 
ROOT
HETATM    1  C4  UNL     1      23.591   1.071  18.854  1.00  0.00     0.071 A 
HETATM    2  C5  UNL     1      22.731   1.417  19.856  1.00  0.00     0.083 A 
HETATM    3  S1  UNL     1      23.080   0.292  21.080  1.00  0.00    -0.081 SA
HETATM    4  C6  UNL     1      24.310  -0.598  20.297  1.00  0.00     0.091 A 
HETATM    5  N4  UNL     1      25.068  -1.679  20.674  1.00  0.00    -0.335 N 
ATOM      6  H4  UNL     1      24.924  -2.080  21.601  1.00  0.00     0.168 HD
HETATM    7  C7  UNL     1      25.991  -2.228  19.870  1.00  0.00     0.123 A 
HETATM    8  C8  UNL     1      26.121  -1.621  18.629  1.00  0.00     0.122 A 
HETATM    9  C9  UNL     1      27.104  -2.179  17.729  1.00  0.00     0.106 C 
HETATM   10  N6  UNL     1      27.897  -2.642  17.022  1.00  0.00    -0.191 NA
HETATM   11  C10 UNL     1      25.386  -0.541  18.212  1.00  0.00     0.108 A 
HETATM   12  C13 UNL     1      24.419   0.017  19.080  1.00  0.00     0.061 A 
ENDROOT
BRANCH   7  13
HETATM   13  N5  UNL     1      26.684  -3.228  20.228  1.00  0.00    -0.384 N 
ATOM     14  H52 UNL     1      26.314  -3.987  20.798  1.00  0.00     0.157 HD
ATOM     15  H51 UNL     1      27.665  -3.327  19.964  1.00  0.00     0.157 HD
ENDBRANCH   7  13
BRANCH  11  16
HETATM   16  O1  UNL     1      25.642  -0.060  16.949  1.00  0.00    -0.349 OA
BRANCH  16  17
HETATM   17  C11 UNL     1      25.026  -0.423  15.760  1.00  0.00     0.171 C 
HETATM   18  C12 UNL     1      26.120  -0.542  14.692  1.00  0.00     0.034 C 
ENDBRANCH  16  17
ENDBRANCH  11  16
BRANCH   1  19
HETATM   19  N3  UNL     1      23.567   1.823  17.599  1.00  0.00    -0.285 N 
HETATM   20  N2  UNL     1      24.123   2.953  17.492  1.00  0.00    -0.241 N 
ATOM     21  H2  UNL     1      24.095   3.459  16.607  1.00  0.00     0.208 HD
ATOM     22  H3  UNL     1      23.089   1.425  16.790  1.00  0.00     0.188 HD
BRANCH  20  23
HETATM   23  N1  UNL     1      24.775   3.502  18.595  1.00  0.00    -0.294 N 
HETATM   24  C3  UNL     1      24.197   4.489  19.480  1.00  0.00     0.178 C 
BRANCH  23  25
HETATM   25  C2  UNL     1      26.088   3.066  18.863  1.00  0.00     0.101 C 
HETATM   26  C1  UNL     1      26.971   2.948  17.901  1.00  0.00     0.031 C 
ENDBRANCH  23  25
ENDBRANCH  20  23
ENDBRANCH   1  19
TORSDOF 6
ENDMDL
MODEL 5
REMARK VINA RESULT: -5.472748579      2.822      4.500
REMARK  6 active torsions:
REMARK  status: ('A' for Active; 'I' for Inactive)
REMARK    1  A    between atoms: C2_2  and  N1_3 
REMARK    2  A    between atoms: N1_3  and  N2_5 
REMARK    3  A    between atoms: N3_7  and  C4_9 
REMARK    4  A    between atoms: C7_15  and  N5_16 
REMARK    5  A    between atoms: C10_22  and  O1_23 
REMARK    6  A    between atoms: O1_23  and  C11_24 
ROOT
HETATM    1  C4  UNL     1      23.448   1.415  19.229  1.00  0.00     0.071 A 
HETATM    2  C5  UNL     1      23.841   0.110  19.143  1.00  0.00     0.083 A 
HETATM    3  S1  UNL     1      23.804  -0.420  20.757  1.00  0.00    -0.081 SA
HETATM    4  C6  UNL     1      23.289   1.025  21.511  1.00  0.00     0.091 A 
HETATM    5  N4  UNL     1      23.043   1.361  22.819  1.00  0.00    -0.335 N 
ATOM      6  H4  UNL     1      23.165   0.650  23.540  1.00  0.00     0.168 HD
HETATM    7  C7  UNL     1      22.647   2.589  23.186  1.00  0.00     0.123 A 
HETATM    8  C8  UNL     1      22.506   3.493  22.143  1.00  0.00     0.122 A 
HETATM    9  C9  UNL     1      22.080   4.829  22.491  1.00  0.00     0.106 C 
HETATM   10  N6  UNL     1      21.739   5.896  22.790  1.00  0.00    -0.191 NA
HETATM   11  C10 UNL     1      22.740   3.200  20.824  1.00  0.00     0.108 A 
HETATM   12  C13 UNL     1      23.158   1.898  20.466  1.00  0.00     0.061 A 
ENDROOT
BRANCH   7  13
HETATM   13  N5  UNL     1      22.424   2.889  24.398  1.00  0.00    -0.384 N 
ATOM     14  H52 UNL     1      21.747   3.598  24.680  1.00  0.00     0.157 HD
ATOM     15  H51 UNL     1      22.916   2.433  25.166  1.00  0.00     0.157 HD
ENDBRANCH   7  13
BRANCH  11  16
HETATM   16  O1  UNL     1      22.550   4.214  19.914  1.00  0.00    -0.349 OA
BRANCH  16  17
HETATM   17  C11 UNL     1      23.434   5.230  19.577  1.00  0.00     0.171 C 
HETATM   18  C12 UNL     1      22.619   6.523  19.442  1.00  0.00     0.034 C 
ENDBRANCH  16  17
ENDBRANCH  11  16
BRANCH   1  19
HETATM   19  N3  UNL     1      23.378   2.222  18.011  1.00  0.00    -0.285 N 
HETATM   20  N2  UNL     1      24.418   2.694  17.467  1.00  0.00    -0.241 N 
ATOM     21  H2  UNL     1      24.345   3.253  16.617  1.00  0.00     0.208 HD
ATOM     22  H3  UNL     1      22.467   2.410  17.591  1.00  0.00     0.188 HD
BRANCH  20  23
HETATM   23  N1  UNL     1      25.664   2.441  18.038  1.00  0.00    -0.294 N 
HETATM   24  C3  UNL     1      26.209   3.166  19.165  1.00  0.00     0.178 C 
BRANCH  23  25
HETATM   25  C2  UNL     1      26.445   1.411  17.478  1.00  0.00     0.101 C 
HETATM   26  C1  UNL     1      27.610   1.666  16.935  1.00  0.00     0.031 C 
ENDBRANCH  23  25
ENDBRANCH  20  23
ENDBRANCH   1  19
TORSDOF 6
ENDMDL
