MODEL 1
REMARK VINA RESULT: -9.748783581      0.000      0.000
REMARK  11 active torsions:
REMARK  status: ('A' for Active; 'I' for Inactive)
REMARK    1  A    between atoms: C2_2  and  C4_4 
REMARK    2  A    between atoms: C4_4  and  C5_5 
REMARK    3  A    between atoms: C5_5  and  N1_6 
REMARK    4  A    between atoms: C5_5  and  C14_18 
REMARK       I    between atoms: N1_6  and  C6_8 
REMARK    5  A    between atoms: C6_8  and  C7_10 
REMARK    6  A    between atoms: C7_10  and  C8_12 
REMARK       I    between atoms: C14_18  and  N2_20 
REMARK    7  A    between atoms: C18_24  and  C19_25 
REMARK       I    between atoms: C19_25  and  N3_27 
REMARK    8  A    between atoms: N3_27  and  C20_29 
REMARK    9  A    between atoms: C20_29  and  C21_30 
REMARK   10  A    between atoms: C21_30  and  O5_31 
REMARK   11  A    between atoms: C21_30  and  C22_33 
REMARK       I    between atoms: C22_33  and  N4_35 
ROOT
HETATM    1  C14 UNL     1     -14.724  21.624  -7.694  1.00  0.00     0.243 C 
HETATM    2  O3  UNL     1     -15.364  22.699  -7.420  1.00  0.00    -0.271 OA
HETATM    3  N2  UNL     1     -15.447  20.455  -8.010  1.00  0.00    -0.336 N 
HETATM    4  C15 UNL     1     -15.006  19.131  -8.284  1.00  0.00     0.132 C 
HETATM    5  C16 UNL     1     -16.257  18.313  -8.574  1.00  0.00     0.019 A 
HETATM    6  C17 UNL     1     -17.383  19.236  -8.711  1.00  0.00     0.032 A 
HETATM    7  C18 UNL     1     -16.912  20.502  -8.106  1.00  0.00     0.184 C 
HETATM    8  C30 UNL     1     -16.882  18.602  -9.918  1.00  0.00    -0.036 A 
HETATM    9  C31 UNL     1     -17.733  17.500 -10.536  1.00  0.00     0.016 C 
HETATM   10  C32 UNL     1     -15.998  19.296 -10.910  1.00  0.00     0.016 C 
ENDROOT
BRANCH   1  11
HETATM   11  C5  UNL     1     -13.244  21.709  -7.645  1.00  0.00     0.177 C 
BRANCH  11  12
HETATM   12  C4  UNL     1     -12.612  21.874  -8.992  1.00  0.00     0.038 C 
BRANCH  12  13
HETATM   13  C2  UNL     1     -12.313  23.260  -9.367  1.00  0.00    -0.020 C 
HETATM   14  C1  UNL     1     -10.996  23.315 -10.194  1.00  0.00     0.009 C 
HETATM   15  C3  UNL     1     -13.299  23.985 -10.222  1.00  0.00     0.009 C 
ENDBRANCH  12  13
ENDBRANCH  11  12
BRANCH  11  16
HETATM   16  N1  UNL     1     -12.780  22.708  -6.738  1.00  0.00    -0.341 N 
HETATM   17  C6  UNL     1     -12.710  22.616  -5.328  1.00  0.00     0.288 C 
HETATM   18  O1  UNL     1     -13.079  21.584  -4.739  1.00  0.00    -0.264 OA
ATOM     19  H1  UNL     1     -12.464  23.585  -7.152  1.00  0.00     0.163 HD
BRANCH  17  20
HETATM   20  C7  UNL     1     -12.208  23.708  -4.513  1.00  0.00     0.220 C 
HETATM   21  O2  UNL     1     -10.960  23.885  -4.475  1.00  0.00    -0.287 OA
BRANCH  20  22
HETATM   22  C8  UNL     1     -13.052  24.617  -3.734  1.00  0.00     0.065 C 
HETATM   23  C9  UNL     1     -12.919  24.461  -2.247  1.00  0.00     0.013 C 
HETATM   24  C10 UNL     1     -14.001  23.601  -1.627  1.00  0.00     0.001 C 
HETATM   25  C11 UNL     1     -15.369  24.231  -1.849  1.00  0.00     0.000 C 
HETATM   26  C12 UNL     1     -15.314  25.186  -3.039  1.00  0.00     0.001 C 
HETATM   27  C13 UNL     1     -14.524  24.498  -4.140  1.00  0.00     0.013 C 
ENDBRANCH  20  22
ENDBRANCH  17  20
ENDBRANCH  11  16
ENDBRANCH   1  11
BRANCH   7  28
HETATM   28  C19 UNL     1     -17.453  20.610  -6.735  1.00  0.00     0.241 C 
HETATM   29  O4  UNL     1     -18.631  21.029  -6.623  1.00  0.00    -0.271 OA
HETATM   30  N3  UNL     1     -16.718  20.271  -5.600  1.00  0.00    -0.347 N 
ATOM     31  H3  UNL     1     -15.765  19.935  -5.733  1.00  0.00     0.163 HD
BRANCH  30  32
HETATM   32  C20 UNL     1     -17.237  20.367  -4.206  1.00  0.00     0.071 A 
HETATM   33  C27 UNL     1     -16.196  21.039  -3.297  1.00  0.00     0.041 A 
HETATM   34  C28 UNL     1     -17.507  21.708  -3.772  1.00  0.00     0.015 A 
HETATM   35  C29 UNL     1     -18.311  22.218  -2.639  1.00  0.00     0.012 C 
BRANCH  32  36
HETATM   36  C21 UNL     1     -17.772  19.062  -3.764  1.00  0.00     0.238 C 
BRANCH  36  37
HETATM   37  O5  UNL     1     -17.605  19.072  -2.338  1.00  0.00    -0.384 OA
ATOM     38  H5  UNL     1     -17.861  18.199  -2.064  1.00  0.00     0.210 HD
ENDBRANCH  36  37
BRANCH  36  39
HETATM   39  C22 UNL     1     -19.152  18.720  -4.029  1.00  0.00     0.251 C 
HETATM   40  O6  UNL     1     -20.020  19.215  -3.227  1.00  0.00    -0.270 OA
HETATM   41  N4  UNL     1     -19.657  17.910  -5.058  1.00  0.00    -0.350 N 
HETATM   42  C23 UNL     1     -21.050  17.610  -5.273  1.00  0.00     0.126 C 
HETATM   43  C26 UNL     1     -18.895  17.242  -6.069  1.00  0.00     0.126 C 
HETATM   44  C24 UNL     1     -21.129  16.479  -6.242  1.00  0.00     0.021 C 
HETATM   45  C25 UNL     1     -19.802  16.422  -6.924  1.00  0.00     0.021 C 
ENDBRANCH  36  39
ENDBRANCH  32  36
ENDBRANCH  30  32
ENDBRANCH   7  28
TORSDOF 11
ENDMDL
MODEL 2
REMARK VINA RESULT: -9.637630825      2.236      8.697
REMARK  11 active torsions:
REMARK  status: ('A' for Active; 'I' for Inactive)
REMARK    1  A    between atoms: C2_2  and  C4_4 
REMARK    2  A    between atoms: C4_4  and  C5_5 
REMARK    3  A    between atoms: C5_5  and  N1_6 
REMARK    4  A    between atoms: C5_5  and  C14_18 
REMARK       I    between atoms: N1_6  and  C6_8 
REMARK    5  A    between atoms: C6_8  and  C7_10 
REMARK    6  A    between atoms: C7_10  and  C8_12 
REMARK       I    between atoms: C14_18  and  N2_20 
REMARK    7  A    between atoms: C18_24  and  C19_25 
REMARK       I    between atoms: C19_25  and  N3_27 
REMARK    8  A    between atoms: N3_27  and  C20_29 
REMARK    9  A    between atoms: C20_29  and  C21_30 
REMARK   10  A    between atoms: C21_30  and  O5_31 
REMARK   11  A    between atoms: C21_30  and  C22_33 
REMARK       I    between atoms: C22_33  and  N4_35 
ROOT
HETATM    1  C14 UNL     1     -17.792  18.118  -5.225  1.00  0.00     0.243 C 
HETATM    2  O3  UNL     1     -16.903  17.716  -4.396  1.00  0.00    -0.271 OA
HETATM    3  N2  UNL     1     -17.391  18.847  -6.364  1.00  0.00    -0.336 N 
HETATM    4  C15 UNL     1     -18.154  19.461  -7.395  1.00  0.00     0.132 C 
HETATM    5  C16 UNL     1     -17.153  20.083  -8.358  1.00  0.00     0.019 A 
HETATM    6  C17 UNL     1     -15.819  19.601  -8.003  1.00  0.00     0.032 A 
HETATM    7  C18 UNL     1     -15.963  19.062  -6.631  1.00  0.00     0.184 C 
HETATM    8  C30 UNL     1     -16.422  19.079  -9.217  1.00  0.00    -0.036 A 
HETATM    9  C31 UNL     1     -15.869  19.579 -10.545  1.00  0.00     0.016 C 
HETATM   10  C32 UNL     1     -17.052  17.722  -9.309  1.00  0.00     0.016 C 
ENDROOT
BRANCH   1  11
HETATM   11  C5  UNL     1     -19.198  17.777  -4.898  1.00  0.00     0.177 C 
BRANCH  11  12
HETATM   12  C4  UNL     1     -20.017  18.959  -4.484  1.00  0.00     0.038 C 
BRANCH  12  13
HETATM   13  C2  UNL     1     -20.581  18.875  -3.132  1.00  0.00    -0.020 C 
HETATM   14  C1  UNL     1     -22.097  18.531  -3.208  1.00  0.00     0.009 C 
HETATM   15  C3  UNL     1     -20.030  17.846  -2.202  1.00  0.00     0.009 C 
ENDBRANCH  12  13
ENDBRANCH  11  12
BRANCH  11  16
HETATM   16  N1  UNL     1     -19.844  17.050  -5.942  1.00  0.00    -0.341 N 
HETATM   17  C6  UNL     1     -20.742  15.966  -5.799  1.00  0.00     0.288 C 
HETATM   18  O1  UNL     1     -21.048  15.537  -4.672  1.00  0.00    -0.264 OA
ATOM     19  H1  UNL     1     -19.636  17.344  -6.896  1.00  0.00     0.163 HD
BRANCH  17  20
HETATM   20  C7  UNL     1     -21.342  15.311  -6.949  1.00  0.00     0.220 C 
HETATM   21  O2  UNL     1     -20.713  14.349  -7.469  1.00  0.00    -0.287 OA
BRANCH  20  22
HETATM   22  C8  UNL     1     -22.625  15.690  -7.543  1.00  0.00     0.065 C 
HETATM   23  C9  UNL     1     -23.019  17.118  -7.302  1.00  0.00     0.013 C 
HETATM   24  C10 UNL     1     -23.981  17.297  -6.145  1.00  0.00     0.001 C 
HETATM   25  C11 UNL     1     -25.282  16.557  -6.421  1.00  0.00     0.000 C 
HETATM   26  C12 UNL     1     -25.047  15.458  -7.454  1.00  0.00     0.001 C 
HETATM   27  C13 UNL     1     -23.749  14.756  -7.087  1.00  0.00     0.013 C 
ENDBRANCH  20  22
ENDBRANCH  17  20
ENDBRANCH  11  16
ENDBRANCH   1  11
BRANCH   7  28
HETATM   28  C19 UNL     1     -15.467  20.066  -5.667  1.00  0.00     0.241 C 
HETATM   29  O4  UNL     1     -14.370  19.820  -5.108  1.00  0.00    -0.271 OA
HETATM   30  N3  UNL     1     -16.158  21.239  -5.369  1.00  0.00    -0.347 N 
ATOM     31  H3  UNL     1     -17.045  21.402  -5.843  1.00  0.00     0.163 HD
BRANCH  30  32
HETATM   32  C20 UNL     1     -15.682  22.270  -4.403  1.00  0.00     0.071 A 
HETATM   33  C27 UNL     1     -16.840  22.728  -3.503  1.00  0.00     0.041 A 
HETATM   34  C28 UNL     1     -15.669  21.831  -3.036  1.00  0.00     0.015 A 
HETATM   35  C29 UNL     1     -14.987  22.385  -1.846  1.00  0.00     0.012 C 
BRANCH  32  36
HETATM   36  C21 UNL     1     -14.921  23.323  -5.107  1.00  0.00     0.238 C 
BRANCH  36  37
HETATM   37  O5  UNL     1     -14.949  24.444  -4.210  1.00  0.00    -0.384 OA
ATOM     38  H5  UNL     1     -15.553  25.056  -4.614  1.00  0.00     0.210 HD
ENDBRANCH  36  37
BRANCH  36  39
HETATM   39  C22 UNL     1     -13.538  23.098  -5.464  1.00  0.00     0.251 C 
HETATM   40  O6  UNL     1     -12.677  23.288  -4.534  1.00  0.00    -0.270 OA
HETATM   41  N4  UNL     1     -13.023  22.698  -6.707  1.00  0.00    -0.350 N 
HETATM   42  C23 UNL     1     -11.628  22.486  -7.000  1.00  0.00     0.126 C 
HETATM   43  C26 UNL     1     -13.774  22.434  -7.896  1.00  0.00     0.126 C 
HETATM   44  C24 UNL     1     -11.481  22.395  -8.481  1.00  0.00     0.021 C 
HETATM   45  C25 UNL     1     -12.845  22.111  -9.018  1.00  0.00     0.021 C 
ENDBRANCH  36  39
ENDBRANCH  32  36
ENDBRANCH  30  32
ENDBRANCH   7  28
TORSDOF 11
ENDMDL
MODEL 3
REMARK VINA RESULT: -9.608194239      2.403      8.854
REMARK  11 active torsions:
REMARK  status: ('A' for Active; 'I' for Inactive)
REMARK    1  A    between atoms: C2_2  and  C4_4 
REMARK    2  A    between atoms: C4_4  and  C5_5 
REMARK    3  A    between atoms: C5_5  and  N1_6 
REMARK    4  A    between atoms: C5_5  and  C14_18 
REMARK       I    between atoms: N1_6  and  C6_8 
REMARK    5  A    between atoms: C6_8  and  C7_10 
REMARK    6  A    between atoms: C7_10  and  C8_12 
REMARK       I    between atoms: C14_18  and  N2_20 
REMARK    7  A    between atoms: C18_24  and  C19_25 
REMARK       I    between atoms: C19_25  and  N3_27 
REMARK    8  A    between atoms: N3_27  and  C20_29 
REMARK    9  A    between atoms: C20_29  and  C21_30 
REMARK   10  A    between atoms: C21_30  and  O5_31 
REMARK   11  A    between atoms: C21_30  and  C22_33 
REMARK       I    between atoms: C22_33  and  N4_35 
ROOT
HETATM    1  C14 UNL     1     -17.670  18.067  -5.343  1.00  0.00     0.243 C 
HETATM    2  O3  UNL     1     -16.763  17.668  -4.532  1.00  0.00    -0.271 OA
HETATM    3  N2  UNL     1     -17.298  18.829  -6.470  1.00  0.00    -0.336 N 
HETATM    4  C15 UNL     1     -18.086  19.447  -7.480  1.00  0.00     0.132 C 
HETATM    5  C16 UNL     1     -17.109  20.112  -8.440  1.00  0.00     0.019 A 
HETATM    6  C17 UNL     1     -15.761  19.654  -8.108  1.00  0.00     0.032 A 
HETATM    7  C18 UNL     1     -15.878  19.083  -6.747  1.00  0.00     0.184 C 
HETATM    8  C30 UNL     1     -16.364  19.143  -9.327  1.00  0.00    -0.036 A 
HETATM    9  C31 UNL     1     -15.836  19.684 -10.650  1.00  0.00     0.016 C 
HETATM   10  C32 UNL     1     -16.963  17.775  -9.442  1.00  0.00     0.016 C 
ENDROOT
BRANCH   1  11
HETATM   11  C5  UNL     1     -19.064  17.686  -5.010  1.00  0.00     0.177 C 
BRANCH  11  12
HETATM   12  C4  UNL     1     -19.892  18.830  -4.514  1.00  0.00     0.038 C 
BRANCH  12  13
HETATM   13  C2  UNL     1     -20.004  18.922  -3.054  1.00  0.00    -0.020 C 
HETATM   14  C1  UNL     1     -20.305  17.517  -2.455  1.00  0.00     0.009 C 
HETATM   15  C3  UNL     1     -18.813  19.388  -2.285  1.00  0.00     0.009 C 
ENDBRANCH  12  13
ENDBRANCH  11  12
BRANCH  11  16
HETATM   16  N1  UNL     1     -19.720  17.009  -6.081  1.00  0.00    -0.341 N 
HETATM   17  C6  UNL     1     -20.512  15.839  -5.996  1.00  0.00     0.288 C 
HETATM   18  O1  UNL     1     -20.701  15.277  -4.902  1.00  0.00    -0.264 OA
ATOM     19  H1  UNL     1     -19.606  17.412  -7.011  1.00  0.00     0.163 HD
BRANCH  17  20
HETATM   20  C7  UNL     1     -21.135  15.248  -7.167  1.00  0.00     0.220 C 
HETATM   21  O2  UNL     1     -20.486  14.368  -7.795  1.00  0.00    -0.287 OA
BRANCH  20  22
HETATM   22  C8  UNL     1     -22.465  15.605  -7.668  1.00  0.00     0.065 C 
HETATM   23  C9  UNL     1     -22.834  17.045  -7.468  1.00  0.00     0.013 C 
HETATM   24  C10 UNL     1     -23.692  17.289  -6.243  1.00  0.00     0.001 C 
HETATM   25  C11 UNL     1     -25.014  16.544  -6.368  1.00  0.00     0.000 C 
HETATM   26  C12 UNL     1     -24.870  15.393  -7.360  1.00  0.00     0.001 C 
HETATM   27  C13 UNL     1     -23.547  14.702  -7.070  1.00  0.00     0.013 C 
ENDBRANCH  20  22
ENDBRANCH  17  20
ENDBRANCH  11  16
ENDBRANCH   1  11
BRANCH   7  28
HETATM   28  C19 UNL     1     -15.395  20.077  -5.766  1.00  0.00     0.241 C 
HETATM   29  O4  UNL     1     -14.218  19.938  -5.353  1.00  0.00    -0.271 OA
HETATM   30  N3  UNL     1     -16.182  21.130  -5.303  1.00  0.00    -0.347 N 
ATOM     31  H3  UNL     1     -17.133  21.208  -5.662  1.00  0.00     0.163 HD
BRANCH  30  32
HETATM   32  C20 UNL     1     -15.723  22.148  -4.316  1.00  0.00     0.071 A 
HETATM   33  C27 UNL     1     -16.856  22.486  -3.335  1.00  0.00     0.041 A 
HETATM   34  C28 UNL     1     -15.604  21.653  -2.974  1.00  0.00     0.015 A 
HETATM   35  C29 UNL     1     -14.895  22.200  -1.797  1.00  0.00     0.012 C 
BRANCH  32  36
HETATM   36  C21 UNL     1     -15.074  23.281  -5.008  1.00  0.00     0.238 C 
BRANCH  36  37
HETATM   37  O5  UNL     1     -15.696  24.447  -4.448  1.00  0.00    -0.384 OA
ATOM     38  H5  UNL     1     -16.411  24.106  -3.924  1.00  0.00     0.210 HD
ENDBRANCH  36  37
BRANCH  36  39
HETATM   39  C22 UNL     1     -13.644  23.469  -4.903  1.00  0.00     0.251 C 
HETATM   40  O6  UNL     1     -12.930  22.884  -5.792  1.00  0.00    -0.270 OA
HETATM   41  N4  UNL     1     -12.941  24.214  -3.943  1.00  0.00    -0.350 N 
HETATM   42  C23 UNL     1     -11.509  24.367  -3.894  1.00  0.00     0.126 C 
HETATM   43  C26 UNL     1     -13.506  24.945  -2.851  1.00  0.00     0.126 C 
HETATM   44  C24 UNL     1     -11.156  24.943  -2.565  1.00  0.00     0.021 C 
HETATM   45  C25 UNL     1     -12.415  25.534  -2.020  1.00  0.00     0.021 C 
ENDBRANCH  36  39
ENDBRANCH  32  36
ENDBRANCH  30  32
ENDBRANCH   7  28
TORSDOF 11
ENDMDL
MODEL 4
REMARK VINA RESULT: -9.503433400      2.621      8.766
REMARK  11 active torsions:
REMARK  status: ('A' for Active; 'I' for Inactive)
REMARK    1  A    between atoms: C2_2  and  C4_4 
REMARK    2  A    between atoms: C4_4  and  C5_5 
REMARK    3  A    between atoms: C5_5  and  N1_6 
REMARK    4  A    between atoms: C5_5  and  C14_18 
REMARK       I    between atoms: N1_6  and  C6_8 
REMARK    5  A    between atoms: C6_8  and  C7_10 
REMARK    6  A    between atoms: C7_10  and  C8_12 
REMARK       I    between atoms: C14_18  and  N2_20 
REMARK    7  A    between atoms: C18_24  and  C19_25 
REMARK       I    between atoms: C19_25  and  N3_27 
REMARK    8  A    between atoms: N3_27  and  C20_29 
REMARK    9  A    between atoms: C20_29  and  C21_30 
REMARK   10  A    between atoms: C21_30  and  O5_31 
REMARK   11  A    between atoms: C21_30  and  C22_33 
REMARK       I    between atoms: C22_33  and  N4_35 
ROOT
HETATM    1  C14 UNL     1     -19.523  19.622  -7.582  1.00  0.00     0.243 C 
HETATM    2  O3  UNL     1     -19.544  20.852  -7.938  1.00  0.00    -0.271 OA
HETATM    3  N2  UNL     1     -18.996  19.280  -6.318  1.00  0.00    -0.336 N 
HETATM    4  C15 UNL     1     -18.791  18.014  -5.704  1.00  0.00     0.132 C 
HETATM    5  C16 UNL     1     -18.206  18.295  -4.327  1.00  0.00     0.019 A 
HETATM    6  C17 UNL     1     -18.317  19.729  -4.068  1.00  0.00     0.032 A 
HETATM    7  C18 UNL     1     -18.560  20.337  -5.396  1.00  0.00     0.184 C 
HETATM    8  C30 UNL     1     -19.205  18.842  -3.336  1.00  0.00    -0.036 A 
HETATM    9  C31 UNL     1     -18.907  18.616  -1.859  1.00  0.00     0.016 C 
HETATM   10  C32 UNL     1     -20.647  18.641  -3.689  1.00  0.00     0.016 C 
ENDROOT
BRANCH   1  11
HETATM   11  C5  UNL     1     -20.061  18.644  -8.559  1.00  0.00     0.177 C 
BRANCH  11  12
HETATM   12  C4  UNL     1     -19.078  17.583  -8.944  1.00  0.00     0.038 C 
BRANCH  12  13
HETATM   13  C2  UNL     1     -17.758  18.082  -9.344  1.00  0.00    -0.020 C 
HETATM   14  C1  UNL     1     -16.642  17.249  -8.648  1.00  0.00     0.009 C 
HETATM   15  C3  UNL     1     -17.393  18.025 -10.790  1.00  0.00     0.009 C 
ENDBRANCH  12  13
ENDBRANCH  11  12
BRANCH  11  16
HETATM   16  N1  UNL     1     -21.295  18.066  -8.136  1.00  0.00    -0.341 N 
HETATM   17  C6  UNL     1     -21.520  16.728  -7.736  1.00  0.00     0.288 C 
HETATM   18  O1  UNL     1     -20.590  15.901  -7.731  1.00  0.00    -0.264 OA
ATOM     19  H1  UNL     1     -22.105  18.687  -8.119  1.00  0.00     0.163 HD
BRANCH  17  20
HETATM   20  C7  UNL     1     -22.830  16.262  -7.317  1.00  0.00     0.220 C 
HETATM   21  O2  UNL     1     -22.960  15.036  -7.056  1.00  0.00    -0.287 OA
BRANCH  20  22
HETATM   22  C8  UNL     1     -24.009  17.120  -7.177  1.00  0.00     0.065 C 
HETATM   23  C9  UNL     1     -24.250  17.616  -5.782  1.00  0.00     0.013 C 
HETATM   24  C10 UNL     1     -25.272  16.802  -5.015  1.00  0.00     0.001 C 
HETATM   25  C11 UNL     1     -26.626  16.867  -5.709  1.00  0.00     0.000 C 
HETATM   26  C12 UNL     1     -26.440  17.239  -7.178  1.00  0.00     0.001 C 
HETATM   27  C13 UNL     1     -25.268  16.430  -7.709  1.00  0.00     0.013 C 
ENDBRANCH  20  22
ENDBRANCH  17  20
ENDBRANCH  11  16
ENDBRANCH   1  11
BRANCH   7  28
HETATM   28  C19 UNL     1     -17.290  20.892  -5.909  1.00  0.00     0.241 C 
HETATM   29  O4  UNL     1     -17.151  22.138  -5.849  1.00  0.00    -0.271 OA
HETATM   30  N3  UNL     1     -16.274  20.098  -6.440  1.00  0.00    -0.347 N 
ATOM     31  H3  UNL     1     -16.425  19.090  -6.472  1.00  0.00     0.163 HD
BRANCH  30  32
HETATM   32  C20 UNL     1     -14.983  20.627  -6.962  1.00  0.00     0.071 A 
HETATM   33  C27 UNL     1     -14.635  19.954  -8.299  1.00  0.00     0.041 A 
HETATM   34  C28 UNL     1     -15.112  21.418  -8.154  1.00  0.00     0.015 A 
HETATM   35  C29 UNL     1     -14.179  22.372  -8.792  1.00  0.00     0.012 C 
BRANCH  32  36
HETATM   36  C21 UNL     1     -13.949  20.599  -5.907  1.00  0.00     0.238 C 
BRANCH  36  37
HETATM   37  O5  UNL     1     -12.824  19.958  -6.526  1.00  0.00    -0.384 OA
ATOM     38  H5  UNL     1     -13.165  19.617  -7.345  1.00  0.00     0.210 HD
ENDBRANCH  36  37
BRANCH  36  39
HETATM   39  C22 UNL     1     -13.471  21.836  -5.331  1.00  0.00     0.251 C 
HETATM   40  O6  UNL     1     -12.514  22.417  -5.956  1.00  0.00    -0.270 OA
HETATM   41  N4  UNL     1     -13.926  22.479  -4.170  1.00  0.00    -0.350 N 
HETATM   42  C23 UNL     1     -13.409  23.719  -3.648  1.00  0.00     0.126 C 
HETATM   43  C26 UNL     1     -14.970  22.030  -3.300  1.00  0.00     0.126 C 
HETATM   44  C24 UNL     1     -13.924  23.880  -2.258  1.00  0.00     0.021 C 
HETATM   45  C25 UNL     1     -15.093  22.958  -2.138  1.00  0.00     0.021 C 
ENDBRANCH  36  39
ENDBRANCH  32  36
ENDBRANCH  30  32
ENDBRANCH   7  28
TORSDOF 11
ENDMDL
MODEL 5
REMARK VINA RESULT: -9.448323977      1.921      2.751
REMARK  11 active torsions:
REMARK  status: ('A' for Active; 'I' for Inactive)
REMARK    1  A    between atoms: C2_2  and  C4_4 
REMARK    2  A    between atoms: C4_4  and  C5_5 
REMARK    3  A    between atoms: C5_5  and  N1_6 
REMARK    4  A    between atoms: C5_5  and  C14_18 
REMARK       I    between atoms: N1_6  and  C6_8 
REMARK    5  A    between atoms: C6_8  and  C7_10 
REMARK    6  A    between atoms: C7_10  and  C8_12 
REMARK       I    between atoms: C14_18  and  N2_20 
REMARK    7  A    between atoms: C18_24  and  C19_25 
REMARK       I    between atoms: C19_25  and  N3_27 
REMARK    8  A    between atoms: N3_27  and  C20_29 
REMARK    9  A    between atoms: C20_29  and  C21_30 
REMARK   10  A    between atoms: C21_30  and  O5_31 
REMARK   11  A    between atoms: C21_30  and  C22_33 
REMARK       I    between atoms: C22_33  and  N4_35 
ROOT
HETATM    1  C14 UNL     1     -16.280  21.369  -6.508  1.00  0.00     0.243 C 
HETATM    2  O3  UNL     1     -17.272  22.122  -6.208  1.00  0.00    -0.271 OA
HETATM    3  N2  UNL     1     -16.512  20.175  -7.222  1.00  0.00    -0.336 N 
HETATM    4  C15 UNL     1     -15.624  19.139  -7.622  1.00  0.00     0.132 C 
HETATM    5  C16 UNL     1     -16.465  18.123  -8.382  1.00  0.00     0.019 A 
HETATM    6  C17 UNL     1     -17.781  18.711  -8.627  1.00  0.00     0.032 A 
HETATM    7  C18 UNL     1     -17.868  19.852  -7.687  1.00  0.00     0.184 C 
HETATM    8  C30 UNL     1     -16.881  18.577  -9.760  1.00  0.00    -0.036 A 
HETATM    9  C31 UNL     1     -17.197  17.490 -10.780  1.00  0.00     0.016 C 
HETATM   10  C32 UNL     1     -16.097  19.719 -10.332  1.00  0.00     0.016 C 
ENDROOT
BRANCH   1  11
HETATM   11  C5  UNL     1     -14.944  21.832  -6.058  1.00  0.00     0.177 C 
BRANCH  11  12
HETATM   12  C4  UNL     1     -14.049  22.253  -7.182  1.00  0.00     0.038 C 
BRANCH  12  13
HETATM   13  C2  UNL     1     -12.652  21.825  -7.051  1.00  0.00    -0.020 C 
HETATM   14  C1  UNL     1     -12.414  20.528  -7.878  1.00  0.00     0.009 C 
HETATM   15  C3  UNL     1     -11.585  22.752  -7.529  1.00  0.00     0.009 C 
ENDBRANCH  12  13
ENDBRANCH  11  12
BRANCH  11  16
HETATM   16  N1  UNL     1     -15.021  22.849  -5.060  1.00  0.00    -0.341 N 
HETATM   17  C6  UNL     1     -14.877  22.687  -3.662  1.00  0.00     0.288 C 
HETATM   18  O1  UNL     1     -14.661  21.565  -3.170  1.00  0.00    -0.264 OA
ATOM     19  H1  UNL     1     -15.201  23.797  -5.391  1.00  0.00     0.163 HD
BRANCH  17  20
HETATM   20  C7  UNL     1     -14.971  23.811  -2.747  1.00  0.00     0.220 C 
HETATM   21  O2  UNL     1     -15.982  23.871  -1.995  1.00  0.00    -0.287 OA
BRANCH  20  22
HETATM   22  C8  UNL     1     -13.973  24.877  -2.638  1.00  0.00     0.065 C 
HETATM   23  C9  UNL     1     -13.549  25.464  -3.952  1.00  0.00     0.013 C 
HETATM   24  C10 UNL     1     -12.256  24.884  -4.488  1.00  0.00     0.001 C 
HETATM   25  C11 UNL     1     -11.111  25.171  -3.526  1.00  0.00     0.000 C 
HETATM   26  C12 UNL     1     -11.661  25.445  -2.129  1.00  0.00     0.001 C 
HETATM   27  C13 UNL     1     -12.743  24.412  -1.854  1.00  0.00     0.013 C 
ENDBRANCH  20  22
ENDBRANCH  17  20
ENDBRANCH  11  16
ENDBRANCH   1  11
BRANCH   7  28
HETATM   28  C19 UNL     1     -18.665  19.444  -6.511  1.00  0.00     0.241 C 
HETATM   29  O4  UNL     1     -19.816  19.936  -6.410  1.00  0.00    -0.271 OA
HETATM   30  N3  UNL     1     -18.193  18.560  -5.543  1.00  0.00    -0.347 N 
ATOM     31  H3  UNL     1     -17.253  18.183  -5.660  1.00  0.00     0.163 HD
BRANCH  30  32
HETATM   32  C20 UNL     1     -18.974  18.129  -4.349  1.00  0.00     0.071 A 
HETATM   33  C27 UNL     1     -18.093  18.184  -3.091  1.00  0.00     0.041 A 
HETATM   34  C28 UNL     1     -19.232  19.181  -3.407  1.00  0.00     0.015 A 
HETATM   35  C29 UNL     1     -20.210  19.275  -2.301  1.00  0.00     0.012 C 
BRANCH  32  36
HETATM   36  C21 UNL     1     -19.676  16.859  -4.622  1.00  0.00     0.238 C 
BRANCH  36  37
HETATM   37  O5  UNL     1     -20.290  16.513  -3.372  1.00  0.00    -0.384 OA
ATOM     38  H5  UNL     1     -20.127  15.581  -3.277  1.00  0.00     0.210 HD
ENDBRANCH  36  37
BRANCH  36  39
HETATM   39  C22 UNL     1     -20.709  16.807  -5.633  1.00  0.00     0.251 C 
HETATM   40  O6  UNL     1     -21.866  17.230  -5.279  1.00  0.00    -0.270 OA
HETATM   41  N4  UNL     1     -20.600  16.348  -6.955  1.00  0.00    -0.350 N 
HETATM   42  C23 UNL     1     -21.671  16.327  -7.919  1.00  0.00     0.126 C 
HETATM   43  C26 UNL     1     -19.425  15.824  -7.581  1.00  0.00     0.126 C 
HETATM   44  C24 UNL     1     -21.235  15.480  -9.066  1.00  0.00     0.021 C 
HETATM   45  C25 UNL     1     -19.749  15.378  -8.968  1.00  0.00     0.021 C 
ENDBRANCH  36  39
ENDBRANCH  32  36
ENDBRANCH  30  32
ENDBRANCH   7  28
TORSDOF 11
ENDMDL
