MODEL 1
REMARK VINA RESULT: -9.701734115      0.000      0.000
REMARK  11 active torsions:
REMARK  status: ('A' for Active; 'I' for Inactive)
REMARK    1  A    between atoms: C2_2  and  C3_3 
REMARK    2  A    between atoms: C3_3  and  C4_4 
REMARK    3  A    between atoms: C4_4  and  C5_5 
REMARK    4  A    between atoms: C9_13  and  C10_14 
REMARK    5  A    between atoms: C10_14  and  C11_15 
REMARK    6  A    between atoms: C19_27  and  O3_28 
REMARK    7  A    between atoms: C20_30  and  C21_31 
REMARK    8  A    between atoms: C21_31  and  C22_32 
REMARK    9  A    between atoms: C25_37  and  O4_38 
REMARK   10  A    between atoms: C26_40  and  C27_41 
REMARK   11  A    between atoms: C27_41  and  C28_42 
ROOT
HETATM    1  C5  UNL     1      -8.271  15.586  29.087  1.00  0.00     0.176 C 
HETATM    2  N1  UNL     1      -7.706  16.420  28.039  1.00  0.00    -0.347 N 
ATOM      3  H1  UNL     1      -7.177  17.233  28.353  1.00  0.00     0.163 HD
HETATM    4  C6  UNL     1      -7.797  16.246  26.644  1.00  0.00     0.225 C 
HETATM    5  O1  UNL     1      -6.752  16.454  25.923  1.00  0.00    -0.273 OA
HETATM    6  C7  UNL     1      -8.971  15.838  25.847  1.00  0.00     0.183 C 
HETATM    7  C8  UNL     1      -8.754  14.562  25.065  1.00  0.00     0.158 C 
HETATM    8  O2  UNL     1      -7.634  14.057  25.257  1.00  0.00    -0.295 OA
HETATM    9  C9  UNL     1      -9.725  13.985  24.193  1.00  0.00     0.158 C 
HETATM   10  N3  UNL     1     -10.952  13.425  24.597  1.00  0.00    -0.361 N 
ATOM     11  H3  UNL     1     -11.593  13.374  23.805  1.00  0.00     0.162 HD
HETATM   12  C19 UNL     1     -11.557  12.926  25.730  1.00  0.00     0.135 C 
HETATM   13  C20 UNL     1     -11.980  13.538  27.030  1.00  0.00     0.158 C 
HETATM   14  N4  UNL     1     -11.001  13.295  28.065  1.00  0.00    -0.361 N 
ATOM     15  H4  UNL     1     -10.077  13.194  27.645  1.00  0.00     0.162 HD
HETATM   16  C25 UNL     1     -10.906  13.155  29.419  1.00  0.00     0.135 C 
HETATM   17  C26 UNL     1     -11.022  14.067  30.572  1.00  0.00     0.159 C 
HETATM   18  N5  UNL     1     -10.501  15.401  30.408  1.00  0.00    -0.347 N 
ATOM     19  H5  UNL     1     -10.833  16.054  31.117  1.00  0.00     0.163 HD
HETATM   20  C31 UNL     1      -9.641  15.980  29.485  1.00  0.00     0.241 C 
HETATM   21  O5  UNL     1     -10.043  17.032  28.845  1.00  0.00    -0.271 OA
ENDROOT
BRANCH   9  22
HETATM   22  C10 UNL     1     -10.008  15.006  23.070  1.00  0.00     0.073 C 
BRANCH  22  23
HETATM   23  C11 UNL     1      -9.041  14.825  21.975  1.00  0.00    -0.028 A 
HETATM   24  C12 UNL     1      -8.975  13.880  21.002  1.00  0.00     0.096 A 
HETATM   25  N2  UNL     1      -7.916  14.084  20.202  1.00  0.00    -0.365 N 
HETATM   26  C13 UNL     1      -7.257  15.192  20.650  1.00  0.00     0.042 A 
ATOM     27  H2  UNL     1      -7.650  13.512  19.401  1.00  0.00     0.165 HD
HETATM   28  C14 UNL     1      -6.118  15.793  20.160  1.00  0.00     0.030 A 
HETATM   29  C18 UNL     1      -7.948  15.668  21.761  1.00  0.00    -0.002 A 
HETATM   30  C15 UNL     1      -5.618  16.918  20.778  1.00  0.00     0.002 A 
HETATM   31  C16 UNL     1      -6.285  17.406  21.878  1.00  0.00     0.001 A 
HETATM   32  C17 UNL     1      -7.437  16.787  22.363  1.00  0.00     0.014 A 
ENDBRANCH  22  23
ENDBRANCH   9  22
BRANCH  12  33
HETATM   33  O3  UNL     1     -11.857  11.661  25.760  1.00  0.00    -0.348 OA
ATOM     34  H3  UNL     1     -11.667  11.173  26.553  1.00  0.00     0.219 HD
ENDBRANCH  12  33
BRANCH  13  35
HETATM   35  C21 UNL     1     -13.367  13.185  27.411  1.00  0.00     0.037 C 
BRANCH  35  36
HETATM   36  C22 UNL     1     -13.620  12.425  28.627  1.00  0.00    -0.020 C 
HETATM   37  C23 UNL     1     -14.821  12.646  29.443  1.00  0.00     0.009 C 
HETATM   38  C24 UNL     1     -13.653  10.931  28.239  1.00  0.00     0.009 C 
ENDBRANCH  35  36
ENDBRANCH  13  35
BRANCH   1  39
HETATM   39  C4  UNL     1      -7.328  15.297  30.190  1.00  0.00     0.035 C 
BRANCH  39  40
HETATM   40  C3  UNL     1      -7.350  16.070  31.426  1.00  0.00     0.002 C 
BRANCH  40  41
HETATM   41  C2  UNL     1      -7.694  15.215  32.620  1.00  0.00    -0.004 C 
HETATM   42  C1  UNL     1      -7.632  13.749  32.162  1.00  0.00     0.005 C 
ENDBRANCH  40  41
ENDBRANCH  39  40
ENDBRANCH   1  39
BRANCH  16  43
HETATM   43  O4  UNL     1     -10.651  11.932  29.826  1.00  0.00    -0.348 OA
ATOM     44  H4  UNL     1     -11.421  11.409  30.012  1.00  0.00     0.219 HD
ENDBRANCH  16  43
BRANCH  17  45
HETATM   45  C27 UNL     1     -12.388  14.091  31.229  1.00  0.00     0.037 C 
BRANCH  45  46
HETATM   46  C28 UNL     1     -12.402  13.514  32.621  1.00  0.00    -0.020 C 
HETATM   47  C29 UNL     1     -12.520  12.012  32.645  1.00  0.00     0.009 C 
HETATM   48  C30 UNL     1     -11.186  13.975  33.411  1.00  0.00     0.009 C 
ENDBRANCH  45  46
ENDBRANCH  17  45
TORSDOF 11
ENDMDL
MODEL 2
REMARK VINA RESULT: -9.526410552      3.278      9.257
REMARK  11 active torsions:
REMARK  status: ('A' for Active; 'I' for Inactive)
REMARK    1  A    between atoms: C2_2  and  C3_3 
REMARK    2  A    between atoms: C3_3  and  C4_4 
REMARK    3  A    between atoms: C4_4  and  C5_5 
REMARK    4  A    between atoms: C9_13  and  C10_14 
REMARK    5  A    between atoms: C10_14  and  C11_15 
REMARK    6  A    between atoms: C19_27  and  O3_28 
REMARK    7  A    between atoms: C20_30  and  C21_31 
REMARK    8  A    between atoms: C21_31  and  C22_32 
REMARK    9  A    between atoms: C25_37  and  O4_38 
REMARK   10  A    between atoms: C26_40  and  C27_41 
REMARK   11  A    between atoms: C27_41  and  C28_42 
ROOT
HETATM    1  C5  UNL     1      -7.941  15.265  30.997  1.00  0.00     0.176 C 
HETATM    2  N1  UNL     1      -7.488  15.000  32.352  1.00  0.00    -0.347 N 
ATOM      3  H1  UNL     1      -6.488  15.114  32.518  1.00  0.00     0.163 HD
HETATM    4  C6  UNL     1      -8.256  14.604  33.465  1.00  0.00     0.225 C 
HETATM    5  O1  UNL     1      -8.012  15.138  34.610  1.00  0.00    -0.273 OA
HETATM    6  C7  UNL     1      -9.356  13.619  33.515  1.00  0.00     0.183 C 
HETATM    7  C8  UNL     1     -10.669  14.207  33.979  1.00  0.00     0.158 C 
HETATM    8  O2  UNL     1     -10.604  15.428  34.205  1.00  0.00    -0.295 OA
HETATM    9  C9  UNL     1     -11.868  13.451  34.146  1.00  0.00     0.158 C 
HETATM   10  N3  UNL     1     -12.603  12.851  33.106  1.00  0.00    -0.361 N 
ATOM     11  H3  UNL     1     -13.212  12.123  33.479  1.00  0.00     0.162 HD
HETATM   12  C19 UNL     1     -12.757  12.942  31.739  1.00  0.00     0.135 C 
HETATM   13  C20 UNL     1     -11.850  12.671  30.578  1.00  0.00     0.158 C 
HETATM   14  N4  UNL     1     -11.262  13.894  30.079  1.00  0.00    -0.361 N 
ATOM     15  H4  UNL     1     -11.191  14.573  30.837  1.00  0.00     0.162 HD
HETATM   16  C25 UNL     1     -10.770  14.438  28.928  1.00  0.00     0.135 C 
HETATM   17  C26 UNL     1      -9.565  14.224  28.105  1.00  0.00     0.159 C 
HETATM   18  N5  UNL     1      -8.339  13.931  28.802  1.00  0.00    -0.347 N 
ATOM     19  H5  UNL     1      -7.615  13.541  28.199  1.00  0.00     0.163 HD
HETATM   20  C31 UNL     1      -7.938  14.069  30.124  1.00  0.00     0.241 C 
HETATM   21  O5  UNL     1      -7.479  13.027  30.742  1.00  0.00    -0.271 OA
ENDROOT
BRANCH   9  22
HETATM   22  C10 UNL     1     -11.596  12.379  35.223  1.00  0.00     0.073 C 
BRANCH  22  23
HETATM   23  C11 UNL     1     -12.668  11.370  35.205  1.00  0.00    -0.028 A 
HETATM   24  C12 UNL     1     -13.884  11.363  35.809  1.00  0.00     0.096 A 
HETATM   25  N2  UNL     1     -14.554  10.233  35.532  1.00  0.00    -0.365 N 
HETATM   26  C13 UNL     1     -13.768   9.465  34.723  1.00  0.00     0.042 A 
ATOM     27  H2  UNL     1     -15.487   9.990  35.867  1.00  0.00     0.165 HD
HETATM   28  C14 UNL     1     -14.018   8.224  34.178  1.00  0.00     0.030 A 
HETATM   29  C18 UNL     1     -12.583  10.163  34.509  1.00  0.00    -0.002 A 
HETATM   30  C15 UNL     1     -13.069   7.624  33.379  1.00  0.00     0.002 A 
HETATM   31  C16 UNL     1     -11.890   8.295  33.155  1.00  0.00     0.001 A 
HETATM   32  C17 UNL     1     -11.651   9.551  33.714  1.00  0.00     0.014 A 
ENDBRANCH  22  23
ENDBRANCH   9  22
BRANCH  12  33
HETATM   33  O3  UNL     1     -13.904  13.341  31.274  1.00  0.00    -0.348 OA
ATOM     34  H3  UNL     1     -13.930  13.706  30.397  1.00  0.00     0.219 HD
ENDBRANCH  12  33
BRANCH  13  35
HETATM   35  C21 UNL     1     -12.481  11.832  29.534  1.00  0.00     0.037 C 
BRANCH  35  36
HETATM   36  C22 UNL     1     -11.786  10.664  29.015  1.00  0.00    -0.020 C 
HETATM   37  C23 UNL     1     -11.994   9.324  29.579  1.00  0.00     0.009 C 
HETATM   38  C24 UNL     1     -12.140  10.542  27.518  1.00  0.00     0.009 C 
ENDBRANCH  35  36
ENDBRANCH  13  35
BRANCH   1  39
HETATM   39  C4  UNL     1      -7.375  16.501  30.412  1.00  0.00     0.035 C 
BRANCH  39  40
HETATM   40  C3  UNL     1      -6.207  16.460  29.539  1.00  0.00     0.002 C 
BRANCH  40  41
HETATM   41  C2  UNL     1      -6.549  16.844  28.122  1.00  0.00    -0.004 C 
HETATM   42  C1  UNL     1      -5.785  15.885  27.194  1.00  0.00     0.005 C 
ENDBRANCH  40  41
ENDBRANCH  39  40
ENDBRANCH   1  39
BRANCH  16  43
HETATM   43  O4  UNL     1     -11.522  15.378  28.404  1.00  0.00    -0.348 OA
ATOM     44  H4  UNL     1     -11.212  16.263  28.555  1.00  0.00     0.219 HD
ENDBRANCH  16  43
BRANCH  17  45
HETATM   45  C27 UNL     1      -9.759  13.293  26.925  1.00  0.00     0.037 C 
BRANCH  45  46
HETATM   46  C28 UNL     1      -9.755  13.995  25.591  1.00  0.00    -0.020 C 
HETATM   47  C29 UNL     1      -8.489  13.773  24.803  1.00  0.00     0.009 C 
HETATM   48  C30 UNL     1     -10.978  13.611  24.772  1.00  0.00     0.009 C 
ENDBRANCH  45  46
ENDBRANCH  17  45
TORSDOF 11
ENDMDL
MODEL 3
REMARK VINA RESULT: -9.394733739      2.347      9.714
REMARK  11 active torsions:
REMARK  status: ('A' for Active; 'I' for Inactive)
REMARK    1  A    between atoms: C2_2  and  C3_3 
REMARK    2  A    between atoms: C3_3  and  C4_4 
REMARK    3  A    between atoms: C4_4  and  C5_5 
REMARK    4  A    between atoms: C9_13  and  C10_14 
REMARK    5  A    between atoms: C10_14  and  C11_15 
REMARK    6  A    between atoms: C19_27  and  O3_28 
REMARK    7  A    between atoms: C20_30  and  C21_31 
REMARK    8  A    between atoms: C21_31  and  C22_32 
REMARK    9  A    between atoms: C25_37  and  O4_38 
REMARK   10  A    between atoms: C26_40  and  C27_41 
REMARK   11  A    between atoms: C27_41  and  C28_42 
ROOT
HETATM    1  C5  UNL     1      -9.399  14.976  24.770  1.00  0.00     0.176 C 
HETATM    2  N1  UNL     1     -10.394  14.902  25.827  1.00  0.00    -0.347 N 
ATOM      3  H1  UNL     1     -11.366  14.851  25.523  1.00  0.00     0.163 HD
HETATM    4  C6  UNL     1     -10.184  14.892  27.221  1.00  0.00     0.225 C 
HETATM    5  O1  UNL     1     -10.880  14.090  27.948  1.00  0.00    -0.273 OA
HETATM    6  C7  UNL     1      -9.236  15.704  28.010  1.00  0.00     0.183 C 
HETATM    7  C8  UNL     1      -8.232  14.878  28.781  1.00  0.00     0.158 C 
HETATM    8  O2  UNL     1      -8.357  13.655  28.589  1.00  0.00    -0.295 OA
HETATM    9  C9  UNL     1      -7.239  15.429  29.645  1.00  0.00     0.158 C 
HETATM   10  N3  UNL     1      -6.145  16.213  29.230  1.00  0.00    -0.361 N 
ATOM     11  H3  UNL     1      -5.772  16.741  30.019  1.00  0.00     0.162 HD
HETATM   12  C19 UNL     1      -5.420  16.488  28.091  1.00  0.00     0.135 C 
HETATM   13  C20 UNL     1      -5.752  17.163  26.795  1.00  0.00     0.158 C 
HETATM   14  N4  UNL     1      -6.040  16.194  25.762  1.00  0.00    -0.361 N 
ATOM     15  H4  UNL     1      -6.411  15.343  26.184  1.00  0.00     0.162 HD
HETATM   16  C25 UNL     1      -5.980  16.044  24.406  1.00  0.00     0.135 C 
HETATM   17  C26 UNL     1      -6.723  16.602  23.261  1.00  0.00     0.159 C 
HETATM   18  N5  UNL     1      -8.137  16.817  23.439  1.00  0.00    -0.347 N 
ATOM     19  H5  UNL     1      -8.543  17.432  22.735  1.00  0.00     0.163 HD
HETATM   20  C31 UNL     1      -9.060  16.361  24.370  1.00  0.00     0.241 C 
HETATM   21  O5  UNL     1      -9.764  17.233  25.019  1.00  0.00    -0.271 OA
ENDROOT
BRANCH   9  22
HETATM   22  C10 UNL     1      -7.970  16.183  30.775  1.00  0.00     0.073 C 
BRANCH  22  23
HETATM   23  C11 UNL     1      -8.309  15.248  31.861  1.00  0.00    -0.028 A 
HETATM   24  C12 UNL     1      -7.530  14.695  32.825  1.00  0.00     0.096 A 
HETATM   25  N2  UNL     1      -8.248  13.883  33.618  1.00  0.00    -0.365 N 
HETATM   26  C13 UNL     1      -9.538  13.892  33.174  1.00  0.00     0.042 A 
ATOM     27  H2  UNL     1      -7.891  13.352  34.413  1.00  0.00     0.165 HD
HETATM   28  C14 UNL     1     -10.637  13.218  33.659  1.00  0.00     0.030 A 
HETATM   29  C18 UNL     1      -9.594  14.742  32.073  1.00  0.00    -0.002 A 
HETATM   30  C15 UNL     1     -11.861  13.376  33.047  1.00  0.00     0.002 A 
HETATM   31  C16 UNL     1     -11.939  14.210  31.956  1.00  0.00     0.001 A 
HETATM   32  C17 UNL     1     -10.817  14.886  31.476  1.00  0.00     0.014 A 
ENDBRANCH  22  23
ENDBRANCH   9  22
BRANCH  12  33
HETATM   33  O3  UNL     1      -4.175  16.116  28.048  1.00  0.00    -0.348 OA
ATOM     34  H3  UNL     1      -3.977  15.195  28.169  1.00  0.00     0.219 HD
ENDBRANCH  12  33
BRANCH  13  35
HETATM   35  C21 UNL     1      -4.756  18.187  26.405  1.00  0.00     0.037 C 
BRANCH  35  36
HETATM   36  C22 UNL     1      -4.050  18.076  25.138  1.00  0.00    -0.020 C 
HETATM   37  C23 UNL     1      -3.698  19.258  24.340  1.00  0.00     0.009 C 
HETATM   38  C24 UNL     1      -2.715  17.352  25.415  1.00  0.00     0.009 C 
ENDBRANCH  35  36
ENDBRANCH  13  35
BRANCH   1  39
HETATM   39  C4  UNL     1      -9.631  14.017  23.668  1.00  0.00     0.035 C 
BRANCH  39  40
HETATM   40  C3  UNL     1     -10.249  14.437  22.416  1.00  0.00     0.002 C 
BRANCH  40  41
HETATM   41  C2  UNL     1      -9.327  14.242  21.239  1.00  0.00    -0.004 C 
HETATM   42  C1  UNL     1      -8.105  13.457  21.744  1.00  0.00     0.005 C 
ENDBRANCH  40  41
ENDBRANCH  39  40
ENDBRANCH   1  39
BRANCH  16  43
HETATM   43  O4  UNL     1      -5.052  15.213  23.990  1.00  0.00    -0.348 OA
ATOM     44  H4  UNL     1      -5.374  14.355  23.739  1.00  0.00     0.219 HD
ENDBRANCH  16  43
BRANCH  17  45
HETATM   45  C27 UNL     1      -6.067  17.798  22.600  1.00  0.00     0.037 C 
BRANCH  45  46
HETATM   46  C28 UNL     1      -5.490  17.498  21.240  1.00  0.00    -0.020 C 
HETATM   47  C29 UNL     1      -4.064  17.011  21.290  1.00  0.00     0.009 C 
HETATM   48  C30 UNL     1      -6.371  16.518  20.481  1.00  0.00     0.009 C 
ENDBRANCH  45  46
ENDBRANCH  17  45
TORSDOF 11
ENDMDL
MODEL 4
REMARK VINA RESULT: -9.384783885      2.176      5.518
REMARK  11 active torsions:
REMARK  status: ('A' for Active; 'I' for Inactive)
REMARK    1  A    between atoms: C2_2  and  C3_3 
REMARK    2  A    between atoms: C3_3  and  C4_4 
REMARK    3  A    between atoms: C4_4  and  C5_5 
REMARK    4  A    between atoms: C9_13  and  C10_14 
REMARK    5  A    between atoms: C10_14  and  C11_15 
REMARK    6  A    between atoms: C19_27  and  O3_28 
REMARK    7  A    between atoms: C20_30  and  C21_31 
REMARK    8  A    between atoms: C21_31  and  C22_32 
REMARK    9  A    between atoms: C25_37  and  O4_38 
REMARK   10  A    between atoms: C26_40  and  C27_41 
REMARK   11  A    between atoms: C27_41  and  C28_42 
ROOT
HETATM    1  C5  UNL     1     -13.451  11.144  29.509  1.00  0.00     0.176 C 
HETATM    2  N1  UNL     1     -13.098  10.538  28.236  1.00  0.00    -0.347 N 
ATOM      3  H1  UNL     1     -13.400   9.573  28.103  1.00  0.00     0.163 HD
HETATM    4  C6  UNL     1     -12.392  11.117  27.162  1.00  0.00     0.225 C 
HETATM    5  O1  UNL     1     -12.798  10.895  25.961  1.00  0.00    -0.273 OA
HETATM    6  C7  UNL     1     -11.197  11.983  27.213  1.00  0.00     0.183 C 
HETATM    7  C8  UNL     1     -11.416  13.347  26.599  1.00  0.00     0.158 C 
HETATM    8  O2  UNL     1     -12.578  13.516  26.188  1.00  0.00    -0.295 OA
HETATM    9  C9  UNL     1     -10.404  14.347  26.494  1.00  0.00     0.158 C 
HETATM   10  N3  UNL     1      -9.816  15.026  27.578  1.00  0.00    -0.361 N 
ATOM     11  H3  UNL     1      -8.928  15.441  27.293  1.00  0.00     0.162 HD
HETATM   12  C19 UNL     1     -10.065  15.305  28.904  1.00  0.00     0.135 C 
HETATM   13  C20 UNL     1     -10.164  14.459  30.136  1.00  0.00     0.158 C 
HETATM   14  N4  UNL     1     -11.542  14.176  30.466  1.00  0.00    -0.361 N 
ATOM     15  H4  UNL     1     -12.106  14.185  29.615  1.00  0.00     0.162 HD
HETATM   16  C25 UNL     1     -12.338  13.902  31.540  1.00  0.00     0.135 C 
HETATM   17  C26 UNL     1     -12.508  12.749  32.445  1.00  0.00     0.159 C 
HETATM   18  N5  UNL     1     -12.388  11.436  31.863  1.00  0.00    -0.347 N 
ATOM     19  H5  UNL     1     -12.253  10.699  32.555  1.00  0.00     0.163 HD
HETATM   20  C31 UNL     1     -12.420  10.967  30.557  1.00  0.00     0.241 C 
HETATM   21  O5  UNL     1     -11.424  10.256  30.133  1.00  0.00    -0.271 OA
ENDROOT
BRANCH   9  22
HETATM   22  C10 UNL     1      -9.274  13.776  25.612  1.00  0.00     0.073 C 
BRANCH  22  23
HETATM   23  C11 UNL     1      -8.798  14.809  24.679  1.00  0.00    -0.028 A 
HETATM   24  C12 UNL     1      -8.675  16.152  24.835  1.00  0.00     0.096 A 
HETATM   25  N2  UNL     1      -8.201  16.728  23.718  1.00  0.00    -0.365 N 
HETATM   26  C13 UNL     1      -8.002  15.747  22.791  1.00  0.00     0.042 A 
ATOM     27  H2  UNL     1      -8.022  17.723  23.586  1.00  0.00     0.165 HD
HETATM   28  C14 UNL     1      -7.531  15.843  21.500  1.00  0.00     0.030 A 
HETATM   29  C18 UNL     1      -8.371  14.538  23.376  1.00  0.00    -0.002 A 
HETATM   30  C15 UNL     1      -7.410  14.706  20.730  1.00  0.00     0.002 A 
HETATM   31  C16 UNL     1      -7.769  13.502  21.288  1.00  0.00     0.001 A 
HETATM   32  C17 UNL     1      -8.244  13.420  22.597  1.00  0.00     0.014 A 
ENDBRANCH  22  23
ENDBRANCH   9  22
BRANCH  12  33
HETATM   33  O3  UNL     1     -10.270  16.543  29.244  1.00  0.00    -0.348 OA
ATOM     34  H3  UNL     1     -10.729  16.715  30.058  1.00  0.00     0.219 HD
ENDBRANCH  12  33
BRANCH  13  35
HETATM   35  C21 UNL     1      -9.366  14.987  31.267  1.00  0.00     0.037 C 
BRANCH  35  36
HETATM   36  C22 UNL     1      -7.914  14.900  31.240  1.00  0.00    -0.020 C 
HETATM   37  C23 UNL     1      -7.063  16.077  31.462  1.00  0.00     0.009 C 
HETATM   38  C24 UNL     1      -7.492  13.876  32.316  1.00  0.00     0.009 C 
ENDBRANCH  35  36
ENDBRANCH  13  35
BRANCH   1  39
HETATM   39  C4  UNL     1     -14.849  10.893  29.920  1.00  0.00     0.035 C 
BRANCH  39  40
HETATM   40  C3  UNL     1     -15.177   9.863  30.900  1.00  0.00     0.002 C 
BRANCH  40  41
HETATM   41  C2  UNL     1     -15.339   8.508  30.260  1.00  0.00    -0.004 C 
HETATM   42  C1  UNL     1     -14.152   7.645  30.717  1.00  0.00     0.005 C 
ENDBRANCH  40  41
ENDBRANCH  39  40
ENDBRANCH   1  39
BRANCH  16  43
HETATM   43  O4  UNL     1     -13.159  14.871  31.874  1.00  0.00    -0.348 OA
ATOM     44  H4  UNL     1     -14.074  14.618  31.913  1.00  0.00     0.219 HD
ENDBRANCH  16  43
BRANCH  17  45
HETATM   45  C27 UNL     1     -11.734  12.843  33.745  1.00  0.00     0.037 C 
BRANCH  45  46
HETATM   46  C28 UNL     1     -11.928  11.655  34.653  1.00  0.00    -0.020 C 
HETATM   47  C29 UNL     1     -10.657  10.890  34.916  1.00  0.00     0.009 C 
HETATM   48  C30 UNL     1     -12.589  12.073  35.958  1.00  0.00     0.009 C 
ENDBRANCH  45  46
ENDBRANCH  17  45
TORSDOF 11
ENDMDL
MODEL 5
REMARK VINA RESULT: -9.373328144      2.330      7.704
REMARK  11 active torsions:
REMARK  status: ('A' for Active; 'I' for Inactive)
REMARK    1  A    between atoms: C2_2  and  C3_3 
REMARK    2  A    between atoms: C3_3  and  C4_4 
REMARK    3  A    between atoms: C4_4  and  C5_5 
REMARK    4  A    between atoms: C9_13  and  C10_14 
REMARK    5  A    between atoms: C10_14  and  C11_15 
REMARK    6  A    between atoms: C19_27  and  O3_28 
REMARK    7  A    between atoms: C20_30  and  C21_31 
REMARK    8  A    between atoms: C21_31  and  C22_32 
REMARK    9  A    between atoms: C25_37  and  O4_38 
REMARK   10  A    between atoms: C26_40  and  C27_41 
REMARK   11  A    between atoms: C27_41  and  C28_42 
ROOT
HETATM    1  C5  UNL     1      -7.917  15.381  29.576  1.00  0.00     0.176 C 
HETATM    2  N1  UNL     1      -8.712  14.361  30.237  1.00  0.00    -0.347 N 
ATOM      3  H1  UNL     1      -8.354  14.026  31.131  1.00  0.00     0.163 HD
HETATM    4  C6  UNL     1      -9.917  13.776  29.799  1.00  0.00     0.225 C 
HETATM    5  O1  UNL     1     -10.857  13.574  30.655  1.00  0.00    -0.273 OA
HETATM    6  C7  UNL     1     -10.281  13.340  28.436  1.00  0.00     0.183 C 
HETATM    7  C8  UNL     1     -11.497  14.048  27.882  1.00  0.00     0.158 C 
HETATM    8  O2  UNL     1     -11.959  14.902  28.659  1.00  0.00    -0.295 OA
HETATM    9  C9  UNL     1     -12.065  13.775  26.602  1.00  0.00     0.158 C 
HETATM   10  N3  UNL     1     -11.452  14.046  25.364  1.00  0.00    -0.361 N 
ATOM     11  H3  UNL     1     -11.887  13.492  24.627  1.00  0.00     0.162 HD
HETATM   12  C19 UNL     1     -10.445  14.827  24.838  1.00  0.00     0.135 C 
HETATM   13  C20 UNL     1      -8.958  14.849  25.013  1.00  0.00     0.158 C 
HETATM   14  N4  UNL     1      -8.558  15.869  25.956  1.00  0.00    -0.361 N 
ATOM     15  H4  UNL     1      -9.311  16.029  26.626  1.00  0.00     0.162 HD
HETATM   16  C25 UNL     1      -7.505  16.688  26.246  1.00  0.00     0.135 C 
HETATM   17  C26 UNL     1      -6.151  16.491  26.795  1.00  0.00     0.159 C 
HETATM   18  N5  UNL     1      -6.000  15.494  27.824  1.00  0.00    -0.347 N 
ATOM     19  H5  UNL     1      -5.030  15.217  27.979  1.00  0.00     0.163 HD
HETATM   20  C31 UNL     1      -6.900  14.833  28.650  1.00  0.00     0.241 C 
HETATM   21  O5  UNL     1      -6.893  13.538  28.657  1.00  0.00    -0.271 OA
ENDROOT
BRANCH   9  22
HETATM   22  C10 UNL     1     -12.523  12.302  26.600  1.00  0.00     0.073 C 
BRANCH  22  23
HETATM   23  C11 UNL     1     -13.293  12.016  27.822  1.00  0.00    -0.028 A 
HETATM   24  C12 UNL     1     -14.390  12.627  28.337  1.00  0.00     0.096 A 
HETATM   25  N2  UNL     1     -14.771  12.046  29.487  1.00  0.00    -0.365 N 
HETATM   26  C13 UNL     1     -13.908  11.022  29.747  1.00  0.00     0.042 A 
ATOM     27  H2  UNL     1     -15.566  12.321  30.063  1.00  0.00     0.165 HD
HETATM   28  C14 UNL     1     -13.887  10.140  30.806  1.00  0.00     0.030 A 
HETATM   29  C18 UNL     1     -12.975  10.990  28.715  1.00  0.00    -0.002 A 
HETATM   30  C15 UNL     1     -12.910   9.172  30.870  1.00  0.00     0.002 A 
HETATM   31  C16 UNL     1     -11.977   9.122  29.861  1.00  0.00     0.001 A 
HETATM   32  C17 UNL     1     -12.010  10.021  28.795  1.00  0.00     0.014 A 
ENDBRANCH  22  23
ENDBRANCH   9  22
BRANCH  12  33
HETATM   33  O3  UNL     1     -10.770  15.770  24.004  1.00  0.00    -0.348 OA
ATOM     34  H3  UNL     1     -11.668  16.079  24.003  1.00  0.00     0.219 HD
ENDBRANCH  12  33
BRANCH  13  35
HETATM   35  C21 UNL     1      -8.224  14.892  23.727  1.00  0.00     0.037 C 
BRANCH  35  36
HETATM   36  C22 UNL     1      -8.734  14.171  22.570  1.00  0.00    -0.020 C 
HETATM   37  C23 UNL     1      -9.142  14.866  21.342  1.00  0.00     0.009 C 
HETATM   38  C24 UNL     1      -7.646  13.167  22.134  1.00  0.00     0.009 C 
ENDBRANCH  35  36
ENDBRANCH  13  35
BRANCH   1  39
HETATM   39  C4  UNL     1      -7.463  16.460  30.480  1.00  0.00     0.035 C 
BRANCH  39  40
HETATM   40  C3  UNL     1      -6.998  16.170  31.831  1.00  0.00     0.002 C 
BRANCH  40  41
HETATM   41  C2  UNL     1      -8.116  16.240  32.840  1.00  0.00    -0.004 C 
HETATM   42  C1  UNL     1      -8.184  14.873  33.540  1.00  0.00     0.005 C 
ENDBRANCH  40  41
ENDBRANCH  39  40
ENDBRANCH   1  39
BRANCH  16  43
HETATM   43  O4  UNL     1      -7.715  17.959  25.987  1.00  0.00    -0.348 OA
ATOM     44  H4  UNL     1      -7.959  18.481  26.742  1.00  0.00     0.219 HD
ENDBRANCH  16  43
BRANCH  17  45
HETATM   45  C27 UNL     1      -5.055  16.372  25.755  1.00  0.00     0.037 C 
BRANCH  45  46
HETATM   46  C28 UNL     1      -3.933  17.362  25.941  1.00  0.00    -0.020 C 
HETATM   47  C29 UNL     1      -4.382  18.798  25.860  1.00  0.00     0.009 C 
HETATM   48  C30 UNL     1      -3.189  17.099  27.242  1.00  0.00     0.009 C 
ENDBRANCH  45  46
ENDBRANCH  17  45
TORSDOF 11
ENDMDL
