MODEL 1
REMARK VINA RESULT: -8.920590954      0.000      0.000
REMARK  12 active torsions:
REMARK  status: ('A' for Active; 'I' for Inactive)
REMARK    1  A    between atoms: C2_2  and  C3_3 
REMARK    2  A    between atoms: C3_3  and  C5_5 
REMARK    3  A    between atoms: C7_10  and  C8_11 
REMARK    4  A    between atoms: C8_11  and  C9_12 
REMARK    5  A    between atoms: C17_24  and  O2_25 
REMARK    6  A    between atoms: C18_27  and  C19_28 
REMARK    7  A    between atoms: C19_28  and  C20_29 
REMARK    8  A    between atoms: C20_29  and  C21_30 
REMARK    9  A    between atoms: C21_30  and  C22_31 
REMARK   10  A    between atoms: C22_31  and  N4_32 
REMARK   11  A    between atoms: C24_40  and  C25_41 
REMARK   12  A    between atoms: C25_41  and  C26_42 
ROOT
HETATM    1  C5  UNL     1      -7.128  15.977  21.441  1.00  0.00     0.158 C 
HETATM    2  N1  UNL     1      -7.030  15.199  22.627  1.00  0.00    -0.347 N 
ATOM      3  H1  UNL     1      -6.190  14.628  22.726  1.00  0.00     0.163 HD
HETATM    4  C6  UNL     1      -7.970  15.125  23.691  1.00  0.00     0.241 C 
HETATM    5  O1  UNL     1      -8.123  13.983  24.206  1.00  0.00    -0.271 OA
HETATM    6  C7  UNL     1      -8.755  16.244  24.221  1.00  0.00     0.179 C 
HETATM    7  N3  UNL     1      -8.224  17.016  25.274  1.00  0.00    -0.359 N 
ATOM      8  H3  UNL     1      -8.715  17.901  25.398  1.00  0.00     0.162 HD
HETATM    9  C17 UNL     1      -7.192  16.850  26.177  1.00  0.00     0.135 C 
HETATM   10  C18 UNL     1      -6.140  15.824  26.301  1.00  0.00     0.159 C 
HETATM   11  N5  UNL     1      -4.877  16.444  26.766  1.00  0.00    -0.347 N 
ATOM     12  H5  UNL     1      -4.528  16.177  27.686  1.00  0.00     0.163 HD
HETATM   13  C23 UNL     1      -4.131  17.370  26.032  1.00  0.00     0.241 C 
HETATM   14  O3  UNL     1      -3.763  18.449  26.622  1.00  0.00    -0.271 OA
HETATM   15  C24 UNL     1      -3.707  17.248  24.613  1.00  0.00     0.173 C 
HETATM   16  N6  UNL     1      -4.501  18.080  23.761  1.00  0.00    -0.383 N 
ATOM     17  H6  UNL     1      -4.761  18.977  24.172  1.00  0.00     0.160 HD
HETATM   18  C29 UNL     1      -4.924  17.903  22.616  1.00  0.00    -0.014 C 
HETATM   19  C30 UNL     1      -5.749  19.000  21.989  1.00  0.00     0.063 C 
HETATM   20  C31 UNL     1      -4.667  16.677  21.835  1.00  0.00     0.132 C 
HETATM   21  C32 UNL     1      -5.826  16.454  20.908  1.00  0.00     0.155 C 
HETATM   22  O4  UNL     1      -5.651  16.679  19.723  1.00  0.00    -0.295 OA
ENDROOT
BRANCH   6  23
HETATM   23  C8  UNL     1     -10.194  15.860  24.466  1.00  0.00     0.075 C 
BRANCH  23  24
HETATM   24  C9  UNL     1     -10.495  15.411  25.818  1.00  0.00    -0.028 A 
HETATM   25  C10 UNL     1     -10.396  16.214  26.955  1.00  0.00     0.096 A 
HETATM   26  N2  UNL     1     -10.709  15.494  28.028  1.00  0.00    -0.365 N 
HETATM   27  C11 UNL     1     -11.010  14.241  27.638  1.00  0.00     0.042 A 
ATOM     28  H2  UNL     1     -10.718  15.834  28.990  1.00  0.00     0.165 HD
HETATM   29  C12 UNL     1     -11.408  13.121  28.336  1.00  0.00     0.030 A 
HETATM   30  C16 UNL     1     -10.881  14.178  26.256  1.00  0.00    -0.002 A 
HETATM   31  C13 UNL     1     -11.682  11.934  27.695  1.00  0.00     0.002 A 
HETATM   32  C14 UNL     1     -11.558  11.858  26.310  1.00  0.00     0.001 A 
HETATM   33  C15 UNL     1     -11.162  12.980  25.638  1.00  0.00     0.014 A 
ENDBRANCH  23  24
ENDBRANCH   6  23
BRANCH   9  34
HETATM   34  O2  UNL     1      -7.090  17.747  27.117  1.00  0.00    -0.348 OA
ATOM     35  H2  UNL     1      -6.653  18.558  26.885  1.00  0.00     0.219 HD
ENDBRANCH   9  34
BRANCH   1  36
HETATM   36  C3  UNL     1      -7.743  15.077  20.360  1.00  0.00     0.011 C 
HETATM   37  C4  UNL     1      -9.177  15.430  20.141  1.00  0.00     0.012 C 
BRANCH  36  38
HETATM   38  C2  UNL     1      -7.589  13.640  20.870  1.00  0.00     0.002 C 
HETATM   39  C1  UNL     1      -8.966  13.013  20.972  1.00  0.00     0.005 C 
ENDBRANCH  36  38
ENDBRANCH   1  36
BRANCH  10  40
HETATM   40  C19 UNL     1      -6.563  14.802  27.315  1.00  0.00     0.033 C 
BRANCH  40  41
HETATM   41  C20 UNL     1      -6.393  15.214  28.733  1.00  0.00     0.004 C 
BRANCH  41  42
HETATM   42  C21 UNL     1      -7.545  14.705  29.584  1.00  0.00     0.027 C 
BRANCH  42  43
HETATM   43  C22 UNL     1      -8.179  15.773  30.422  1.00  0.00     0.229 C 
BRANCH  43  44
HETATM   44  N4  UNL     1      -7.865  17.083  29.905  1.00  0.00    -0.079 N 
ATOM     45  H43 UNL     1      -7.309  17.029  29.051  1.00  0.00     0.274 HD
ATOM     46  H42 UNL     1      -8.689  17.546  29.521  1.00  0.00     0.274 HD
ATOM     47  H41 UNL     1      -7.409  17.654  30.617  1.00  0.00     0.274 HD
ENDBRANCH  43  44
ENDBRANCH  42  43
ENDBRANCH  41  42
ENDBRANCH  40  41
ENDBRANCH  10  40
BRANCH  15  48
HETATM   48  C25 UNL     1      -2.289  17.630  24.342  1.00  0.00     0.038 C 
BRANCH  48  49
HETATM   49  C26 UNL     1      -1.386  16.641  23.740  1.00  0.00    -0.020 C 
HETATM   50  C27 UNL     1      -1.075  16.729  22.294  1.00  0.00     0.009 C 
HETATM   51  C28 UNL     1      -2.045  15.261  23.976  1.00  0.00     0.009 C 
ENDBRANCH  48  49
ENDBRANCH  15  48
TORSDOF 12
ENDMDL
MODEL 2
REMARK VINA RESULT: -8.855289186      3.339      9.871
REMARK  12 active torsions:
REMARK  status: ('A' for Active; 'I' for Inactive)
REMARK    1  A    between atoms: C2_2  and  C3_3 
REMARK    2  A    between atoms: C3_3  and  C5_5 
REMARK    3  A    between atoms: C7_10  and  C8_11 
REMARK    4  A    between atoms: C8_11  and  C9_12 
REMARK    5  A    between atoms: C17_24  and  O2_25 
REMARK    6  A    between atoms: C18_27  and  C19_28 
REMARK    7  A    between atoms: C19_28  and  C20_29 
REMARK    8  A    between atoms: C20_29  and  C21_30 
REMARK    9  A    between atoms: C21_30  and  C22_31 
REMARK   10  A    between atoms: C22_31  and  N4_32 
REMARK   11  A    between atoms: C24_40  and  C25_41 
REMARK   12  A    between atoms: C25_41  and  C26_42 
ROOT
HETATM    1  C5  UNL     1     -10.040  13.986  32.373  1.00  0.00     0.158 C 
HETATM    2  N1  UNL     1      -9.470  13.554  31.143  1.00  0.00    -0.347 N 
ATOM      3  H1  UNL     1      -9.415  12.545  31.001  1.00  0.00     0.163 HD
HETATM    4  C6  UNL     1      -8.969  14.367  30.091  1.00  0.00     0.241 C 
HETATM    5  O1  UNL     1      -7.932  13.937  29.515  1.00  0.00    -0.271 OA
HETATM    6  C7  UNL     1      -9.548  15.634  29.636  1.00  0.00     0.179 C 
HETATM    7  N3  UNL     1     -10.525  15.616  28.620  1.00  0.00    -0.359 N 
ATOM      8  H3  UNL     1     -11.038  16.496  28.554  1.00  0.00     0.162 HD
HETATM    9  C17 UNL     1     -10.949  14.683  27.694  1.00  0.00     0.135 C 
HETATM   10  C18 UNL     1     -10.612  13.260  27.498  1.00  0.00     0.159 C 
HETATM   11  N5  UNL     1     -11.810  12.512  27.050  1.00  0.00    -0.347 N 
ATOM     12  H5  UNL     1     -11.797  12.114  26.111  1.00  0.00     0.163 HD
HETATM   13  C23 UNL     1     -12.957  12.315  27.824  1.00  0.00     0.241 C 
HETATM   14  O3  UNL     1     -14.095  12.574  27.290  1.00  0.00    -0.271 OA
HETATM   15  C24 UNL     1     -13.012  11.830  29.228  1.00  0.00     0.173 C 
HETATM   16  N6  UNL     1     -13.284  12.901  30.137  1.00  0.00    -0.383 N 
ATOM     17  H6  UNL     1     -13.937  13.600  29.781  1.00  0.00     0.160 HD
HETATM   18  C29 UNL     1     -12.868  13.127  31.275  1.00  0.00    -0.014 C 
HETATM   19  C30 UNL     1     -13.362  14.369  31.975  1.00  0.00     0.063 C 
HETATM   20  C31 UNL     1     -11.917  12.247  31.983  1.00  0.00     0.132 C 
HETATM   21  C32 UNL     1     -11.094  13.090  32.913  1.00  0.00     0.155 C 
HETATM   22  O4  UNL     1     -11.328  13.006  34.105  1.00  0.00    -0.295 OA
ENDROOT
BRANCH   6  23
HETATM   23  C8  UNL     1      -8.492  16.684  29.391  1.00  0.00     0.075 C 
BRANCH  23  24
HETATM   24  C9  UNL     1      -7.856  16.631  28.081  1.00  0.00    -0.028 A 
HETATM   25  C10 UNL     1      -8.544  16.698  26.869  1.00  0.00     0.096 A 
HETATM   26  N2  UNL     1      -7.677  16.590  25.867  1.00  0.00    -0.365 N 
HETATM   27  C11 UNL     1      -6.438  16.454  26.378  1.00  0.00     0.042 A 
ATOM     28  H2  UNL     1      -7.911  16.606  24.875  1.00  0.00     0.165 HD
HETATM   29  C12 UNL     1      -5.199  16.323  25.788  1.00  0.00     0.030 A 
HETATM   30  C16 UNL     1      -6.538  16.479  27.764  1.00  0.00    -0.002 A 
HETATM   31  C13 UNL     1      -4.052  16.216  26.541  1.00  0.00     0.002 A 
HETATM   32  C14 UNL     1      -4.138  16.243  27.930  1.00  0.00     0.001 A 
HETATM   33  C15 UNL     1      -5.376  16.373  28.495  1.00  0.00     0.014 A 
ENDBRANCH  23  24
ENDBRANCH   6  23
BRANCH   9  34
HETATM   34  O2  UNL     1     -11.808  15.092  26.805  1.00  0.00    -0.348 OA
ATOM     35  H2  UNL     1     -11.672  14.795  25.914  1.00  0.00     0.219 HD
ENDBRANCH   9  34
BRANCH   1  36
HETATM   36  C3  UNL     1      -8.908  14.009  33.410  1.00  0.00     0.011 C 
HETATM   37  C4  UNL     1      -8.982  15.252  34.235  1.00  0.00     0.012 C 
BRANCH  36  38
HETATM   38  C2  UNL     1      -7.602  13.943  32.611  1.00  0.00     0.002 C 
HETATM   39  C1  UNL     1      -6.961  15.317  32.617  1.00  0.00     0.005 C 
ENDBRANCH  36  38
ENDBRANCH   1  36
BRANCH  10  40
HETATM   40  C19 UNL     1      -9.560  13.143  26.434  1.00  0.00     0.033 C 
BRANCH  40  41
HETATM   41  C20 UNL     1     -10.069  13.183  25.039  1.00  0.00     0.004 C 
BRANCH  41  42
HETATM   42  C21 UNL     1      -9.073  13.874  24.121  1.00  0.00     0.027 C 
BRANCH  42  43
HETATM   43  C22 UNL     1      -9.666  15.020  23.359  1.00  0.00     0.229 C 
BRANCH  43  44
HETATM   44  N4  UNL     1     -10.936  15.408  23.925  1.00  0.00    -0.079 N 
ATOM     45  H43 UNL     1     -10.887  15.491  24.940  1.00  0.00     0.274 HD
ATOM     46  H42 UNL     1     -11.168  16.376  23.703  1.00  0.00     0.274 HD
ATOM     47  H41 UNL     1     -11.673  14.766  23.633  1.00  0.00     0.274 HD
ENDBRANCH  43  44
ENDBRANCH  42  43
ENDBRANCH  41  42
ENDBRANCH  40  41
ENDBRANCH  10  40
BRANCH  15  48
HETATM   48  C25 UNL     1     -14.055  10.795  29.499  1.00  0.00     0.038 C 
BRANCH  48  49
HETATM   49  C26 UNL     1     -13.646   9.496  30.046  1.00  0.00    -0.020 C 
HETATM   50  C27 UNL     1     -13.878   9.208  31.481  1.00  0.00     0.009 C 
HETATM   51  C28 UNL     1     -12.121   9.391  29.806  1.00  0.00     0.009 C 
ENDBRANCH  48  49
ENDBRANCH  15  48
TORSDOF 12
ENDMDL
MODEL 3
REMARK VINA RESULT: -8.763037265      4.500      9.848
REMARK  12 active torsions:
REMARK  status: ('A' for Active; 'I' for Inactive)
REMARK    1  A    between atoms: C2_2  and  C3_3 
REMARK    2  A    between atoms: C3_3  and  C5_5 
REMARK    3  A    between atoms: C7_10  and  C8_11 
REMARK    4  A    between atoms: C8_11  and  C9_12 
REMARK    5  A    between atoms: C17_24  and  O2_25 
REMARK    6  A    between atoms: C18_27  and  C19_28 
REMARK    7  A    between atoms: C19_28  and  C20_29 
REMARK    8  A    between atoms: C20_29  and  C21_30 
REMARK    9  A    between atoms: C21_30  and  C22_31 
REMARK   10  A    between atoms: C22_31  and  N4_32 
REMARK   11  A    between atoms: C24_40  and  C25_41 
REMARK   12  A    between atoms: C25_41  and  C26_42 
ROOT
HETATM    1  C5  UNL     1      -8.714  14.616  30.971  1.00  0.00     0.158 C 
HETATM    2  N1  UNL     1      -9.222  13.436  30.359  1.00  0.00    -0.347 N 
ATOM      3  H1  UNL     1      -8.817  12.554  30.675  1.00  0.00     0.163 HD
HETATM    4  C6  UNL     1     -10.227  13.346  29.358  1.00  0.00     0.241 C 
HETATM    5  O1  UNL     1     -10.039  12.466  28.474  1.00  0.00    -0.271 OA
HETATM    6  C7  UNL     1     -11.432  14.176  29.276  1.00  0.00     0.179 C 
HETATM    7  N3  UNL     1     -12.605  13.749  29.929  1.00  0.00    -0.359 N 
ATOM      8  H3  UNL     1     -13.294  14.495  30.027  1.00  0.00     0.162 HD
HETATM    9  C17 UNL     1     -13.038  12.553  30.468  1.00  0.00     0.135 C 
HETATM   10  C18 UNL     1     -12.359  11.261  30.684  1.00  0.00     0.159 C 
HETATM   11  N5  UNL     1     -12.828  10.645  31.947  1.00  0.00    -0.347 N 
ATOM     12  H5  UNL     1     -13.353   9.773  31.884  1.00  0.00     0.163 HD
HETATM   13  C23 UNL     1     -12.600  11.175  33.220  1.00  0.00     0.241 C 
HETATM   14  O3  UNL     1     -13.602  11.282  34.015  1.00  0.00    -0.271 OA
HETATM   15  C24 UNL     1     -11.302  11.643  33.771  1.00  0.00     0.173 C 
HETATM   16  N6  UNL     1     -11.233  13.073  33.796  1.00  0.00    -0.383 N 
ATOM     17  H6  UNL     1     -12.115  13.533  34.024  1.00  0.00     0.160 HD
HETATM   18  C29 UNL     1     -10.295  13.845  33.588  1.00  0.00    -0.014 C 
HETATM   19  C30 UNL     1     -10.561  15.327  33.696  1.00  0.00     0.063 C 
HETATM   20  C31 UNL     1      -8.932  13.395  33.242  1.00  0.00     0.132 C 
HETATM   21  C32 UNL     1      -8.290  14.445  32.383  1.00  0.00     0.155 C 
HETATM   22  O4  UNL     1      -7.423  15.135  32.890  1.00  0.00    -0.295 OA
ENDROOT
BRANCH   6  23
HETATM   23  C8  UNL     1     -11.703  14.643  27.866  1.00  0.00     0.075 C 
BRANCH  23  24
HETATM   24  C9  UNL     1     -10.659  15.467  27.274  1.00  0.00    -0.028 A 
HETATM   25  C10 UNL     1     -10.291  16.728  27.743  1.00  0.00     0.096 A 
HETATM   26  N2  UNL     1      -9.333  17.222  26.964  1.00  0.00    -0.365 N 
HETATM   27  C11 UNL     1      -9.057  16.328  25.995  1.00  0.00     0.042 A 
ATOM     28  H2  UNL     1      -8.882  18.129  27.080  1.00  0.00     0.165 HD
HETATM   29  C12 UNL     1      -8.152  16.335  24.955  1.00  0.00     0.030 A 
HETATM   30  C16 UNL     1      -9.881  15.225  26.180  1.00  0.00    -0.002 A 
HETATM   31  C13 UNL     1      -8.043  15.270  24.089  1.00  0.00     0.002 A 
HETATM   32  C14 UNL     1      -8.862  14.157  24.265  1.00  0.00     0.001 A 
HETATM   33  C15 UNL     1      -9.752  14.172  25.302  1.00  0.00     0.014 A 
ENDBRANCH  23  24
ENDBRANCH   6  23
BRANCH   9  34
HETATM   34  O2  UNL     1     -14.274  12.510  30.877  1.00  0.00    -0.348 OA
ATOM     35  H2  UNL     1     -14.766  11.727  30.663  1.00  0.00     0.219 HD
ENDBRANCH   9  34
BRANCH   1  36
HETATM   36  C3  UNL     1      -7.464  15.031  30.182  1.00  0.00     0.011 C 
HETATM   37  C4  UNL     1      -7.460  16.506  29.948  1.00  0.00     0.012 C 
BRANCH  36  38
HETATM   38  C2  UNL     1      -7.520  14.253  28.863  1.00  0.00     0.002 C 
HETATM   39  C1  UNL     1      -6.567  14.903  27.878  1.00  0.00     0.005 C 
ENDBRANCH  36  38
ENDBRANCH   1  36
BRANCH  10  40
HETATM   40  C19 UNL     1     -12.695  10.332  29.554  1.00  0.00     0.033 C 
BRANCH  40  41
HETATM   41  C20 UNL     1     -13.139  10.997  28.302  1.00  0.00     0.004 C 
BRANCH  41  42
HETATM   42  C21 UNL     1     -12.156  10.733  27.173  1.00  0.00     0.027 C 
BRANCH  42  43
HETATM   43  C22 UNL     1     -12.428  11.551  25.947  1.00  0.00     0.229 C 
BRANCH  43  44
HETATM   44  N4  UNL     1     -13.702  11.196  25.368  1.00  0.00    -0.079 N 
ATOM     45  H43 UNL     1     -14.459  11.271  26.047  1.00  0.00     0.274 HD
ATOM     46  H42 UNL     1     -14.023  11.899  24.702  1.00  0.00     0.274 HD
ATOM     47  H41 UNL     1     -13.661  10.268  24.947  1.00  0.00     0.274 HD
ENDBRANCH  43  44
ENDBRANCH  42  43
ENDBRANCH  41  42
ENDBRANCH  40  41
ENDBRANCH  10  40
BRANCH  15  48
HETATM   48  C25 UNL     1     -11.013  11.202  35.169  1.00  0.00     0.038 C 
BRANCH  48  49
HETATM   49  C26 UNL     1     -10.589   9.817  35.407  1.00  0.00    -0.020 C 
HETATM   50  C27 UNL     1     -11.411   8.706  34.872  1.00  0.00     0.009 C 
HETATM   51  C28 UNL     1     -10.540   9.642  36.943  1.00  0.00     0.009 C 
ENDBRANCH  48  49
ENDBRANCH  15  48
TORSDOF 12
ENDMDL
MODEL 4
REMARK VINA RESULT: -8.618127188      2.233      4.440
REMARK  12 active torsions:
REMARK  status: ('A' for Active; 'I' for Inactive)
REMARK    1  A    between atoms: C2_2  and  C3_3 
REMARK    2  A    between atoms: C3_3  and  C5_5 
REMARK    3  A    between atoms: C7_10  and  C8_11 
REMARK    4  A    between atoms: C8_11  and  C9_12 
REMARK    5  A    between atoms: C17_24  and  O2_25 
REMARK    6  A    between atoms: C18_27  and  C19_28 
REMARK    7  A    between atoms: C19_28  and  C20_29 
REMARK    8  A    between atoms: C20_29  and  C21_30 
REMARK    9  A    between atoms: C21_30  and  C22_31 
REMARK   10  A    between atoms: C22_31  and  N4_32 
REMARK   11  A    between atoms: C24_40  and  C25_41 
REMARK   12  A    between atoms: C25_41  and  C26_42 
ROOT
HETATM    1  C5  UNL     1      -8.357  14.842  22.980  1.00  0.00     0.158 C 
HETATM    2  N1  UNL     1      -7.063  14.706  23.557  1.00  0.00    -0.347 N 
ATOM      3  H1  UNL     1      -6.506  13.914  23.234  1.00  0.00     0.163 HD
HETATM    4  C6  UNL     1      -6.460  15.546  24.532  1.00  0.00     0.241 C 
HETATM    5  O1  UNL     1      -5.763  14.957  25.403  1.00  0.00    -0.271 OA
HETATM    6  C7  UNL     1      -6.583  17.005  24.601  1.00  0.00     0.179 C 
HETATM    7  N3  UNL     1      -5.650  17.805  23.912  1.00  0.00    -0.359 N 
ATOM      8  H3  UNL     1      -5.960  18.772  23.813  1.00  0.00     0.162 HD
HETATM    9  C17 UNL     1      -4.412  17.583  23.341  1.00  0.00     0.135 C 
HETATM   10  C18 UNL     1      -3.632  16.352  23.117  1.00  0.00     0.159 C 
HETATM   11  N5  UNL     1      -2.900  16.440  21.832  1.00  0.00    -0.347 N 
ATOM     12  H5  UNL     1      -1.881  16.466  21.866  1.00  0.00     0.163 HD
HETATM   13  C23 UNL     1      -3.509  16.490  20.575  1.00  0.00     0.241 C 
HETATM   14  O3  UNL     1      -3.129  17.404  19.758  1.00  0.00    -0.271 OA
HETATM   15  C24 UNL     1      -4.573  15.588  20.063  1.00  0.00     0.173 C 
HETATM   16  N6  UNL     1      -5.850  16.234  20.068  1.00  0.00    -0.383 N 
ATOM     17  H6  UNL     1      -5.820  17.226  19.827  1.00  0.00     0.160 HD
HETATM   18  C29 UNL     1      -6.979  15.804  20.312  1.00  0.00    -0.014 C 
HETATM   19  C30 UNL     1      -8.138  16.767  20.225  1.00  0.00     0.063 C 
HETATM   20  C31 UNL     1      -7.252  14.401  20.681  1.00  0.00     0.132 C 
HETATM   21  C32 UNL     1      -8.457  14.373  21.575  1.00  0.00     0.155 C 
HETATM   22  O4  UNL     1      -9.500  13.955  21.102  1.00  0.00    -0.295 OA
ENDROOT
BRANCH   6  23
HETATM   23  C8  UNL     1      -6.815  17.488  26.012  1.00  0.00     0.075 C 
BRANCH  23  24
HETATM   24  C9  UNL     1      -8.067  17.057  26.618  1.00  0.00    -0.028 A 
HETATM   25  C10 UNL     1      -9.331  17.448  26.174  1.00  0.00     0.096 A 
HETATM   26  N2  UNL     1     -10.257  16.906  26.960  1.00  0.00    -0.365 N 
HETATM   27  C11 UNL     1      -9.646  16.170  27.907  1.00  0.00     0.042 A 
ATOM     28  H2  UNL     1     -11.265  17.029  26.861  1.00  0.00     0.165 HD
HETATM   29  C12 UNL     1     -10.132  15.400  28.943  1.00  0.00     0.030 A 
HETATM   30  C16 UNL     1      -8.275  16.256  27.702  1.00  0.00    -0.002 A 
HETATM   31  C13 UNL     1      -9.289  14.711  29.784  1.00  0.00     0.002 A 
HETATM   32  C14 UNL     1      -7.912  14.788  29.588  1.00  0.00     0.001 A 
HETATM   33  C15 UNL     1      -7.452  15.556  28.556  1.00  0.00     0.014 A 
ENDBRANCH  23  24
ENDBRANCH   6  23
BRANCH   9  34
HETATM   34  O2  UNL     1      -3.776  18.632  22.902  1.00  0.00    -0.348 OA
ATOM     35  H2  UNL     1      -3.583  18.654  21.972  1.00  0.00     0.219 HD
ENDBRANCH   9  34
BRANCH   1  36
HETATM   36  C3  UNL     1      -9.313  13.970  23.806  1.00  0.00     0.011 C 
HETATM   37  C4  UNL     1     -10.571  14.716  24.108  1.00  0.00     0.012 C 
BRANCH  36  38
HETATM   38  C2  UNL     1      -8.553  13.607  25.086  1.00  0.00     0.002 C 
HETATM   39  C1  UNL     1      -9.556  13.163  26.133  1.00  0.00     0.005 C 
ENDBRANCH  36  38
ENDBRANCH   1  36
BRANCH  10  40
HETATM   40  C19 UNL     1      -2.627  16.196  24.220  1.00  0.00     0.033 C 
BRANCH  40  41
HETATM   41  C20 UNL     1      -2.959  16.912  25.480  1.00  0.00     0.004 C 
BRANCH  41  42
HETATM   42  C21 UNL     1      -3.164  15.928  26.621  1.00  0.00     0.027 C 
BRANCH  42  43
HETATM   43  C22 UNL     1      -3.778  16.552  27.837  1.00  0.00     0.229 C 
BRANCH  43  44
HETATM   44  N4  UNL     1      -2.890  17.535  28.411  1.00  0.00    -0.079 N 
ATOM     45  H43 UNL     1      -2.362  17.155  29.196  1.00  0.00     0.274 HD
ATOM     46  H42 UNL     1      -2.109  17.747  27.790  1.00  0.00     0.274 HD
ATOM     47  H41 UNL     1      -3.404  18.377  28.672  1.00  0.00     0.274 HD
ENDBRANCH  43  44
ENDBRANCH  42  43
ENDBRANCH  41  42
ENDBRANCH  40  41
ENDBRANCH  10  40
BRANCH  15  48
HETATM   48  C25 UNL     1      -4.373  15.102  18.665  1.00  0.00     0.038 C 
BRANCH  48  49
HETATM   49  C26 UNL     1      -3.335  14.097  18.400  1.00  0.00    -0.020 C 
HETATM   50  C27 UNL     1      -1.976  14.297  18.956  1.00  0.00     0.009 C 
HETATM   51  C28 UNL     1      -3.188  14.030  16.862  1.00  0.00     0.009 C 
ENDBRANCH  48  49
ENDBRANCH  15  48
TORSDOF 12
ENDMDL
MODEL 5
REMARK VINA RESULT: -8.426160135      1.040      1.489
REMARK  12 active torsions:
REMARK  status: ('A' for Active; 'I' for Inactive)
REMARK    1  A    between atoms: C2_2  and  C3_3 
REMARK    2  A    between atoms: C3_3  and  C5_5 
REMARK    3  A    between atoms: C7_10  and  C8_11 
REMARK    4  A    between atoms: C8_11  and  C9_12 
REMARK    5  A    between atoms: C17_24  and  O2_25 
REMARK    6  A    between atoms: C18_27  and  C19_28 
REMARK    7  A    between atoms: C19_28  and  C20_29 
REMARK    8  A    between atoms: C20_29  and  C21_30 
REMARK    9  A    between atoms: C21_30  and  C22_31 
REMARK   10  A    between atoms: C22_31  and  N4_32 
REMARK   11  A    between atoms: C24_40  and  C25_41 
REMARK   12  A    between atoms: C25_41  and  C26_42 
ROOT
HETATM    1  C5  UNL     1      -7.072  16.045  21.390  1.00  0.00     0.158 C 
HETATM    2  N1  UNL     1      -7.017  15.218  22.546  1.00  0.00    -0.347 N 
ATOM      3  H1  UNL     1      -6.181  14.643  22.651  1.00  0.00     0.163 HD
HETATM    4  C6  UNL     1      -7.994  15.102  23.572  1.00  0.00     0.241 C 
HETATM    5  O1  UNL     1      -8.165  13.940  24.034  1.00  0.00    -0.271 OA
HETATM    6  C7  UNL     1      -8.797  16.199  24.120  1.00  0.00     0.179 C 
HETATM    7  N3  UNL     1      -8.304  16.926  25.222  1.00  0.00    -0.359 N 
ATOM      8  H3  UNL     1      -8.799  17.807  25.365  1.00  0.00     0.162 HD
HETATM    9  C17 UNL     1      -7.305  16.723  26.153  1.00  0.00     0.135 C 
HETATM   10  C18 UNL     1      -6.257  15.691  26.272  1.00  0.00     0.159 C 
HETATM   11  N5  UNL     1      -5.012  16.289  26.806  1.00  0.00    -0.347 N 
ATOM     12  H5  UNL     1      -4.695  15.984  27.726  1.00  0.00     0.163 HD
HETATM   13  C23 UNL     1      -4.240  17.244  26.138  1.00  0.00     0.241 C 
HETATM   14  O3  UNL     1      -3.893  18.297  26.784  1.00  0.00    -0.271 OA
HETATM   15  C24 UNL     1      -3.766  17.180  24.730  1.00  0.00     0.173 C 
HETATM   16  N6  UNL     1      -4.529  18.047  23.886  1.00  0.00    -0.383 N 
ATOM     17  H6  UNL     1      -4.804  18.927  24.324  1.00  0.00     0.160 HD
HETATM   18  C29 UNL     1      -4.912  17.917  22.721  1.00  0.00    -0.014 C 
HETATM   19  C30 UNL     1      -5.714  19.041  22.110  1.00  0.00     0.063 C 
HETATM   20  C31 UNL     1      -4.627  16.724  21.899  1.00  0.00     0.132 C 
HETATM   21  C32 UNL     1      -5.753  16.542  20.924  1.00  0.00     0.155 C 
HETATM   22  O4  UNL     1      -5.537  16.815  19.756  1.00  0.00    -0.295 OA
ENDROOT
BRANCH   6  23
HETATM   23  C8  UNL     1     -10.244  15.808  24.298  1.00  0.00     0.075 C 
BRANCH  23  24
HETATM   24  C9  UNL     1     -10.484  14.741  25.259  1.00  0.00    -0.028 A 
HETATM   25  C10 UNL     1     -10.730  13.411  24.914  1.00  0.00     0.096 A 
HETATM   26  N2  UNL     1     -10.938  12.703  26.020  1.00  0.00    -0.365 N 
HETATM   27  C11 UNL     1     -10.838  13.521  27.084  1.00  0.00     0.042 A 
ATOM     28  H2  UNL     1     -11.141  11.704  26.056  1.00  0.00     0.165 HD
HETATM   29  C12 UNL     1     -10.948  13.299  28.441  1.00  0.00     0.030 A 
HETATM   30  C16 UNL     1     -10.553  14.800  26.620  1.00  0.00    -0.002 A 
HETATM   31  C13 UNL     1     -10.782  14.317  29.352  1.00  0.00     0.002 A 
HETATM   32  C14 UNL     1     -10.494  15.602  28.900  1.00  0.00     0.001 A 
HETATM   33  C15 UNL     1     -10.389  15.801  27.551  1.00  0.00     0.014 A 
ENDBRANCH  23  24
ENDBRANCH   6  23
BRANCH   9  34
HETATM   34  O2  UNL     1      -7.236  17.580  27.132  1.00  0.00    -0.348 OA
ATOM     35  H2  UNL     1      -6.833  17.275  27.936  1.00  0.00     0.219 HD
ENDBRANCH   9  34
BRANCH   1  36
HETATM   36  C3  UNL     1      -7.649  15.190  20.252  1.00  0.00     0.011 C 
HETATM   37  C4  UNL     1      -9.069  15.567  19.985  1.00  0.00     0.012 C 
BRANCH  36  38
HETATM   38  C2  UNL     1      -7.532  13.735  20.717  1.00  0.00     0.002 C 
HETATM   39  C1  UNL     1      -8.925  13.144  20.811  1.00  0.00     0.005 C 
ENDBRANCH  36  38
ENDBRANCH   1  36
BRANCH  10  40
HETATM   40  C19 UNL     1      -6.715  14.628  27.227  1.00  0.00     0.033 C 
BRANCH  40  41
HETATM   41  C20 UNL     1      -6.832  15.063  28.643  1.00  0.00     0.004 C 
BRANCH  41  42
HETATM   42  C21 UNL     1      -7.402  13.948  29.505  1.00  0.00     0.027 C 
BRANCH  42  43
HETATM   43  C22 UNL     1      -7.570  14.337  30.943  1.00  0.00     0.229 C 
BRANCH  43  44
HETATM   44  N4  UNL     1      -7.603  13.168  31.788  1.00  0.00    -0.079 N 
ATOM     45  H43 UNL     1      -7.256  12.341  31.303  1.00  0.00     0.274 HD
ATOM     46  H42 UNL     1      -6.903  13.217  32.528  1.00  0.00     0.274 HD
ATOM     47  H41 UNL     1      -8.540  13.021  32.164  1.00  0.00     0.274 HD
ENDBRANCH  43  44
ENDBRANCH  42  43
ENDBRANCH  41  42
ENDBRANCH  40  41
ENDBRANCH  10  40
BRANCH  15  48
HETATM   48  C25 UNL     1      -2.339  17.570  24.525  1.00  0.00     0.038 C 
BRANCH  48  49
HETATM   49  C26 UNL     1      -1.420  16.611  23.900  1.00  0.00    -0.020 C 
HETATM   50  C27 UNL     1      -1.063  16.777  22.471  1.00  0.00     0.009 C 
HETATM   51  C28 UNL     1      -2.089  15.223  24.040  1.00  0.00     0.009 C 
ENDBRANCH  48  49
ENDBRANCH  15  48
TORSDOF 12
ENDMDL
