MODEL 1
REMARK VINA RESULT: -5.607509647      0.000      0.000
REMARK  9 active torsions:
REMARK  status: ('A' for Active; 'I' for Inactive)
REMARK    1  A    between atoms: C2_2  and  C3_3 
REMARK    2  A    between atoms: C3_3  and  C5_5 
REMARK    3  A    between atoms: C8_11  and  C9_12 
REMARK    4  A    between atoms: C14_20  and  C15_21 
REMARK    5  A    between atoms: C15_21  and  C16_22 
REMARK    6  A    between atoms: C20_29  and  C21_30 
REMARK    7  A    between atoms: C21_30  and  C23_32 
REMARK    8  A    between atoms: C26_38  and  C27_39 
REMARK    9  A    between atoms: C27_39  and  C28_40 
ROOT
HETATM    1  C5  UNL     1      -2.766  15.661  18.545  1.00  0.00     0.280 C 
HETATM    2  N1  UNL     1      -4.038  15.030  18.845  1.00  0.00    -0.062 N 
ATOM      3  H11 UNL     1      -3.905  14.244  19.482  1.00  0.00     0.278 HD
ATOM      4  H12 UNL     1      -4.390  14.533  18.027  1.00  0.00     0.278 HD
HETATM    5  C6  UNL     1      -5.034  15.922  19.354  1.00  0.00     0.235 C 
HETATM    6  C7  UNL     1      -4.887  15.944  20.886  1.00  0.00     0.053 C 
HETATM    7  C8  UNL     1      -5.730  16.965  21.540  1.00  0.00     0.093 C 
HETATM    8  N2  UNL     1      -5.164  17.761  22.568  1.00  0.00    -0.351 N 
ATOM      9  H2  UNL     1      -5.809  18.455  22.944  1.00  0.00     0.163 HD
HETATM   10  C13 UNL     1      -3.887  17.793  23.181  1.00  0.00     0.264 C 
HETATM   11  O1  UNL     1      -3.326  18.947  22.980  1.00  0.00    -0.266 OA
HETATM   12  C14 UNL     1      -3.213  16.751  23.942  1.00  0.00     0.080 C 
HETATM   13  N3  UNL     1      -1.791  16.878  24.148  1.00  0.00    -0.324 N 
ATOM     14  H3  UNL     1      -1.416  16.107  24.700  1.00  0.00     0.169 HD
HETATM   15  C19 UNL     1      -0.803  17.785  23.784  1.00  0.00     0.245 C 
HETATM   16  O2  UNL     1      -0.305  18.515  24.727  1.00  0.00    -0.271 OA
HETATM   17  C20 UNL     1      -0.180  18.092  22.482  1.00  0.00     0.180 C 
HETATM   18  N4  UNL     1       0.813  17.048  22.136  1.00  0.00    -0.346 N 
ATOM     19  H4  UNL     1       1.658  17.010  22.705  1.00  0.00     0.163 HD
HETATM   20  C25 UNL     1       0.703  16.103  21.102  1.00  0.00     0.241 C 
HETATM   21  O3  UNL     1       1.686  15.947  20.295  1.00  0.00    -0.271 OA
HETATM   22  C26 UNL     1      -0.466  15.252  20.844  1.00  0.00     0.177 C 
HETATM   23  N5  UNL     1      -0.492  14.841  19.425  1.00  0.00    -0.346 N 
ATOM     24  H5  UNL     1       0.393  14.674  18.946  1.00  0.00     0.163 HD
HETATM   25  C31 UNL     1      -1.708  14.669  18.700  1.00  0.00     0.249 C 
HETATM   26  O4  UNL     1      -1.847  13.520  18.146  1.00  0.00    -0.271 OA
ENDROOT
BRANCH   1  27
HETATM   27  C3  UNL     1      -2.760  16.501  17.329  1.00  0.00     0.021 C 
HETATM   28  C4  UNL     1      -3.744  15.958  16.325  1.00  0.00     0.012 C 
BRANCH  27  29
HETATM   29  C2  UNL     1      -2.810  17.972  17.482  1.00  0.00     0.002 C 
HETATM   30  C1  UNL     1      -2.017  18.579  18.580  1.00  0.00     0.005 C 
ENDBRANCH  27  29
ENDBRANCH   1  27
BRANCH  22  31
HETATM   31  C27 UNL     1      -0.522  14.073  21.741  1.00  0.00     0.038 C 
BRANCH  31  32
HETATM   32  C28 UNL     1      -0.017  14.149  23.117  1.00  0.00    -0.020 C 
HETATM   33  C29 UNL     1      -0.751  13.428  24.201  1.00  0.00     0.009 C 
HETATM   34  C30 UNL     1       1.413  13.555  23.095  1.00  0.00     0.009 C 
ENDBRANCH  31  32
ENDBRANCH  22  31
BRANCH   7  35
HETATM   35  C9  UNL     1      -7.108  16.507  21.963  1.00  0.00    -0.031 C 
HETATM   36  C10 UNL     1      -7.248  15.038  22.158  1.00  0.00     0.016 C 
HETATM   37  C11 UNL     1      -7.467  17.188  23.295  1.00  0.00     0.016 C 
HETATM   38  C12 UNL     1      -8.202  16.946  21.011  1.00  0.00     0.016 C 
ENDBRANCH   7  35
BRANCH  17  39
HETATM   39  C21 UNL     1       0.553  19.394  22.505  1.00  0.00     0.013 C 
HETATM   40  C22 UNL     1       1.978  19.392  22.897  1.00  0.00     0.012 C 
BRANCH  39  41
HETATM   41  C23 UNL     1       0.349  20.309  21.351  1.00  0.00     0.002 C 
HETATM   42  C24 UNL     1       1.530  20.062  20.394  1.00  0.00     0.005 C 
ENDBRANCH  39  41
ENDBRANCH  17  39
BRANCH  12  43
HETATM   43  C15 UNL     1      -3.915  16.292  25.194  1.00  0.00     0.067 C 
BRANCH  43  44
HETATM   44  C16 UNL     1      -3.832  17.045  26.439  1.00  0.00    -0.017 C 
HETATM   45  C17 UNL     1      -3.687  16.266  27.722  1.00  0.00     0.010 C 
HETATM   46  C18 UNL     1      -4.799  18.199  26.587  1.00  0.00     0.010 C 
ENDBRANCH  43  44
ENDBRANCH  12  43
TORSDOF 9
ENDMDL
MODEL 2
REMARK VINA RESULT: -5.525571338      0.653      1.252
REMARK  9 active torsions:
REMARK  status: ('A' for Active; 'I' for Inactive)
REMARK    1  A    between atoms: C2_2  and  C3_3 
REMARK    2  A    between atoms: C3_3  and  C5_5 
REMARK    3  A    between atoms: C8_11  and  C9_12 
REMARK    4  A    between atoms: C14_20  and  C15_21 
REMARK    5  A    between atoms: C15_21  and  C16_22 
REMARK    6  A    between atoms: C20_29  and  C21_30 
REMARK    7  A    between atoms: C21_30  and  C23_32 
REMARK    8  A    between atoms: C26_38  and  C27_39 
REMARK    9  A    between atoms: C27_39  and  C28_40 
ROOT
HETATM    1  C5  UNL     1      -3.216  15.944  18.722  1.00  0.00     0.280 C 
HETATM    2  N1  UNL     1      -4.442  15.271  19.110  1.00  0.00    -0.062 N 
ATOM      3  H11 UNL     1      -4.233  14.453  19.684  1.00  0.00     0.278 HD
ATOM      4  H12 UNL     1      -4.868  14.814  18.304  1.00  0.00     0.278 HD
HETATM    5  C6  UNL     1      -5.394  16.112  19.769  1.00  0.00     0.235 C 
HETATM    6  C7  UNL     1      -5.092  16.050  21.276  1.00  0.00     0.053 C 
HETATM    7  C8  UNL     1      -5.879  17.015  22.070  1.00  0.00     0.093 C 
HETATM    8  N2  UNL     1      -5.223  17.764  23.081  1.00  0.00    -0.351 N 
ATOM      9  H2  UNL     1      -5.838  18.422  23.559  1.00  0.00     0.163 HD
HETATM   10  C13 UNL     1      -3.891  17.787  23.563  1.00  0.00     0.264 C 
HETATM   11  O1  UNL     1      -3.372  18.962  23.374  1.00  0.00    -0.266 OA
HETATM   12  C14 UNL     1      -3.129  16.718  24.190  1.00  0.00     0.080 C 
HETATM   13  N3  UNL     1      -1.695  16.862  24.259  1.00  0.00    -0.324 N 
ATOM     14  H3  UNL     1      -1.255  16.069  24.725  1.00  0.00     0.169 HD
HETATM   15  C19 UNL     1      -0.763  17.808  23.851  1.00  0.00     0.245 C 
HETATM   16  O2  UNL     1      -0.183  18.494  24.780  1.00  0.00    -0.271 OA
HETATM   17  C20 UNL     1      -0.280  18.202  22.513  1.00  0.00     0.180 C 
HETATM   18  N4  UNL     1       0.688  17.199  22.009  1.00  0.00    -0.346 N 
ATOM     19  H4  UNL     1       1.587  17.147  22.486  1.00  0.00     0.163 HD
HETATM   20  C25 UNL     1       0.488  16.313  20.937  1.00  0.00     0.241 C 
HETATM   21  O3  UNL     1       1.386  16.222  20.028  1.00  0.00    -0.271 OA
HETATM   22  C26 UNL     1      -0.688  15.453  20.749  1.00  0.00     0.177 C 
HETATM   23  N5  UNL     1      -0.853  15.123  19.318  1.00  0.00    -0.346 N 
ATOM     24  H5  UNL     1      -0.019  15.002  18.744  1.00  0.00     0.163 HD
HETATM   25  C31 UNL     1      -2.133  14.967  18.710  1.00  0.00     0.249 C 
HETATM   26  O4  UNL     1      -2.311  13.849  18.107  1.00  0.00    -0.271 OA
ENDROOT
BRANCH   1  27
HETATM   27  C3  UNL     1      -3.346  16.852  17.562  1.00  0.00     0.021 C 
HETATM   28  C4  UNL     1      -2.224  17.859  17.570  1.00  0.00     0.012 C 
BRANCH  27  29
HETATM   29  C2  UNL     1      -3.617  16.268  16.230  1.00  0.00     0.002 C 
HETATM   30  C1  UNL     1      -2.500  16.236  15.252  1.00  0.00     0.005 C 
ENDBRANCH  27  29
ENDBRANCH   1  27
BRANCH  22  31
HETATM   31  C27 UNL     1      -0.636  14.225  21.577  1.00  0.00     0.038 C 
BRANCH  31  32
HETATM   32  C28 UNL     1      -0.046  14.247  22.920  1.00  0.00    -0.020 C 
HETATM   33  C29 UNL     1      -0.684  13.444  24.007  1.00  0.00     0.009 C 
HETATM   34  C30 UNL     1       1.399  13.705  22.776  1.00  0.00     0.009 C 
ENDBRANCH  31  32
ENDBRANCH  22  31
BRANCH   7  35
HETATM   35  C9  UNL     1      -7.201  16.505  22.603  1.00  0.00    -0.031 C 
HETATM   36  C10 UNL     1      -7.641  17.124  23.883  1.00  0.00     0.016 C 
HETATM   37  C11 UNL     1      -8.294  16.779  21.554  1.00  0.00     0.016 C 
HETATM   38  C12 UNL     1      -7.229  15.001  22.790  1.00  0.00     0.016 C 
ENDBRANCH   7  35
BRANCH  17  39
HETATM   39  C21 UNL     1       0.433  19.515  22.538  1.00  0.00     0.013 C 
HETATM   40  C22 UNL     1       1.806  19.559  23.080  1.00  0.00     0.012 C 
BRANCH  39  41
HETATM   41  C23 UNL     1       0.344  20.359  21.317  1.00  0.00     0.002 C 
HETATM   42  C24 UNL     1       1.233  21.589  21.582  1.00  0.00     0.005 C 
ENDBRANCH  39  41
ENDBRANCH  17  39
BRANCH  12  43
HETATM   43  C15 UNL     1      -3.693  16.175  25.478  1.00  0.00     0.067 C 
BRANCH  43  44
HETATM   44  C16 UNL     1      -4.264  17.050  26.493  1.00  0.00    -0.017 C 
HETATM   45  C17 UNL     1      -3.352  17.543  27.589  1.00  0.00     0.010 C 
HETATM   46  C18 UNL     1      -5.623  16.653  27.028  1.00  0.00     0.010 C 
ENDBRANCH  43  44
ENDBRANCH  12  43
TORSDOF 9
ENDMDL
MODEL 3
REMARK VINA RESULT: -5.496398422      3.121      7.106
REMARK  9 active torsions:
REMARK  status: ('A' for Active; 'I' for Inactive)
REMARK    1  A    between atoms: C2_2  and  C3_3 
REMARK    2  A    between atoms: C3_3  and  C5_5 
REMARK    3  A    between atoms: C8_11  and  C9_12 
REMARK    4  A    between atoms: C14_20  and  C15_21 
REMARK    5  A    between atoms: C15_21  and  C16_22 
REMARK    6  A    between atoms: C20_29  and  C21_30 
REMARK    7  A    between atoms: C21_30  and  C23_32 
REMARK    8  A    between atoms: C26_38  and  C27_39 
REMARK    9  A    between atoms: C27_39  and  C28_40 
ROOT
HETATM    1  C5  UNL     1      -4.019  17.057  20.783  1.00  0.00     0.280 C 
HETATM    2  N1  UNL     1      -3.013  16.346  21.551  1.00  0.00    -0.062 N 
ATOM      3  H11 UNL     1      -2.475  15.725  20.946  1.00  0.00     0.278 HD
ATOM      4  H12 UNL     1      -3.452  15.658  22.162  1.00  0.00     0.278 HD
HETATM    5  C6  UNL     1      -2.136  17.193  22.301  1.00  0.00     0.235 C 
HETATM    6  C7  UNL     1      -0.944  17.535  21.392  1.00  0.00     0.053 C 
HETATM    7  C8  UNL     1      -0.043  18.555  21.968  1.00  0.00     0.093 C 
HETATM    8  N2  UNL     1       0.424  19.603  21.134  1.00  0.00    -0.351 N 
ATOM      9  H2  UNL     1       1.019  20.272  21.622  1.00  0.00     0.163 HD
HETATM   10  C13 UNL     1       0.235  19.912  19.765  1.00  0.00     0.264 C 
HETATM   11  O1  UNL     1      -0.354  21.063  19.647  1.00  0.00    -0.266 OA
HETATM   12  C14 UNL     1       0.607  19.133  18.593  1.00  0.00     0.080 C 
HETATM   13  N3  UNL     1      -0.009  19.473  17.333  1.00  0.00    -0.324 N 
ATOM     14  H3  UNL     1       0.325  18.878  16.574  1.00  0.00     0.169 HD
HETATM   15  C19 UNL     1      -0.941  20.404  16.893  1.00  0.00     0.245 C 
HETATM   16  O2  UNL     1      -0.501  21.362  16.146  1.00  0.00    -0.271 OA
HETATM   17  C20 UNL     1      -2.396  20.521  17.114  1.00  0.00     0.180 C 
HETATM   18  N4  UNL     1      -3.119  19.559  16.250  1.00  0.00    -0.346 N 
ATOM     19  H4  UNL     1      -3.102  19.739  15.246  1.00  0.00     0.163 HD
HETATM   20  C25 UNL     1      -3.825  18.422  16.677  1.00  0.00     0.241 C 
HETATM   21  O3  UNL     1      -5.016  18.230  16.246  1.00  0.00    -0.271 OA
HETATM   22  C26 UNL     1      -3.317  17.398  17.600  1.00  0.00     0.177 C 
HETATM   23  N5  UNL     1      -4.443  16.714  18.270  1.00  0.00    -0.346 N 
ATOM     24  H5  UNL     1      -5.307  16.566  17.748  1.00  0.00     0.163 HD
HETATM   25  C31 UNL     1      -4.367  16.253  19.617  1.00  0.00     0.249 C 
HETATM   26  O4  UNL     1      -4.636  15.009  19.778  1.00  0.00    -0.271 OA
ENDROOT
BRANCH   1  27
HETATM   27  C3  UNL     1      -5.120  17.634  21.585  1.00  0.00     0.021 C 
HETATM   28  C4  UNL     1      -6.393  17.642  20.777  1.00  0.00     0.012 C 
BRANCH  27  29
HETATM   29  C2  UNL     1      -5.299  17.175  22.980  1.00  0.00     0.002 C 
HETATM   30  C1  UNL     1      -6.681  17.133  23.519  1.00  0.00     0.005 C 
ENDBRANCH  27  29
ENDBRANCH   1  27
BRANCH  22  31
HETATM   31  C27 UNL     1      -2.420  16.424  16.935  1.00  0.00     0.038 C 
BRANCH  31  32
HETATM   32  C28 UNL     1      -1.189  15.965  17.589  1.00  0.00    -0.020 C 
HETATM   33  C29 UNL     1      -1.273  14.893  18.625  1.00  0.00     0.009 C 
HETATM   34  C30 UNL     1      -0.275  15.411  16.468  1.00  0.00     0.009 C 
ENDBRANCH  31  32
ENDBRANCH  22  31
BRANCH   7  35
HETATM   35  C9  UNL     1       1.107  18.023  22.796  1.00  0.00    -0.031 C 
HETATM   36  C10 UNL     1       1.197  16.539  22.863  1.00  0.00     0.016 C 
HETATM   37  C11 UNL     1       2.426  18.543  22.199  1.00  0.00     0.016 C 
HETATM   38  C12 UNL     1       1.108  18.545  24.219  1.00  0.00     0.016 C 
ENDBRANCH   7  35
BRANCH  17  39
HETATM   39  C21 UNL     1      -2.907  21.881  16.768  1.00  0.00     0.013 C 
HETATM   40  C22 UNL     1      -4.152  21.985  15.979  1.00  0.00     0.012 C 
BRANCH  39  41
HETATM   41  C23 UNL     1      -2.909  22.902  17.851  1.00  0.00     0.002 C 
HETATM   42  C24 UNL     1      -3.916  23.984  17.416  1.00  0.00     0.005 C 
ENDBRANCH  39  41
ENDBRANCH  17  39
BRANCH  12  43
HETATM   43  C15 UNL     1       2.079  18.849  18.431  1.00  0.00     0.067 C 
BRANCH  43  44
HETATM   44  C16 UNL     1       2.591  17.488  18.343  1.00  0.00    -0.017 C 
HETATM   45  C17 UNL     1       2.840  16.919  16.968  1.00  0.00     0.010 C 
HETATM   46  C18 UNL     1       1.949  16.473  19.264  1.00  0.00     0.010 C 
ENDBRANCH  43  44
ENDBRANCH  12  43
TORSDOF 9
ENDMDL
MODEL 4
REMARK VINA RESULT: -5.273754625      2.406      6.082
REMARK  9 active torsions:
REMARK  status: ('A' for Active; 'I' for Inactive)
REMARK    1  A    between atoms: C2_2  and  C3_3 
REMARK    2  A    between atoms: C3_3  and  C5_5 
REMARK    3  A    between atoms: C8_11  and  C9_12 
REMARK    4  A    between atoms: C14_20  and  C15_21 
REMARK    5  A    between atoms: C15_21  and  C16_22 
REMARK    6  A    between atoms: C20_29  and  C21_30 
REMARK    7  A    between atoms: C21_30  and  C23_32 
REMARK    8  A    between atoms: C26_38  and  C27_39 
REMARK    9  A    between atoms: C27_39  and  C28_40 
ROOT
HETATM    1  C5  UNL     1      -3.199  16.751  19.853  1.00  0.00     0.280 C 
HETATM    2  N1  UNL     1      -3.339  18.017  19.157  1.00  0.00    -0.062 N 
ATOM      3  H11 UNL     1      -3.494  18.774  19.823  1.00  0.00     0.278 HD
ATOM      4  H12 UNL     1      -4.223  18.048  18.649  1.00  0.00     0.278 HD
HETATM    5  C6  UNL     1      -2.250  18.335  18.285  1.00  0.00     0.235 C 
HETATM    6  C7  UNL     1      -1.212  19.109  19.116  1.00  0.00     0.053 C 
HETATM    7  C8  UNL     1       0.055  19.346  18.395  1.00  0.00     0.093 C 
HETATM    8  N2  UNL     1       1.280  19.134  19.078  1.00  0.00    -0.351 N 
ATOM      9  H2  UNL     1       2.101  19.297  18.496  1.00  0.00     0.163 HD
HETATM   10  C13 UNL     1       1.599  18.743  20.402  1.00  0.00     0.264 C 
HETATM   11  O1  UNL     1       2.254  17.621  20.387  1.00  0.00    -0.266 OA
HETATM   12  C14 UNL     1       1.290  19.418  21.653  1.00  0.00     0.080 C 
HETATM   13  N3  UNL     1       1.390  18.656  22.874  1.00  0.00    -0.324 N 
ATOM     14  H3  UNL     1       1.166  19.220  23.694  1.00  0.00     0.169 HD
HETATM   15  C19 UNL     1       1.714  17.349  23.216  1.00  0.00     0.245 C 
HETATM   16  O2  UNL     1       2.839  17.167  23.824  1.00  0.00    -0.271 OA
HETATM   17  C20 UNL     1       1.000  16.073  23.016  1.00  0.00     0.180 C 
HETATM   18  N4  UNL     1      -0.090  15.941  24.011  1.00  0.00    -0.346 N 
ATOM     19  H4  UNL     1       0.189  15.809  24.983  1.00  0.00     0.163 HD
HETATM   20  C25 UNL     1      -1.469  15.980  23.748  1.00  0.00     0.241 C 
HETATM   21  O3  UNL     1      -2.221  15.060  24.228  1.00  0.00    -0.271 OA
HETATM   22  C26 UNL     1      -2.157  17.003  22.950  1.00  0.00     0.177 C 
HETATM   23  N5  UNL     1      -3.415  16.457  22.399  1.00  0.00    -0.346 N 
ATOM     24  H5  UNL     1      -3.943  15.785  22.955  1.00  0.00     0.163 HD
HETATM   25  C31 UNL     1      -3.918  16.835  21.119  1.00  0.00     0.249 C 
HETATM   26  O4  UNL     1      -5.119  17.286  21.123  1.00  0.00    -0.271 OA
ENDROOT
BRANCH   1  27
HETATM   27  C3  UNL     1      -3.409  15.553  19.011  1.00  0.00     0.021 C 
HETATM   28  C4  UNL     1      -4.410  15.857  17.925  1.00  0.00     0.012 C 
BRANCH  27  29
HETATM   29  C2  UNL     1      -2.225  14.800  18.541  1.00  0.00     0.002 C 
HETATM   30  C1  UNL     1      -1.996  14.721  17.076  1.00  0.00     0.005 C 
ENDBRANCH  27  29
ENDBRANCH   1  27
BRANCH  22  31
HETATM   31  C27 UNL     1      -2.405  18.250  23.711  1.00  0.00     0.038 C 
BRANCH  31  32
HETATM   32  C28 UNL     1      -3.482  18.324  24.705  1.00  0.00    -0.020 C 
HETATM   33  C29 UNL     1      -3.208  17.885  26.107  1.00  0.00     0.009 C 
HETATM   34  C30 UNL     1      -3.899  19.813  24.793  1.00  0.00     0.009 C 
ENDBRANCH  31  32
ENDBRANCH  22  31
BRANCH   7  35
HETATM   35  C9  UNL     1       0.135  20.640  17.613  1.00  0.00    -0.031 C 
HETATM   36  C10 UNL     1      -0.161  20.513  16.160  1.00  0.00     0.016 C 
HETATM   37  C11 UNL     1      -0.874  21.638  18.208  1.00  0.00     0.016 C 
HETATM   38  C12 UNL     1       1.475  21.336  17.747  1.00  0.00     0.016 C 
ENDBRANCH   7  35
BRANCH  17  39
HETATM   39  C21 UNL     1       1.898  14.893  23.199  1.00  0.00     0.013 C 
HETATM   40  C22 UNL     1       1.586  13.933  24.277  1.00  0.00     0.012 C 
BRANCH  39  41
HETATM   41  C23 UNL     1       2.315  14.160  21.974  1.00  0.00     0.002 C 
HETATM   42  C24 UNL     1       1.232  14.446  20.916  1.00  0.00     0.005 C 
ENDBRANCH  39  41
ENDBRANCH  17  39
BRANCH  12  43
HETATM   43  C15 UNL     1       1.868  20.801  21.815  1.00  0.00     0.067 C 
BRANCH  43  44
HETATM   44  C16 UNL     1       1.047  21.929  22.235  1.00  0.00    -0.017 C 
HETATM   45  C17 UNL     1       0.758  23.005  21.218  1.00  0.00     0.010 C 
HETATM   46  C18 UNL     1       1.361  22.512  23.596  1.00  0.00     0.010 C 
ENDBRANCH  43  44
ENDBRANCH  12  43
TORSDOF 9
ENDMDL
MODEL 5
REMARK VINA RESULT: -5.200045520      2.417      6.604
REMARK  9 active torsions:
REMARK  status: ('A' for Active; 'I' for Inactive)
REMARK    1  A    between atoms: C2_2  and  C3_3 
REMARK    2  A    between atoms: C3_3  and  C5_5 
REMARK    3  A    between atoms: C8_11  and  C9_12 
REMARK    4  A    between atoms: C14_20  and  C15_21 
REMARK    5  A    between atoms: C15_21  and  C16_22 
REMARK    6  A    between atoms: C20_29  and  C21_30 
REMARK    7  A    between atoms: C21_30  and  C23_32 
REMARK    8  A    between atoms: C26_38  and  C27_39 
REMARK    9  A    between atoms: C27_39  and  C28_40 
ROOT
HETATM    1  C5  UNL     1       1.048  19.062  21.359  1.00  0.00     0.280 C 
HETATM    2  N1  UNL     1       0.251  19.610  22.442  1.00  0.00    -0.062 N 
ATOM      3  H11 UNL     1      -0.412  20.298  22.084  1.00  0.00     0.278 HD
ATOM      4  H12 UNL     1       0.822  20.210  23.037  1.00  0.00     0.278 HD
HETATM    5  C6  UNL     1      -0.428  18.627  23.230  1.00  0.00     0.235 C 
HETATM    6  C7  UNL     1      -1.801  18.389  22.577  1.00  0.00     0.053 C 
HETATM    7  C8  UNL     1      -2.545  17.262  23.176  1.00  0.00     0.093 C 
HETATM    8  N2  UNL     1      -3.197  16.340  22.317  1.00  0.00    -0.351 N 
ATOM      9  H2  UNL     1      -3.663  15.583  22.815  1.00  0.00     0.163 HD
HETATM   10  C13 UNL     1      -3.334  16.255  20.909  1.00  0.00     0.264 C 
HETATM   11  O1  UNL     1      -2.792  15.157  20.476  1.00  0.00    -0.266 OA
HETATM   12  C14 UNL     1      -3.968  17.193  19.995  1.00  0.00     0.080 C 
HETATM   13  N3  UNL     1      -3.664  17.075  18.589  1.00  0.00    -0.324 N 
ATOM     14  H3  UNL     1      -4.164  17.768  18.033  1.00  0.00     0.169 HD
HETATM   15  C19 UNL     1      -2.862  16.257  17.802  1.00  0.00     0.245 C 
HETATM   16  O2  UNL     1      -3.467  15.412  17.035  1.00  0.00    -0.271 OA
HETATM   17  C20 UNL     1      -1.396  16.158  17.660  1.00  0.00     0.180 C 
HETATM   18  N4  UNL     1      -0.893  17.267  16.817  1.00  0.00    -0.346 N 
ATOM     19  H4  UNL     1      -1.144  17.245  15.829  1.00  0.00     0.163 HD
HETATM   20  C25 UNL     1      -0.104  18.348  17.245  1.00  0.00     0.241 C 
HETATM   21  O3  UNL     1       0.955  18.645  16.587  1.00  0.00    -0.271 OA
HETATM   22  C26 UNL     1      -0.379  19.197  18.412  1.00  0.00     0.177 C 
HETATM   23  N5  UNL     1       0.874  19.807  18.904  1.00  0.00    -0.346 N 
ATOM     24  H5  UNL     1       1.592  20.064  18.227  1.00  0.00     0.163 HD
HETATM   25  C31 UNL     1       1.116  20.050  20.288  1.00  0.00     0.249 C 
HETATM   26  O4  UNL     1       1.418  21.262  20.578  1.00  0.00    -0.271 OA
ENDROOT
BRANCH   1  27
HETATM   27  C3  UNL     1       2.304  18.407  21.782  1.00  0.00     0.021 C 
HETATM   28  C4  UNL     1       2.839  19.075  23.024  1.00  0.00     0.012 C 
BRANCH  27  29
HETATM   29  C2  UNL     1       2.353  16.929  21.829  1.00  0.00     0.002 C 
HETATM   30  C1  UNL     1       2.344  16.281  23.165  1.00  0.00     0.005 C 
ENDBRANCH  27  29
ENDBRANCH   1  27
BRANCH  22  31
HETATM   31  C27 UNL     1      -1.404  20.231  18.136  1.00  0.00     0.038 C 
BRANCH  31  32
HETATM   32  C28 UNL     1      -1.034  21.514  17.529  1.00  0.00    -0.020 C 
HETATM   33  C29 UNL     1      -1.464  21.806  16.128  1.00  0.00     0.009 C 
HETATM   34  C30 UNL     1      -1.667  22.619  18.412  1.00  0.00     0.009 C 
ENDBRANCH  31  32
ENDBRANCH  22  31
BRANCH   7  35
HETATM   35  C9  UNL     1      -3.468  17.617  24.321  1.00  0.00    -0.031 C 
HETATM   36  C10 UNL     1      -4.175  18.919  24.175  1.00  0.00     0.016 C 
HETATM   37  C11 UNL     1      -4.539  16.519  24.450  1.00  0.00     0.016 C 
HETATM   38  C12 UNL     1      -2.774  17.624  25.668  1.00  0.00     0.016 C 
ENDBRANCH   7  35
BRANCH  17  39
HETATM   39  C21 UNL     1      -0.983  14.886  16.993  1.00  0.00     0.013 C 
HETATM   40  C22 UNL     1      -0.251  14.970  15.713  1.00  0.00     0.012 C 
BRANCH  39  41
HETATM   41  C23 UNL     1      -0.379  13.833  17.853  1.00  0.00     0.002 C 
HETATM   42  C24 UNL     1       0.404  14.576  18.952  1.00  0.00     0.005 C 
ENDBRANCH  39  41
ENDBRANCH  17  39
BRANCH  12  43
HETATM   43  C15 UNL     1      -5.435  17.447  20.224  1.00  0.00     0.067 C 
BRANCH  43  44
HETATM   44  C16 UNL     1      -6.247  16.559  21.046  1.00  0.00    -0.017 C 
HETATM   45  C17 UNL     1      -6.839  15.339  20.387  1.00  0.00     0.010 C 
HETATM   46  C18 UNL     1      -7.232  17.229  21.980  1.00  0.00     0.010 C 
ENDBRANCH  43  44
ENDBRANCH  12  43
TORSDOF 9
ENDMDL
