MODEL 1
REMARK VINA RESULT: -7.074969477      0.000      0.000
REMARK  6 active torsions:
REMARK  status: ('A' for Active; 'I' for Inactive)
REMARK    1  A    between atoms: C2_2  and  C3_3 
REMARK    2  A    between atoms: C2_2  and  C4_6 
REMARK    3  A    between atoms: C3_3  and  O1_4 
REMARK    4  A    between atoms: C4_6  and  N1_7 
REMARK    5  A    between atoms: N1_7  and  C5_9 
REMARK    6  A    between atoms: N3_18  and  C12_19 
ROOT
HETATM    1  C5  UNL     1      22.116  -9.922  -3.158  1.00  0.00     0.113 A 
HETATM    2  N2  UNL     1      23.220 -10.411  -2.560  1.00  0.00    -0.352 N 
ATOM      3  H2  UNL     1      23.240 -10.420  -1.541  1.00  0.00     0.166 HD
HETATM    4  C6  UNL     1      24.283 -10.880  -3.198  1.00  0.00     0.092 A 
HETATM    5  C7  UNL     1      24.262 -10.870  -4.585  1.00  0.00     0.048 A 
HETATM    6  C8  UNL     1      23.158 -10.382  -5.261  1.00  0.00     0.050 A 
HETATM    7  C9  UNL     1      22.085  -9.908  -4.537  1.00  0.00     0.036 A 
HETATM    8  C10 UNL     1      21.161  -9.500  -5.484  1.00  0.00     0.035 A 
HETATM    9  C11 UNL     1      21.686  -9.731  -6.738  1.00  0.00     0.093 A 
HETATM   10  N3  UNL     1      22.897 -10.267  -6.595  1.00  0.00    -0.347 N 
ENDROOT
BRANCH   1  11
HETATM   11  N1  UNL     1      21.108  -9.477  -2.500  1.00  0.00    -0.375 N 
ATOM     12  H1  UNL     1      21.098  -8.518  -2.153  1.00  0.00     0.161 HD
BRANCH  11  13
HETATM   13  C4  UNL     1      19.991 -10.355  -2.261  1.00  0.00     0.127 C 
BRANCH  13  14
HETATM   14  C2  UNL     1      18.673  -9.659  -2.281  1.00  0.00     0.023 C 
HETATM   15  C1  UNL     1      17.805 -10.316  -1.200  1.00  0.00     0.014 C 
BRANCH  14  16
HETATM   16  C3  UNL     1      18.778  -8.198  -1.899  1.00  0.00     0.170 C 
BRANCH  16  17
HETATM   17  O1  UNL     1      19.443  -8.049  -0.684  1.00  0.00    -0.400 OA
ATOM     18  H1  UNL     1      19.932  -7.235  -0.663  1.00  0.00     0.209 HD
ENDBRANCH  16  17
ENDBRANCH  14  16
ENDBRANCH  13  14
ENDBRANCH  11  13
ENDBRANCH   1  11
BRANCH  10  19
HETATM   19  C12 UNL     1      23.847 -10.687  -7.616  1.00  0.00     0.026 C 
HETATM   20  C13 UNL     1      24.193 -12.154  -7.450  1.00  0.00     0.038 C 
HETATM   21  C14 UNL     1      25.117  -9.849  -7.546  1.00  0.00     0.038 C 
HETATM   22  C15 UNL     1      23.245 -10.461  -8.986  1.00  0.00     0.038 C 
ENDBRANCH  10  19
TORSDOF 6
ENDMDL
MODEL 2
REMARK VINA RESULT: -7.006411250      2.879      4.155
REMARK  6 active torsions:
REMARK  status: ('A' for Active; 'I' for Inactive)
REMARK    1  A    between atoms: C2_2  and  C3_3 
REMARK    2  A    between atoms: C2_2  and  C4_6 
REMARK    3  A    between atoms: C3_3  and  O1_4 
REMARK    4  A    between atoms: C4_6  and  N1_7 
REMARK    5  A    between atoms: N1_7  and  C5_9 
REMARK    6  A    between atoms: N3_18  and  C12_19 
ROOT
HETATM    1  C5  UNL     1      24.132 -11.469  -5.892  1.00  0.00     0.113 A 
HETATM    2  N2  UNL     1      25.141 -11.443  -6.786  1.00  0.00    -0.352 N 
ATOM      3  H2  UNL     1      25.979 -11.982  -6.568  1.00  0.00     0.166 HD
HETATM    4  C6  UNL     1      25.125 -10.770  -7.928  1.00  0.00     0.092 A 
HETATM    5  C7  UNL     1      23.987 -10.036  -8.231  1.00  0.00     0.048 A 
HETATM    6  C8  UNL     1      22.916 -10.020  -7.356  1.00  0.00     0.050 A 
HETATM    7  C9  UNL     1      22.997 -10.742  -6.184  1.00  0.00     0.036 A 
HETATM    8  C10 UNL     1      21.790 -10.526  -5.541  1.00  0.00     0.035 A 
HETATM    9  C11 UNL     1      21.019  -9.692  -6.323  1.00  0.00     0.093 A 
HETATM   10  N3  UNL     1      21.708  -9.390  -7.423  1.00  0.00    -0.347 N 
ENDROOT
BRANCH   1  11
HETATM   11  N1  UNL     1      24.191 -12.136  -4.797  1.00  0.00    -0.375 N 
ATOM     12  H1  UNL     1      23.662 -13.001  -4.688  1.00  0.00     0.161 HD
BRANCH  11  13
HETATM   13  C4  UNL     1      25.015 -11.641  -3.725  1.00  0.00     0.127 C 
BRANCH  13  14
HETATM   14  C2  UNL     1      24.243 -11.257  -2.509  1.00  0.00     0.023 C 
HETATM   15  C1  UNL     1      23.864  -9.779  -2.669  1.00  0.00     0.014 C 
BRANCH  14  16
HETATM   16  C3  UNL     1      22.935 -12.009  -2.387  1.00  0.00     0.170 C 
BRANCH  16  17
HETATM   17  O1  UNL     1      22.035 -11.314  -1.583  1.00  0.00    -0.400 OA
ATOM     18  H1  UNL     1      21.311 -11.871  -1.323  1.00  0.00     0.209 HD
ENDBRANCH  16  17
ENDBRANCH  14  16
ENDBRANCH  13  14
ENDBRANCH  11  13
ENDBRANCH   1  11
BRANCH  10  19
HETATM   19  C12 UNL     1      21.328  -8.547  -8.548  1.00  0.00     0.026 C 
HETATM   20  C13 UNL     1      21.199  -9.375  -9.812  1.00  0.00     0.038 C 
HETATM   21  C14 UNL     1      22.351  -7.440  -8.761  1.00  0.00     0.038 C 
HETATM   22  C15 UNL     1      20.006  -7.875  -8.248  1.00  0.00     0.038 C 
ENDBRANCH  10  19
TORSDOF 6
ENDMDL
MODEL 3
REMARK VINA RESULT: -6.786144152      1.216      1.953
REMARK  6 active torsions:
REMARK  status: ('A' for Active; 'I' for Inactive)
REMARK    1  A    between atoms: C2_2  and  C3_3 
REMARK    2  A    between atoms: C2_2  and  C4_6 
REMARK    3  A    between atoms: C3_3  and  O1_4 
REMARK    4  A    between atoms: C4_6  and  N1_7 
REMARK    5  A    between atoms: N1_7  and  C5_9 
REMARK    6  A    between atoms: N3_18  and  C12_19 
ROOT
HETATM    1  C5  UNL     1      20.274  -9.895  -3.514  1.00  0.00     0.113 A 
HETATM    2  N2  UNL     1      20.803 -10.524  -2.446  1.00  0.00    -0.352 N 
ATOM      3  H2  UNL     1      20.251 -10.543  -1.588  1.00  0.00     0.166 HD
HETATM    4  C6  UNL     1      21.986 -11.122  -2.426  1.00  0.00     0.092 A 
HETATM    5  C7  UNL     1      22.742 -11.100  -3.589  1.00  0.00     0.048 A 
HETATM    6  C8  UNL     1      22.257 -10.470  -4.722  1.00  0.00     0.050 A 
HETATM    7  C9  UNL     1      21.018  -9.868  -4.675  1.00  0.00     0.036 A 
HETATM    8  C10 UNL     1      20.825  -9.339  -5.941  1.00  0.00     0.035 A 
HETATM    9  C11 UNL     1      21.932  -9.627  -6.710  1.00  0.00     0.093 A 
HETATM   10  N3  UNL     1      22.796 -10.314  -5.965  1.00  0.00    -0.347 N 
ENDROOT
BRANCH   1  11
HETATM   11  N1  UNL     1      19.123  -9.329  -3.489  1.00  0.00    -0.375 N 
ATOM     12  H1  UNL     1      18.911  -8.556  -4.119  1.00  0.00     0.161 HD
BRANCH  11  13
HETATM   13  C4  UNL     1      18.134  -9.806  -2.555  1.00  0.00     0.127 C 
BRANCH  13  14
HETATM   14  C2  UNL     1      17.527  -8.724  -1.728  1.00  0.00     0.023 C 
HETATM   15  C1  UNL     1      16.126  -9.203  -1.326  1.00  0.00     0.014 C 
BRANCH  14  16
HETATM   16  C3  UNL     1      18.274  -8.492  -0.432  1.00  0.00     0.170 C 
BRANCH  16  17
HETATM   17  O1  UNL     1      19.579  -8.071  -0.679  1.00  0.00    -0.400 OA
ATOM     18  H1  UNL     1      20.204  -8.742  -0.430  1.00  0.00     0.209 HD
ENDBRANCH  16  17
ENDBRANCH  14  16
ENDBRANCH  13  14
ENDBRANCH  11  13
ENDBRANCH   1  11
BRANCH  10  19
HETATM   19  C12 UNL     1      24.105 -10.845  -6.322  1.00  0.00     0.026 C 
HETATM   20  C13 UNL     1      24.753  -9.987  -7.391  1.00  0.00     0.038 C 
HETATM   21  C14 UNL     1      23.987 -12.280  -6.816  1.00  0.00     0.038 C 
HETATM   22  C15 UNL     1      24.988 -10.872  -5.093  1.00  0.00     0.038 C 
ENDBRANCH  10  19
TORSDOF 6
ENDMDL
MODEL 4
REMARK VINA RESULT: -6.782864712      2.040      3.391
REMARK  6 active torsions:
REMARK  status: ('A' for Active; 'I' for Inactive)
REMARK    1  A    between atoms: C2_2  and  C3_3 
REMARK    2  A    between atoms: C2_2  and  C4_6 
REMARK    3  A    between atoms: C3_3  and  O1_4 
REMARK    4  A    between atoms: C4_6  and  N1_7 
REMARK    5  A    between atoms: N1_7  and  C5_9 
REMARK    6  A    between atoms: N3_18  and  C12_19 
ROOT
HETATM    1  C5  UNL     1      19.844  -7.740  -4.736  1.00  0.00     0.113 A 
HETATM    2  N2  UNL     1      19.420  -6.613  -5.341  1.00  0.00    -0.352 N 
ATOM      3  H2  UNL     1      18.789  -6.006  -4.818  1.00  0.00     0.166 HD
HETATM    4  C6  UNL     1      19.764  -6.233  -6.564  1.00  0.00     0.092 A 
HETATM    5  C7  UNL     1      20.622  -7.054  -7.279  1.00  0.00     0.048 A 
HETATM    6  C8  UNL     1      21.095  -8.227  -6.717  1.00  0.00     0.050 A 
HETATM    7  C9  UNL     1      20.699  -8.564  -5.440  1.00  0.00     0.036 A 
HETATM    8  C10 UNL     1      21.331  -9.766  -5.171  1.00  0.00     0.035 A 
HETATM    9  C11 UNL     1      22.080 -10.124  -6.271  1.00  0.00     0.093 A 
HETATM   10  N3  UNL     1      21.933  -9.186  -7.205  1.00  0.00    -0.347 N 
ENDROOT
BRANCH   1  11
HETATM   11  N1  UNL     1      19.487  -8.070  -3.549  1.00  0.00    -0.375 N 
ATOM     12  H1  UNL     1      20.067  -7.826  -2.746  1.00  0.00     0.161 HD
BRANCH  11  13
HETATM   13  C4  UNL     1      18.252  -8.789  -3.369  1.00  0.00     0.127 C 
BRANCH  13  14
HETATM   14  C2  UNL     1      18.128  -9.433  -2.030  1.00  0.00     0.023 C 
HETATM   15  C1  UNL     1      19.387 -10.285  -1.827  1.00  0.00     0.014 C 
BRANCH  14  16
HETATM   16  C3  UNL     1      18.119  -8.429  -0.898  1.00  0.00     0.170 C 
BRANCH  16  17
HETATM   17  O1  UNL     1      19.408  -7.972  -0.629  1.00  0.00    -0.400 OA
ATOM     18  H1  UNL     1      19.392  -7.069  -0.332  1.00  0.00     0.209 HD
ENDBRANCH  16  17
ENDBRANCH  14  16
ENDBRANCH  13  14
ENDBRANCH  11  13
ENDBRANCH   1  11
BRANCH  10  19
HETATM   19  C12 UNL     1      22.518  -9.108  -8.536  1.00  0.00     0.026 C 
HETATM   20  C13 UNL     1      23.221  -7.778  -8.732  1.00  0.00     0.038 C 
HETATM   21  C14 UNL     1      21.448  -9.285  -9.605  1.00  0.00     0.038 C 
HETATM   22  C15 UNL     1      23.511 -10.236  -8.715  1.00  0.00     0.038 C 
ENDBRANCH  10  19
TORSDOF 6
ENDMDL
MODEL 5
REMARK VINA RESULT: -6.741350611      1.108      1.108
REMARK  6 active torsions:
REMARK  status: ('A' for Active; 'I' for Inactive)
REMARK    1  A    between atoms: C2_2  and  C3_3 
REMARK    2  A    between atoms: C2_2  and  C4_6 
REMARK    3  A    between atoms: C3_3  and  O1_4 
REMARK    4  A    between atoms: C4_6  and  N1_7 
REMARK    5  A    between atoms: N1_7  and  C5_9 
REMARK    6  A    between atoms: N3_18  and  C12_19 
ROOT
HETATM    1  C5  UNL     1      21.457 -10.015  -3.170  1.00  0.00     0.113 A 
HETATM    2  N2  UNL     1      22.366 -10.709  -2.457  1.00  0.00    -0.352 N 
ATOM      3  H2  UNL     1      22.211 -10.797  -1.453  1.00  0.00     0.166 HD
HETATM    4  C6  UNL     1      23.447 -11.287  -2.964  1.00  0.00     0.092 A 
HETATM    5  C7  UNL     1      23.663 -11.171  -4.329  1.00  0.00     0.048 A 
HETATM    6  C8  UNL     1      22.767 -10.472  -5.119  1.00  0.00     0.050 A 
HETATM    7  C9  UNL     1      21.663  -9.895  -4.529  1.00  0.00     0.036 A 
HETATM    8  C10 UNL     1      20.979  -9.282  -5.566  1.00  0.00     0.035 A 
HETATM    9  C11 UNL     1      21.672  -9.497  -6.737  1.00  0.00     0.093 A 
HETATM   10  N3  UNL     1      22.755 -10.221  -6.459  1.00  0.00    -0.347 N 
ENDROOT
BRANCH   1  11
HETATM   11  N1  UNL     1      20.423  -9.471  -2.639  1.00  0.00    -0.375 N 
ATOM     12  H1  UNL     1      20.185  -8.501  -2.843  1.00  0.00     0.161 HD
BRANCH  11  13
HETATM   13  C4  UNL     1      19.606 -10.255  -1.748  1.00  0.00     0.127 C 
BRANCH  13  14
HETATM   14  C2  UNL     1      18.215  -9.739  -1.609  1.00  0.00     0.023 C 
HETATM   15  C1  UNL     1      18.106  -9.120  -0.209  1.00  0.00     0.014 C 
BRANCH  14  16
HETATM   16  C3  UNL     1      17.907  -8.620  -2.581  1.00  0.00     0.170 C 
BRANCH  16  17
HETATM   17  O1  UNL     1      17.746  -9.115  -3.873  1.00  0.00    -0.400 OA
ATOM     18  H1  UNL     1      18.170  -8.550  -4.508  1.00  0.00     0.209 HD
ENDBRANCH  16  17
ENDBRANCH  14  16
ENDBRANCH  13  14
ENDBRANCH  11  13
ENDBRANCH   1  11
BRANCH  10  19
HETATM   19  C12 UNL     1      23.798 -10.704  -7.354  1.00  0.00     0.026 C 
HETATM   20  C13 UNL     1      24.103 -12.163  -7.076  1.00  0.00     0.038 C 
HETATM   21  C14 UNL     1      25.066  -9.875  -7.200  1.00  0.00     0.038 C 
HETATM   22  C15 UNL     1      23.341 -10.547  -8.788  1.00  0.00     0.038 C 
ENDBRANCH  10  19
TORSDOF 6
ENDMDL
