MODEL 1
REMARK VINA RESULT: -7.659931442      0.000      0.000
REMARK  4 active torsions:
REMARK  status: ('A' for Active; 'I' for Inactive)
REMARK    1  A    between atoms: O1_2  and  C2_3 
REMARK    2  A    between atoms: C5_6  and  C6_7 
REMARK    3  A    between atoms: C6_7  and  N1_8 
REMARK    4  A    between atoms: N1_8  and  C7_10 
ROOT
HETATM    1  C7  UNL     1      22.193 -10.615  -5.197  1.00  0.00     0.116 A 
HETATM    2  N2  UNL     1      22.799 -10.261  -6.343  1.00  0.00    -0.332 N 
ATOM      3  H2  UNL     1      22.227  -9.896  -7.104  1.00  0.00     0.168 HD
HETATM    4  C8  UNL     1      24.132 -10.367  -6.532  1.00  0.00     0.080 A 
HETATM    5  C9  UNL     1      24.652  -9.927  -7.871  1.00  0.00     0.089 C 
HETATM    6  N3  UNL     1      24.926 -10.839  -5.570  1.00  0.00    -0.332 N 
ATOM      7  H3  UNL     1      25.931 -10.914  -5.726  1.00  0.00     0.168 HD
HETATM    8  C10 UNL     1      24.387 -11.221  -4.380  1.00  0.00     0.120 A 
HETATM    9  N4  UNL     1      24.933 -11.726  -3.245  1.00  0.00    -0.351 N 
ATOM     10  H4  UNL     1      25.925 -11.915  -3.097  1.00  0.00     0.166 HD
HETATM   11  C11 UNL     1      23.957 -11.938  -2.344  1.00  0.00     0.091 A 
HETATM   12  C12 UNL     1      22.746 -11.556  -2.923  1.00  0.00     0.036 A 
HETATM   13  C13 UNL     1      23.023 -11.108  -4.195  1.00  0.00     0.053 A 
ENDROOT
BRANCH   1  14
HETATM   14  N1  UNL     1      20.925 -10.519  -5.005  1.00  0.00    -0.371 N 
ATOM     15  H1  UNL     1      20.322 -11.341  -5.037  1.00  0.00     0.161 HD
BRANCH  14  16
HETATM   16  C6  UNL     1      20.383  -9.199  -4.741  1.00  0.00     0.160 C 
BRANCH  16  17
HETATM   17  C5  UNL     1      19.343  -9.210  -3.706  1.00  0.00    -0.040 A 
HETATM   18  C4  UNL     1      18.254  -8.379  -3.869  1.00  0.00     0.011 A 
HETATM   19  C3  UNL     1      17.293  -8.413  -2.878  1.00  0.00     0.037 A 
HETATM   20  C2  UNL     1      17.367  -9.211  -1.771  1.00  0.00     0.068 A 
HETATM   21  C15 UNL     1      18.473 -10.026  -1.649  1.00  0.00     0.037 A 
HETATM   22  C14 UNL     1      19.467 -10.032  -2.614  1.00  0.00     0.011 A 
BRANCH  20  23
HETATM   23  O1  UNL     1      16.373  -9.209  -0.801  1.00  0.00    -0.356 OA
HETATM   24  C1  UNL     1      15.043  -8.847  -1.091  1.00  0.00     0.210 C 
ENDBRANCH  20  23
ENDBRANCH  16  17
ENDBRANCH  14  16
ENDBRANCH   1  14
TORSDOF 4
ENDMDL
MODEL 2
REMARK VINA RESULT: -7.525840796      1.115      2.733
REMARK  4 active torsions:
REMARK  status: ('A' for Active; 'I' for Inactive)
REMARK    1  A    between atoms: O1_2  and  C2_3 
REMARK    2  A    between atoms: C5_6  and  C6_7 
REMARK    3  A    between atoms: C6_7  and  N1_8 
REMARK    4  A    between atoms: N1_8  and  C7_10 
ROOT
HETATM    1  C7  UNL     1      22.388 -10.351  -5.544  1.00  0.00     0.116 A 
HETATM    2  N2  UNL     1      23.164 -10.684  -4.498  1.00  0.00    -0.332 N 
ATOM      3  H2  UNL     1      22.726 -10.800  -3.584  1.00  0.00     0.168 HD
HETATM    4  C8  UNL     1      24.497 -10.871  -4.603  1.00  0.00     0.080 A 
HETATM    5  C9  UNL     1      25.219 -11.241  -3.339  1.00  0.00     0.089 C 
HETATM    6  N3  UNL     1      25.120 -10.730  -5.774  1.00  0.00    -0.332 N 
ATOM      7  H3  UNL     1      26.127 -10.874  -5.839  1.00  0.00     0.168 HD
HETATM    8  C10 UNL     1      24.403 -10.393  -6.881  1.00  0.00     0.120 A 
HETATM    9  N4  UNL     1      24.755 -10.185  -8.175  1.00  0.00    -0.351 N 
ATOM     10  H4  UNL     1      25.701 -10.256  -8.550  1.00  0.00     0.166 HD
HETATM   11  C11 UNL     1      23.657  -9.870  -8.884  1.00  0.00     0.091 A 
HETATM   12  C12 UNL     1      22.565  -9.875  -8.015  1.00  0.00     0.036 A 
HETATM   13  C13 UNL     1      23.039 -10.204  -6.764  1.00  0.00     0.053 A 
ENDROOT
BRANCH   1  14
HETATM   14  N1  UNL     1      21.118 -10.170  -5.457  1.00  0.00    -0.371 N 
ATOM     15  H1  UNL     1      20.460 -10.894  -5.744  1.00  0.00     0.161 HD
BRANCH  14  16
HETATM   16  C6  UNL     1      20.654  -8.897  -4.935  1.00  0.00     0.160 C 
BRANCH  16  17
HETATM   17  C5  UNL     1      19.605  -9.049  -3.921  1.00  0.00    -0.040 A 
HETATM   18  C4  UNL     1      18.472  -8.270  -4.035  1.00  0.00     0.011 A 
HETATM   19  C3  UNL     1      17.503  -8.436  -3.066  1.00  0.00     0.037 A 
HETATM   20  C2  UNL     1      17.609  -9.314  -2.024  1.00  0.00     0.068 A 
HETATM   21  C15 UNL     1      18.759 -10.074  -1.949  1.00  0.00     0.037 A 
HETATM   22  C14 UNL     1      19.763  -9.947  -2.896  1.00  0.00     0.011 A 
BRANCH  20  23
HETATM   23  O1  UNL     1      16.606  -9.446  -1.073  1.00  0.00    -0.356 OA
HETATM   24  C1  UNL     1      15.361  -8.801  -1.203  1.00  0.00     0.210 C 
ENDBRANCH  20  23
ENDBRANCH  16  17
ENDBRANCH  14  16
ENDBRANCH   1  14
TORSDOF 4
ENDMDL
MODEL 3
REMARK VINA RESULT: -7.485793484      2.127      3.623
REMARK  4 active torsions:
REMARK  status: ('A' for Active; 'I' for Inactive)
REMARK    1  A    between atoms: O1_2  and  C2_3 
REMARK    2  A    between atoms: C5_6  and  C6_7 
REMARK    3  A    between atoms: C6_7  and  N1_8 
REMARK    4  A    between atoms: N1_8  and  C7_10 
ROOT
HETATM    1  C7  UNL     1      22.338 -10.485  -5.654  1.00  0.00     0.116 A 
HETATM    2  N2  UNL     1      23.109 -10.862  -4.619  1.00  0.00    -0.332 N 
ATOM      3  H2  UNL     1      22.658 -11.081  -3.730  1.00  0.00     0.168 HD
HETATM    4  C8  UNL     1      24.452 -10.963  -4.702  1.00  0.00     0.080 A 
HETATM    5  C9  UNL     1      25.166 -11.398  -3.455  1.00  0.00     0.089 C 
HETATM    6  N3  UNL     1      25.092 -10.687  -5.840  1.00  0.00    -0.332 N 
ATOM      7  H3  UNL     1      26.107 -10.768  -5.889  1.00  0.00     0.168 HD
HETATM    8  C10 UNL     1      24.381 -10.298  -6.934  1.00  0.00     0.120 A 
HETATM    9  N4  UNL     1      24.749  -9.960  -8.195  1.00  0.00    -0.351 N 
ATOM     10  H4  UNL     1      25.706  -9.944  -8.549  1.00  0.00     0.166 HD
HETATM   11  C11 UNL     1      23.651  -9.648  -8.905  1.00  0.00     0.091 A 
HETATM   12  C12 UNL     1      22.542  -9.790  -8.070  1.00  0.00     0.036 A 
HETATM   13  C13 UNL     1      23.007 -10.198  -6.839  1.00  0.00     0.053 A 
ENDROOT
BRANCH   1  14
HETATM   14  N1  UNL     1      21.057 -10.385  -5.586  1.00  0.00    -0.371 N 
ATOM     15  H1  UNL     1      20.478 -10.445  -6.423  1.00  0.00     0.161 HD
BRANCH  14  16
HETATM   16  C6  UNL     1      20.467 -10.182  -4.276  1.00  0.00     0.160 C 
BRANCH  16  17
HETATM   17  C5  UNL     1      19.958  -8.819  -4.089  1.00  0.00    -0.040 A 
HETATM   18  C4  UNL     1      19.186  -8.559  -2.976  1.00  0.00     0.011 A 
HETATM   19  C3  UNL     1      18.722  -7.267  -2.829  1.00  0.00     0.037 A 
HETATM   20  C2  UNL     1      18.984  -6.257  -3.712  1.00  0.00     0.068 A 
HETATM   21  C15 UNL     1      19.761  -6.562  -4.812  1.00  0.00     0.037 A 
HETATM   22  C14 UNL     1      20.253  -7.842  -5.007  1.00  0.00     0.011 A 
BRANCH  20  23
HETATM   23  O1  UNL     1      18.494  -4.973  -3.521  1.00  0.00    -0.356 OA
HETATM   24  C1  UNL     1      17.340  -4.716  -2.756  1.00  0.00     0.210 C 
ENDBRANCH  20  23
ENDBRANCH  16  17
ENDBRANCH  14  16
ENDBRANCH   1  14
TORSDOF 4
ENDMDL
MODEL 4
REMARK VINA RESULT: -7.465967789      1.208      2.713
REMARK  4 active torsions:
REMARK  status: ('A' for Active; 'I' for Inactive)
REMARK    1  A    between atoms: O1_2  and  C2_3 
REMARK    2  A    between atoms: C5_6  and  C6_7 
REMARK    3  A    between atoms: C6_7  and  N1_8 
REMARK    4  A    between atoms: N1_8  and  C7_10 
ROOT
HETATM    1  C7  UNL     1      22.245 -10.595  -4.748  1.00  0.00     0.116 A 
HETATM    2  N2  UNL     1      23.289 -10.900  -3.960  1.00  0.00    -0.332 N 
ATOM      3  H2  UNL     1      23.109 -11.151  -2.987  1.00  0.00     0.168 HD
HETATM    4  C8  UNL     1      24.567 -10.890  -4.396  1.00  0.00     0.080 A 
HETATM    5  C9  UNL     1      25.619 -11.257  -3.389  1.00  0.00     0.089 C 
HETATM    6  N3  UNL     1      24.858 -10.568  -5.657  1.00  0.00    -0.332 N 
ATOM      7  H3  UNL     1      25.828 -10.564  -5.974  1.00  0.00     0.168 HD
HETATM    8  C10 UNL     1      23.855 -10.245  -6.519  1.00  0.00     0.120 A 
HETATM    9  N4  UNL     1      23.847  -9.885  -7.827  1.00  0.00    -0.351 N 
ATOM     10  H4  UNL     1      24.672  -9.792  -8.420  1.00  0.00     0.166 HD
HETATM   11  C11 UNL     1      22.578  -9.669  -8.216  1.00  0.00     0.091 A 
HETATM   12  C12 UNL     1      21.745  -9.899  -7.121  1.00  0.00     0.036 A 
HETATM   13  C13 UNL     1      22.551 -10.259  -6.063  1.00  0.00     0.053 A 
ENDROOT
BRANCH   1  14
HETATM   14  N1  UNL     1      21.024 -10.601  -4.344  1.00  0.00    -0.371 N 
ATOM     15  H1  UNL     1      20.253 -10.761  -4.992  1.00  0.00     0.161 HD
BRANCH  14  16
HETATM   16  C6  UNL     1      20.783 -10.372  -2.931  1.00  0.00     0.160 C 
BRANCH  16  17
HETATM   17  C5  UNL     1      19.444  -9.833  -2.665  1.00  0.00    -0.040 A 
HETATM   18  C4  UNL     1      18.912  -8.938  -3.569  1.00  0.00     0.011 A 
HETATM   19  C3  UNL     1      17.651  -8.449  -3.290  1.00  0.00     0.037 A 
HETATM   20  C2  UNL     1      16.923  -8.801  -2.189  1.00  0.00     0.068 A 
HETATM   21  C15 UNL     1      17.494  -9.699  -1.311  1.00  0.00     0.037 A 
HETATM   22  C14 UNL     1      18.756 -10.221  -1.543  1.00  0.00     0.011 A 
BRANCH  20  23
HETATM   23  O1  UNL     1      15.657  -8.281  -1.953  1.00  0.00    -0.356 OA
HETATM   24  C1  UNL     1      14.798  -8.816  -0.973  1.00  0.00     0.210 C 
ENDBRANCH  20  23
ENDBRANCH  16  17
ENDBRANCH  14  16
ENDBRANCH   1  14
TORSDOF 4
ENDMDL
MODEL 5
REMARK VINA RESULT: -7.458093765      1.213      2.869
REMARK  4 active torsions:
REMARK  status: ('A' for Active; 'I' for Inactive)
REMARK    1  A    between atoms: O1_2  and  C2_3 
REMARK    2  A    between atoms: C5_6  and  C6_7 
REMARK    3  A    between atoms: C6_7  and  N1_8 
REMARK    4  A    between atoms: N1_8  and  C7_10 
ROOT
HETATM    1  C7  UNL     1      22.239 -10.595  -4.738  1.00  0.00     0.116 A 
HETATM    2  N2  UNL     1      23.285 -10.889  -3.948  1.00  0.00    -0.332 N 
ATOM      3  H2  UNL     1      23.106 -11.137  -2.975  1.00  0.00     0.168 HD
HETATM    4  C8  UNL     1      24.563 -10.871  -4.383  1.00  0.00     0.080 A 
HETATM    5  C9  UNL     1      25.617 -11.226  -3.373  1.00  0.00     0.089 C 
HETATM    6  N3  UNL     1      24.853 -10.551  -5.645  1.00  0.00    -0.332 N 
ATOM      7  H3  UNL     1      25.823 -10.541  -5.961  1.00  0.00     0.168 HD
HETATM    8  C10 UNL     1      23.848 -10.239  -6.509  1.00  0.00     0.120 A 
HETATM    9  N4  UNL     1      23.839  -9.884  -7.818  1.00  0.00    -0.351 N 
ATOM     10  H4  UNL     1      24.664  -9.788  -8.411  1.00  0.00     0.166 HD
HETATM   11  C11 UNL     1      22.569  -9.680  -8.209  1.00  0.00     0.091 A 
HETATM   12  C12 UNL     1      21.737  -9.912  -7.114  1.00  0.00     0.036 A 
HETATM   13  C13 UNL     1      22.544 -10.262  -6.054  1.00  0.00     0.053 A 
ENDROOT
BRANCH   1  14
HETATM   14  N1  UNL     1      21.018 -10.608  -4.335  1.00  0.00    -0.371 N 
ATOM     15  H1  UNL     1      20.251 -10.808  -4.977  1.00  0.00     0.161 HD
BRANCH  14  16
HETATM   16  C6  UNL     1      20.770 -10.329  -2.932  1.00  0.00     0.160 C 
BRANCH  16  17
HETATM   17  C5  UNL     1      19.426  -9.793  -2.690  1.00  0.00    -0.040 A 
HETATM   18  C4  UNL     1      18.753 -10.208  -1.560  1.00  0.00     0.011 A 
HETATM   19  C3  UNL     1      17.491  -9.684  -1.361  1.00  0.00     0.037 A 
HETATM   20  C2  UNL     1      16.890  -8.797  -2.210  1.00  0.00     0.068 A 
HETATM   21  C15 UNL     1      17.600  -8.410  -3.328  1.00  0.00     0.037 A 
HETATM   22  C14 UNL     1      18.871  -8.903  -3.576  1.00  0.00     0.011 A 
BRANCH  20  23
HETATM   23  O1  UNL     1      15.618  -8.299  -1.966  1.00  0.00    -0.356 OA
HETATM   24  C1  UNL     1      14.806  -8.792  -0.926  1.00  0.00     0.210 C 
ENDBRANCH  20  23
ENDBRANCH  16  17
ENDBRANCH  14  16
ENDBRANCH   1  14
TORSDOF 4
ENDMDL
