MODEL 1
REMARK VINA RESULT: -7.038762783      0.000      0.000
REMARK  12 active torsions:
REMARK  status: ('A' for Active; 'I' for Inactive)
REMARK    1  A    between atoms: C2_2  and  O1_4 
REMARK    2  A    between atoms: C2_2  and  C4_6 
REMARK    3  A    between atoms: C4_6  and  C5_7 
REMARK    4  A    between atoms: C5_7  and  O2_8 
REMARK    5  A    between atoms: C5_7  and  C6_10 
REMARK    6  A    between atoms: C6_10  and  N1_11 
REMARK    7  A    between atoms: C7_12  and  N2_13 
REMARK    8  A    between atoms: C16_23  and  N4_24 
REMARK    9  A    between atoms: C17_28  and  C18_29 
REMARK   10  A    between atoms: C18_29  and  N7_30 
REMARK   11  A    between atoms: C18_29  and  N8_34 
REMARK   12  A    between atoms: C19_40  and  N10_41 
ROOT
HETATM    1  N1  UNL     1      10.684   4.590 104.132  1.00  0.00    -0.293 N 
HETATM    2  C7  UNL     1       9.825   5.291 104.961  1.00  0.00     0.132 A 
HETATM    3  C13 UNL     1       9.687   4.878 106.278  1.00  0.00     0.091 A 
HETATM    4  C14 UNL     1       8.799   5.560 107.203  1.00  0.00     0.103 C 
HETATM    5  N3  UNL     1       8.084   6.086 107.970  1.00  0.00    -0.191 NA
HETATM    6  C15 UNL     1      10.359   3.807 106.796  1.00  0.00     0.063 A 
HETATM    7  C16 UNL     1      11.200   3.123 105.959  1.00  0.00     0.118 A 
HETATM    8  C19 UNL     1      11.347   3.527 104.636  1.00  0.00     0.137 A 
ENDROOT
BRANCH   2   9
HETATM    9  N2  UNL     1       8.959   6.316 104.554  1.00  0.00    -0.366 N 
HETATM   10  C8  UNL     1       7.683   5.862 103.982  1.00  0.00     0.124 C 
HETATM   11  C9  UNL     1       6.518   6.548 104.649  1.00  0.00     0.020 C 
HETATM   12  C10 UNL     1       6.806   7.998 104.952  1.00  0.00     0.003 C 
HETATM   13  C11 UNL     1       7.998   8.465 104.155  1.00  0.00     0.020 C 
HETATM   14  C12 UNL     1       9.215   7.705 104.722  1.00  0.00     0.124 C 
ENDBRANCH   2   9
BRANCH   1  15
HETATM   15  C6  UNL     1      10.876   5.063 102.810  1.00  0.00     0.105 C 
BRANCH  15  16
HETATM   16  C5  UNL     1      12.070   5.818 102.389  1.00  0.00     0.160 C 
BRANCH  16  17
HETATM   17  C4  UNL     1      12.095   7.265 102.116  1.00  0.00     0.074 C 
BRANCH  17  18
HETATM   18  C2  UNL     1      13.343   8.025 102.276  1.00  0.00     0.053 C 
HETATM   19  C1  UNL     1      13.597   8.970 103.352  1.00  0.00     0.045 C 
HETATM   20  C3  UNL     1      13.545   8.800 100.950  1.00  0.00     0.045 C 
BRANCH  18  21
HETATM   21  O1  UNL     1      14.448   7.099 102.248  1.00  0.00    -0.391 OA
ATOM     22  H1  UNL     1      14.602   6.872 101.339  1.00  0.00     0.210 HD
ENDBRANCH  18  21
ENDBRANCH  17  18
ENDBRANCH  16  17
BRANCH  16  23
HETATM   23  O2  UNL     1      12.075   5.369 100.928  1.00  0.00    -0.390 OA
ATOM     24  H2  UNL     1      11.317   4.799 100.989  1.00  0.00     0.210 HD
ENDBRANCH  16  23
ENDBRANCH  15  16
ENDBRANCH   1  15
BRANCH   7  25
HETATM   25  N4  UNL     1      11.945   1.988 106.408  1.00  0.00    -0.175 N 
HETATM   26  N5  UNL     1      13.088   1.627 105.848  1.00  0.00     0.003 NA
HETATM   27  N6  UNL     1      13.551   0.550 106.462  1.00  0.00    -0.267 N 
HETATM   28  C17 UNL     1      12.692   0.209 107.437  1.00  0.00     0.169 A 
ATOM     29  H6  UNL     1      14.416   0.060 106.233  1.00  0.00     0.185 HD
HETATM   30  N9  UNL     1      11.708   1.131 107.368  1.00  0.00    -0.265 N 
ATOM     31  H9  UNL     1      10.892   1.156 107.980  1.00  0.00     0.190 HD
BRANCH  28  32
HETATM   32  C18 UNL     1      12.768  -0.927 108.404  1.00  0.00     0.447 C 
BRANCH  32  33
HETATM   33  N7  UNL     1      12.784  -2.200 107.734  1.00  0.00    -0.043 N 
ATOM     34  H73 UNL     1      12.765  -2.086 106.720  1.00  0.00     0.277 HD
ATOM     35  H72 UNL     1      13.693  -2.656 107.825  1.00  0.00     0.277 HD
ATOM     36  H71 UNL     1      12.030  -2.807 108.054  1.00  0.00     0.277 HD
ENDBRANCH  32  33
BRANCH  32  37
HETATM   37  N8  UNL     1      11.690  -0.869 109.353  1.00  0.00    -0.043 N 
ATOM     38  H83 UNL     1      11.637   0.042 109.807  1.00  0.00     0.277 HD
ATOM     39  H82 UNL     1      10.781  -0.865 108.891  1.00  0.00     0.277 HD
ATOM     40  H81 UNL     1      11.762  -1.624 110.035  1.00  0.00     0.277 HD
ENDBRANCH  32  37
ENDBRANCH  28  32
ENDBRANCH   7  25
BRANCH   8  41
HETATM   41  N10 UNL     1      12.102   2.784 103.925  1.00  0.00    -0.383 N 
ATOM     42 2H10 UNL     1      12.836   2.296 104.440  1.00  0.00     0.157 HD
ATOM     43 1H10 UNL     1      11.956   2.645 102.925  1.00  0.00     0.157 HD
ENDBRANCH   8  41
TORSDOF 12
ENDMDL
MODEL 2
REMARK VINA RESULT: -6.940243257      0.427      1.020
REMARK  12 active torsions:
REMARK  status: ('A' for Active; 'I' for Inactive)
REMARK    1  A    between atoms: C2_2  and  O1_4 
REMARK    2  A    between atoms: C2_2  and  C4_6 
REMARK    3  A    between atoms: C4_6  and  C5_7 
REMARK    4  A    between atoms: C5_7  and  O2_8 
REMARK    5  A    between atoms: C5_7  and  C6_10 
REMARK    6  A    between atoms: C6_10  and  N1_11 
REMARK    7  A    between atoms: C7_12  and  N2_13 
REMARK    8  A    between atoms: C16_23  and  N4_24 
REMARK    9  A    between atoms: C17_28  and  C18_29 
REMARK   10  A    between atoms: C18_29  and  N7_30 
REMARK   11  A    between atoms: C18_29  and  N8_34 
REMARK   12  A    between atoms: C19_40  and  N10_41 
ROOT
HETATM    1  N1  UNL     1      10.496   4.590 104.269  1.00  0.00    -0.293 N 
HETATM    2  C7  UNL     1       9.587   5.216 105.105  1.00  0.00     0.132 A 
HETATM    3  C13 UNL     1       9.443   4.748 106.402  1.00  0.00     0.091 A 
HETATM    4  C14 UNL     1       8.503   5.351 107.331  1.00  0.00     0.103 C 
HETATM    5  N3  UNL     1       7.748   5.811 108.101  1.00  0.00    -0.191 NA
HETATM    6  C15 UNL     1      10.157   3.693 106.896  1.00  0.00     0.063 A 
HETATM    7  C16 UNL     1      11.048   3.083 106.053  1.00  0.00     0.118 A 
HETATM    8  C19 UNL     1      11.202   3.543 104.749  1.00  0.00     0.137 A 
ENDROOT
BRANCH   2   9
HETATM    9  N2  UNL     1       8.679   6.212 104.716  1.00  0.00    -0.366 N 
HETATM   10  C8  UNL     1       9.138   7.593 104.935  1.00  0.00     0.124 C 
HETATM   11  C9  UNL     1       8.990   8.416 103.681  1.00  0.00     0.020 C 
HETATM   12  C10 UNL     1       7.725   8.086 102.926  1.00  0.00     0.003 C 
HETATM   13  C11 UNL     1       6.771   7.335 103.821  1.00  0.00     0.020 C 
HETATM   14  C12 UNL     1       7.428   5.965 104.089  1.00  0.00     0.124 C 
ENDBRANCH   2   9
BRANCH   1  15
HETATM   15  C6  UNL     1      10.691   5.122 102.970  1.00  0.00     0.105 C 
BRANCH  15  16
HETATM   16  C5  UNL     1      11.942   5.776 102.546  1.00  0.00     0.160 C 
BRANCH  16  17
HETATM   17  C4  UNL     1      12.056   7.188 102.145  1.00  0.00     0.074 C 
BRANCH  17  18
HETATM   18  C2  UNL     1      13.320   7.912 102.344  1.00  0.00     0.053 C 
HETATM   19  C1  UNL     1      13.590   8.801 103.463  1.00  0.00     0.045 C 
HETATM   20  C3  UNL     1      13.545   8.743 101.056  1.00  0.00     0.045 C 
BRANCH  18  21
HETATM   21  O1  UNL     1      14.404   6.965 102.278  1.00  0.00    -0.391 OA
ATOM     22  H1  UNL     1      14.629   6.857 101.362  1.00  0.00     0.210 HD
ENDBRANCH  18  21
ENDBRANCH  17  18
ENDBRANCH  16  17
BRANCH  16  23
HETATM   23  O2  UNL     1      11.993   5.193 101.133  1.00  0.00    -0.390 OA
ATOM     24  H2  UNL     1      12.591   4.483 101.333  1.00  0.00     0.210 HD
ENDBRANCH  16  23
ENDBRANCH  15  16
ENDBRANCH   1  15
BRANCH   7  25
HETATM   25  N4  UNL     1      11.840   1.971 106.476  1.00  0.00    -0.175 N 
HETATM   26  N5  UNL     1      12.983   1.652 105.890  1.00  0.00     0.003 NA
HETATM   27  N6  UNL     1      13.494   0.586 106.485  1.00  0.00    -0.267 N 
HETATM   28  C17 UNL     1      12.667   0.209 107.475  1.00  0.00     0.169 A 
ATOM     29  H6  UNL     1      14.370   0.128 106.234  1.00  0.00     0.185 HD
HETATM   30  N9  UNL     1      11.652   1.098 107.434  1.00  0.00    -0.265 N 
ATOM     31  H9  UNL     1      10.848   1.091 108.063  1.00  0.00     0.190 HD
BRANCH  28  32
HETATM   32  C18 UNL     1      12.801  -0.931 108.430  1.00  0.00     0.447 C 
BRANCH  32  33
HETATM   33  N7  UNL     1      12.838  -2.198 107.750  1.00  0.00    -0.043 N 
ATOM     34  H73 UNL     1      11.899  -2.528 107.528  1.00  0.00     0.277 HD
ATOM     35  H72 UNL     1      13.200  -2.099 106.801  1.00  0.00     0.277 HD
ATOM     36  H71 UNL     1      13.363  -2.896 108.277  1.00  0.00     0.277 HD
ENDBRANCH  32  33
BRANCH  32  37
HETATM   37  N8  UNL     1      11.747  -0.912 109.407  1.00  0.00    -0.043 N 
ATOM     38  H83 UNL     1      11.574   0.030 109.755  1.00  0.00     0.277 HD
ATOM     39  H82 UNL     1      10.837  -1.090 108.982  1.00  0.00     0.277 HD
ATOM     40  H81 UNL     1      11.940  -1.564 110.167  1.00  0.00     0.277 HD
ENDBRANCH  32  37
ENDBRANCH  28  32
ENDBRANCH   7  25
BRANCH   8  41
HETATM   41  N10 UNL     1      12.008   2.866 104.029  1.00  0.00    -0.383 N 
ATOM     42 2H10 UNL     1      12.626   3.419 103.436  1.00  0.00     0.157 HD
ATOM     43 1H10 UNL     1      12.068   1.848 104.076  1.00  0.00     0.157 HD
ENDBRANCH   8  41
TORSDOF 12
ENDMDL
MODEL 3
REMARK VINA RESULT: -6.700853685      1.825      2.981
REMARK  12 active torsions:
REMARK  status: ('A' for Active; 'I' for Inactive)
REMARK    1  A    between atoms: C2_2  and  O1_4 
REMARK    2  A    between atoms: C2_2  and  C4_6 
REMARK    3  A    between atoms: C4_6  and  C5_7 
REMARK    4  A    between atoms: C5_7  and  O2_8 
REMARK    5  A    between atoms: C5_7  and  C6_10 
REMARK    6  A    between atoms: C6_10  and  N1_11 
REMARK    7  A    between atoms: C7_12  and  N2_13 
REMARK    8  A    between atoms: C16_23  and  N4_24 
REMARK    9  A    between atoms: C17_28  and  C18_29 
REMARK   10  A    between atoms: C18_29  and  N7_30 
REMARK   11  A    between atoms: C18_29  and  N8_34 
REMARK   12  A    between atoms: C19_40  and  N10_41 
ROOT
HETATM    1  N1  UNL     1      10.421   4.924 104.645  1.00  0.00    -0.293 N 
HETATM    2  C7  UNL     1       9.420   5.397 105.476  1.00  0.00     0.132 A 
HETATM    3  C13 UNL     1       9.198   4.753 106.684  1.00  0.00     0.091 A 
HETATM    4  C14 UNL     1       8.161   5.189 107.602  1.00  0.00     0.103 C 
HETATM    5  N3  UNL     1       7.326   5.513 108.360  1.00  0.00    -0.191 NA
HETATM    6  C15 UNL     1       9.921   3.668 107.092  1.00  0.00     0.063 A 
HETATM    7  C16 UNL     1      10.903   3.211 106.254  1.00  0.00     0.118 A 
HETATM    8  C19 UNL     1      11.136   3.849 105.040  1.00  0.00     0.137 A 
ENDROOT
BRANCH   2   9
HETATM    9  N2  UNL     1       8.499   6.403 105.148  1.00  0.00    -0.366 N 
HETATM   10  C8  UNL     1       9.006   7.778 105.274  1.00  0.00     0.124 C 
HETATM   11  C9  UNL     1       8.750   8.565 104.014  1.00  0.00     0.020 C 
HETATM   12  C10 UNL     1       7.409   8.242 103.401  1.00  0.00     0.003 C 
HETATM   13  C11 UNL     1       6.535   7.543 104.411  1.00  0.00     0.020 C 
HETATM   14  C12 UNL     1       7.186   6.166 104.657  1.00  0.00     0.124 C 
ENDBRANCH   2   9
BRANCH   1  15
HETATM   15  C6  UNL     1      10.691   5.633 103.448  1.00  0.00     0.105 C 
BRANCH  15  16
HETATM   16  C5  UNL     1      10.051   5.315 102.159  1.00  0.00     0.160 C 
BRANCH  16  17
HETATM   17  C4  UNL     1       8.711   4.723 102.011  1.00  0.00     0.074 C 
BRANCH  17  18
HETATM   18  C2  UNL     1       7.909   5.005 100.812  1.00  0.00     0.053 C 
HETATM   19  C1  UNL     1       8.222   6.038  99.837  1.00  0.00     0.045 C 
HETATM   20  C3  UNL     1       6.473   5.296 101.317  1.00  0.00     0.045 C 
BRANCH  18  21
HETATM   21  O1  UNL     1       7.723   3.774 100.087  1.00  0.00    -0.391 OA
ATOM     22  H1  UNL     1       7.124   3.954  99.373  1.00  0.00     0.210 HD
ENDBRANCH  18  21
ENDBRANCH  17  18
ENDBRANCH  16  17
BRANCH  16  23
HETATM   23  O2  UNL     1      10.836   4.036 101.866  1.00  0.00    -0.390 OA
ATOM     24  H2  UNL     1      10.080   3.476 101.732  1.00  0.00     0.210 HD
ENDBRANCH  16  23
ENDBRANCH  15  16
ENDBRANCH   1  15
BRANCH   7  25
HETATM   25  N4  UNL     1      11.712   2.081 106.592  1.00  0.00    -0.175 N 
HETATM   26  N5  UNL     1      12.811   1.772 105.922  1.00  0.00     0.003 NA
HETATM   27  N6  UNL     1      13.351   0.686 106.451  1.00  0.00    -0.267 N 
HETATM   28  C17 UNL     1      12.589   0.286 107.483  1.00  0.00     0.169 A 
ATOM     29  H6  UNL     1      14.204   0.229 106.130  1.00  0.00     0.185 HD
HETATM   30  N9  UNL     1      11.580   1.183 107.535  1.00  0.00    -0.265 N 
ATOM     31  H9  UNL     1      10.820   1.162 108.215  1.00  0.00     0.190 HD
BRANCH  28  32
HETATM   32  C18 UNL     1      12.775  -0.882 108.394  1.00  0.00     0.447 C 
BRANCH  32  33
HETATM   33  N7  UNL     1      12.803  -2.126 107.671  1.00  0.00    -0.043 N 
ATOM     34  H73 UNL     1      11.919  -2.294 107.189  1.00  0.00     0.277 HD
ATOM     35  H72 UNL     1      13.419  -2.070 106.860  1.00  0.00     0.277 HD
ATOM     36  H71 UNL     1      13.052  -2.909 108.275  1.00  0.00     0.277 HD
ENDBRANCH  32  33
BRANCH  32  37
HETATM   37  N8  UNL     1      11.761  -0.911 109.412  1.00  0.00    -0.043 N 
ATOM     38  H83 UNL     1      11.415  -1.856 109.571  1.00  0.00     0.277 HD
ATOM     39  H82 UNL     1      12.151  -0.730 110.337  1.00  0.00     0.277 HD
ATOM     40  H81 UNL     1      11.003  -0.266 109.191  1.00  0.00     0.277 HD
ENDBRANCH  32  37
ENDBRANCH  28  32
ENDBRANCH   7  25
BRANCH   8  41
HETATM   41  N10 UNL     1      12.027   3.305 104.307  1.00  0.00    -0.383 N 
ATOM     42 2H10 UNL     1      12.144   3.727 103.385  1.00  0.00     0.157 HD
ATOM     43 1H10 UNL     1      12.617   2.538 104.631  1.00  0.00     0.157 HD
ENDBRANCH   8  41
TORSDOF 12
ENDMDL
MODEL 4
REMARK VINA RESULT: -6.681709367      4.498      6.860
REMARK  12 active torsions:
REMARK  status: ('A' for Active; 'I' for Inactive)
REMARK    1  A    between atoms: C2_2  and  O1_4 
REMARK    2  A    between atoms: C2_2  and  C4_6 
REMARK    3  A    between atoms: C4_6  and  C5_7 
REMARK    4  A    between atoms: C5_7  and  O2_8 
REMARK    5  A    between atoms: C5_7  and  C6_10 
REMARK    6  A    between atoms: C6_10  and  N1_11 
REMARK    7  A    between atoms: C7_12  and  N2_13 
REMARK    8  A    between atoms: C16_23  and  N4_24 
REMARK    9  A    between atoms: C17_28  and  C18_29 
REMARK   10  A    between atoms: C18_29  and  N7_30 
REMARK   11  A    between atoms: C18_29  and  N8_34 
REMARK   12  A    between atoms: C19_40  and  N10_41 
ROOT
HETATM    1  N1  UNL     1       7.480   3.530 106.547  1.00  0.00    -0.293 N 
HETATM    2  C7  UNL     1       7.546   4.416 107.608  1.00  0.00     0.132 A 
HETATM    3  C13 UNL     1       8.792   4.836 108.049  1.00  0.00     0.091 A 
HETATM    4  C14 UNL     1       8.937   5.757 109.163  1.00  0.00     0.103 C 
HETATM    5  N3  UNL     1       9.086   6.493 110.064  1.00  0.00    -0.191 NA
HETATM    6  C15 UNL     1       9.962   4.414 107.485  1.00  0.00     0.063 A 
HETATM    7  C16 UNL     1       9.877   3.534 106.438  1.00  0.00     0.118 A 
HETATM    8  C19 UNL     1       8.634   3.105 105.987  1.00  0.00     0.137 A 
ENDROOT
BRANCH   2   9
HETATM    9  N2  UNL     1       6.456   4.832 108.387  1.00  0.00    -0.366 N 
HETATM   10  C8  UNL     1       5.685   5.954 107.829  1.00  0.00     0.124 C 
HETATM   11  C9  UNL     1       4.213   5.631 107.792  1.00  0.00     0.020 C 
HETATM   12  C10 UNL     1       3.766   4.859 109.009  1.00  0.00     0.003 C 
HETATM   13  C11 UNL     1       4.800   4.974 110.101  1.00  0.00     0.020 C 
HETATM   14  C12 UNL     1       6.041   4.209 109.595  1.00  0.00     0.124 C 
ENDBRANCH   2   9
BRANCH   1  15
HETATM   15  C6  UNL     1       6.203   3.165 106.054  1.00  0.00     0.105 C 
BRANCH  15  16
HETATM   16  C5  UNL     1       5.427   2.031 106.585  1.00  0.00     0.160 C 
BRANCH  16  17
HETATM   17  C4  UNL     1       5.720   1.331 107.848  1.00  0.00     0.074 C 
BRANCH  17  18
HETATM   18  C2  UNL     1       4.701   0.476 108.471  1.00  0.00     0.053 C 
HETATM   19  C1  UNL     1       3.443   0.961 109.017  1.00  0.00     0.045 C 
HETATM   20  C3  UNL     1       5.418  -0.279 109.618  1.00  0.00     0.045 C 
BRANCH  18  21
HETATM   21  O1  UNL     1       4.387  -0.598 107.562  1.00  0.00    -0.391 OA
ATOM     22  H1  UNL     1       4.033  -1.311 108.079  1.00  0.00     0.210 HD
ENDBRANCH  18  21
ENDBRANCH  17  18
ENDBRANCH  16  17
BRANCH  16  23
HETATM   23  O2  UNL     1       5.998   0.957 105.659  1.00  0.00    -0.390 OA
ATOM     24  H2  UNL     1       6.558   1.537 105.156  1.00  0.00     0.210 HD
ENDBRANCH  16  23
ENDBRANCH  15  16
ENDBRANCH   1  15
BRANCH   7  25
HETATM   25  N4  UNL     1      11.046   3.033 105.783  1.00  0.00    -0.175 N 
HETATM   26  N5  UNL     1      11.319   3.309 104.518  1.00  0.00     0.003 NA
HETATM   27  N6  UNL     1      12.454   2.716 104.180  1.00  0.00    -0.267 N 
HETATM   28  C17 UNL     1      12.922   2.046 105.246  1.00  0.00     0.169 A 
ATOM     29  H6  UNL     1      12.898   2.761 103.263  1.00  0.00     0.185 HD
HETATM   30  N9  UNL     1      12.015   2.271 106.221  1.00  0.00    -0.265 N 
ATOM     31  H9  UNL     1      12.078   1.898 107.169  1.00  0.00     0.190 HD
BRANCH  28  32
HETATM   32  C18 UNL     1      14.163   1.223 105.370  1.00  0.00     0.447 C 
BRANCH  32  33
HETATM   33  N7  UNL     1      15.348   2.038 105.356  1.00  0.00    -0.043 N 
ATOM     34  H73 UNL     1      15.670   2.209 104.404  1.00  0.00     0.277 HD
ATOM     35  H72 UNL     1      15.141   2.999 105.629  1.00  0.00     0.277 HD
ATOM     36  H71 UNL     1      16.089   1.639 105.933  1.00  0.00     0.277 HD
ENDBRANCH  32  33
BRANCH  32  37
HETATM   37  N8  UNL     1      14.224   0.223 104.340  1.00  0.00    -0.043 N 
ATOM     38  H83 UNL     1      13.700  -0.613 104.597  1.00  0.00     0.277 HD
ATOM     39  H82 UNL     1      13.686   0.496 103.518  1.00  0.00     0.277 HD
ATOM     40  H81 UNL     1      15.190   0.002 104.101  1.00  0.00     0.277 HD
ENDBRANCH  32  37
ENDBRANCH  28  32
ENDBRANCH   7  25
BRANCH   8  41
HETATM   41  N10 UNL     1       8.668   2.237 105.052  1.00  0.00    -0.383 N 
ATOM     42 2H10 UNL     1       7.781   2.084 104.572  1.00  0.00     0.157 HD
ATOM     43 1H10 UNL     1       9.527   1.766 104.768  1.00  0.00     0.157 HD
ENDBRANCH   8  41
TORSDOF 12
ENDMDL
MODEL 5
REMARK VINA RESULT: -6.591279259      4.949      7.934
REMARK  12 active torsions:
REMARK  status: ('A' for Active; 'I' for Inactive)
REMARK    1  A    between atoms: C2_2  and  O1_4 
REMARK    2  A    between atoms: C2_2  and  C4_6 
REMARK    3  A    between atoms: C4_6  and  C5_7 
REMARK    4  A    between atoms: C5_7  and  O2_8 
REMARK    5  A    between atoms: C5_7  and  C6_10 
REMARK    6  A    between atoms: C6_10  and  N1_11 
REMARK    7  A    between atoms: C7_12  and  N2_13 
REMARK    8  A    between atoms: C16_23  and  N4_24 
REMARK    9  A    between atoms: C17_28  and  C18_29 
REMARK   10  A    between atoms: C18_29  and  N7_30 
REMARK   11  A    between atoms: C18_29  and  N8_34 
REMARK   12  A    between atoms: C19_40  and  N10_41 
ROOT
HETATM    1  N1  UNL     1      10.101   1.660 109.307  1.00  0.00    -0.293 N 
HETATM    2  C7  UNL     1       9.621   2.846 108.779  1.00  0.00     0.132 A 
HETATM    3  C13 UNL     1      10.141   3.296 107.574  1.00  0.00     0.091 A 
HETATM    4  C14 UNL     1       9.691   4.536 106.966  1.00  0.00     0.103 C 
HETATM    5  N3  UNL     1       9.355   5.537 106.454  1.00  0.00    -0.191 NA
HETATM    6  C15 UNL     1      11.107   2.623 106.883  1.00  0.00     0.063 A 
HETATM    7  C16 UNL     1      11.573   1.453 107.423  1.00  0.00     0.118 A 
HETATM    8  C19 UNL     1      11.060   0.991 108.631  1.00  0.00     0.137 A 
ENDROOT
BRANCH   2   9
HETATM    9  N2  UNL     1       8.741   3.726 109.426  1.00  0.00    -0.366 N 
HETATM   10  C8  UNL     1       9.361   4.592 110.440  1.00  0.00     0.124 C 
HETATM   11  C9  UNL     1       8.999   6.037 110.209  1.00  0.00     0.020 C 
HETATM   12  C10 UNL     1       7.568   6.203 109.758  1.00  0.00     0.003 C 
HETATM   13  C11 UNL     1       6.786   4.946 110.050  1.00  0.00     0.020 C 
HETATM   14  C12 UNL     1       7.360   3.861 109.116  1.00  0.00     0.124 C 
ENDBRANCH   2   9
BRANCH   1  15
HETATM   15  C6  UNL     1       9.512   1.168 110.498  1.00  0.00     0.105 C 
BRANCH  15  16
HETATM   16  C5  UNL     1       8.324   0.296 110.512  1.00  0.00     0.160 C 
BRANCH  16  17
HETATM   17  C4  UNL     1       7.392   0.165 111.644  1.00  0.00     0.074 C 
BRANCH  17  18
HETATM   18  C2  UNL     1       6.419  -0.936 111.675  1.00  0.00     0.053 C 
HETATM   19  C1  UNL     1       5.701  -1.431 110.512  1.00  0.00     0.045 C 
HETATM   20  C3  UNL     1       5.346  -0.529 112.716  1.00  0.00     0.045 C 
BRANCH  18  21
HETATM   21  O1  UNL     1       7.035  -2.071 112.315  1.00  0.00    -0.391 OA
ATOM     22  H1  UNL     1       7.912  -1.811 112.568  1.00  0.00     0.210 HD
ENDBRANCH  18  21
ENDBRANCH  17  18
ENDBRANCH  16  17
BRANCH  16  23
HETATM   23  O2  UNL     1       9.059  -1.025 110.743  1.00  0.00    -0.390 OA
ATOM     24  H2  UNL     1       8.378  -1.588 110.393  1.00  0.00     0.210 HD
ENDBRANCH  16  23
ENDBRANCH  15  16
ENDBRANCH   1  15
BRANCH   7  25
HETATM   25  N4  UNL     1      12.585   0.678 106.775  1.00  0.00    -0.175 N 
HETATM   26  N5  UNL     1      12.829  -0.581 107.102  1.00  0.00     0.003 NA
HETATM   27  N6  UNL     1      13.811  -1.043 106.345  1.00  0.00    -0.267 N 
HETATM   28  C17 UNL     1      14.209  -0.066 105.513  1.00  0.00     0.169 A 
ATOM     29  H6  UNL     1      14.200  -1.985 106.386  1.00  0.00     0.185 HD
HETATM   30  N9  UNL     1      13.419   0.987 105.815  1.00  0.00    -0.265 N 
ATOM     31  H9  UNL     1      13.466   1.898 105.358  1.00  0.00     0.190 HD
BRANCH  28  32
HETATM   32  C18 UNL     1      15.280  -0.093 104.473  1.00  0.00     0.447 C 
BRANCH  32  33
HETATM   33  N7  UNL     1      15.730   1.230 104.134  1.00  0.00    -0.043 N 
ATOM     34  H73 UNL     1      15.137   1.652 103.419  1.00  0.00     0.277 HD
ATOM     35  H72 UNL     1      15.556   1.888 104.894  1.00  0.00     0.277 HD
ATOM     36  H71 UNL     1      16.711   1.237 103.854  1.00  0.00     0.277 HD
ENDBRANCH  32  33
BRANCH  32  37
HETATM   37  N8  UNL     1      14.841  -0.795 103.298  1.00  0.00    -0.043 N 
ATOM     38  H83 UNL     1      14.995  -0.246 102.453  1.00  0.00     0.277 HD
ATOM     39  H82 UNL     1      15.449  -1.585 103.083  1.00  0.00     0.277 HD
ATOM     40  H81 UNL     1      13.866  -1.082 103.386  1.00  0.00     0.277 HD
ENDBRANCH  32  37
ENDBRANCH  28  32
ENDBRANCH   7  25
BRANCH   8  41
HETATM   41  N10 UNL     1      11.607  -0.071 109.078  1.00  0.00    -0.383 N 
ATOM     42 2H10 UNL     1      11.145  -0.940 108.811  1.00  0.00     0.157 HD
ATOM     43 1H10 UNL     1      12.471  -0.061 109.621  1.00  0.00     0.157 HD
ENDBRANCH   8  41
TORSDOF 12
ENDMDL
