MODEL 1
REMARK VINA RESULT: -5.650708387      0.000      0.000
REMARK  1 active torsions:
REMARK  status: ('A' for Active; 'I' for Inactive)
REMARK    1  A    between atoms: C9_11  and  O2_12 
ROOT
HETATM    1  C1  UNL     1      15.619   8.467  12.090  1.00  0.00     0.154 C 
HETATM    2  N1  UNL     1      16.138   7.674  13.132  1.00  0.00    -0.375 N 
HETATM    3  C2  UNL     1      17.305   6.948  12.909  1.00  0.00     0.065 C 
HETATM    4  C3  UNL     1      17.319   5.525  13.345  1.00  0.00     0.080 C 
HETATM    5  C4  UNL     1      16.608   5.272  14.634  1.00  0.00     0.165 C 
HETATM    6  O1  UNL     1      16.304   3.907  14.762  1.00  0.00    -0.382 OA
HETATM    7  C5  UNL     1      16.349   3.507  16.075  1.00  0.00     0.168 C 
HETATM    8  C6  UNL     1      15.048   3.513  16.787  1.00  0.00     0.026 C 
HETATM    9  C7  UNL     1      14.170   4.676  16.527  1.00  0.00     0.006 C 
HETATM   10  C8  UNL     1      14.872   5.946  16.184  1.00  0.00     0.046 C 
HETATM   11  C9  UNL     1      15.273   5.990  14.706  1.00  0.00     0.116 C 
HETATM   12  C10 UNL     1      15.331   7.399  14.233  1.00  0.00     0.102 C 
ENDROOT
BRANCH  11  13
HETATM   13  O2  UNL     1      14.307   5.281  13.984  1.00  0.00    -0.382 OA
ATOM     14  H2  UNL     1      14.116   4.459  14.418  1.00  0.00     0.211 HD
ENDBRANCH  11  13
TORSDOF 1
ENDMDL
MODEL 2
REMARK VINA RESULT: -5.650422370      2.964      4.176
REMARK  1 active torsions:
REMARK  status: ('A' for Active; 'I' for Inactive)
REMARK    1  A    between atoms: C9_11  and  O2_12 
ROOT
HETATM    1  C1  UNL     1      14.901   6.564  14.296  1.00  0.00     0.154 C 
HETATM    2  N1  UNL     1      16.022   5.795  13.925  1.00  0.00    -0.375 N 
HETATM    3  C2  UNL     1      17.167   6.446  13.472  1.00  0.00     0.065 C 
HETATM    4  C3  UNL     1      17.814   5.913  12.242  1.00  0.00     0.080 C 
HETATM    5  C4  UNL     1      17.805   4.424  12.140  1.00  0.00     0.165 C 
HETATM    6  O1  UNL     1      18.037   4.025  10.814  1.00  0.00    -0.382 OA
HETATM    7  C5  UNL     1      18.734   2.842  10.764  1.00  0.00     0.168 C 
HETATM    8  C6  UNL     1      17.904   1.621  10.624  1.00  0.00     0.026 C 
HETATM    9  C7  UNL     1      16.671   1.576  11.442  1.00  0.00     0.006 C 
HETATM   10  C8  UNL     1      16.724   2.335  12.724  1.00  0.00     0.046 C 
HETATM   11  C9  UNL     1      16.459   3.829  12.510  1.00  0.00     0.116 C 
HETATM   12  C10 UNL     1      15.863   4.424  13.735  1.00  0.00     0.102 C 
ENDROOT
BRANCH  11  13
HETATM   13  O2  UNL     1      15.570   3.950  11.436  1.00  0.00    -0.382 OA
ATOM     14  H2  UNL     1      15.185   3.105  11.235  1.00  0.00     0.211 HD
ENDBRANCH  11  13
TORSDOF 1
ENDMDL
MODEL 3
REMARK VINA RESULT: -5.520722488      3.091      4.173
REMARK  1 active torsions:
REMARK  status: ('A' for Active; 'I' for Inactive)
REMARK    1  A    between atoms: C9_11  and  O2_12 
ROOT
HETATM    1  C1  UNL     1      15.940   7.806  12.578  1.00  0.00     0.154 C 
HETATM    2  N1  UNL     1      16.811   6.702  12.659  1.00  0.00    -0.375 N 
HETATM    3  C2  UNL     1      18.159   6.881  12.355  1.00  0.00     0.065 C 
HETATM    4  C3  UNL     1      18.796   5.878  11.460  1.00  0.00     0.080 C 
HETATM    5  C4  UNL     1      18.342   4.474  11.691  1.00  0.00     0.165 C 
HETATM    6  O1  UNL     1      18.648   3.674  10.578  1.00  0.00    -0.382 OA
HETATM    7  C5  UNL     1      18.943   2.387  10.955  1.00  0.00     0.168 C 
HETATM    8  C6  UNL     1      17.809   1.432  10.900  1.00  0.00     0.026 C 
HETATM    9  C7  UNL     1      16.509   1.938  11.395  1.00  0.00     0.006 C 
HETATM   10  C8  UNL     1      16.589   2.986  12.453  1.00  0.00     0.046 C 
HETATM   11  C9  UNL     1      16.838   4.375  11.857  1.00  0.00     0.116 C 
HETATM   12  C10 UNL     1      16.268   5.422  12.745  1.00  0.00     0.102 C 
ENDROOT
BRANCH  11  13
HETATM   13  O2  UNL     1      16.213   4.416  10.606  1.00  0.00    -0.382 OA
ATOM     14  H2  UNL     1      15.681   3.639  10.482  1.00  0.00     0.211 HD
ENDBRANCH  11  13
TORSDOF 1
ENDMDL
MODEL 4
REMARK VINA RESULT: -5.381596552      3.830      4.585
REMARK  1 active torsions:
REMARK  status: ('A' for Active; 'I' for Inactive)
REMARK    1  A    between atoms: C9_11  and  O2_12 
ROOT
HETATM    1  C1  UNL     1      18.966   8.096  11.521  1.00  0.00     0.154 C 
HETATM    2  N1  UNL     1      19.061   6.726  11.839  1.00  0.00    -0.375 N 
HETATM    3  C2  UNL     1      20.249   6.052  11.569  1.00  0.00     0.065 C 
HETATM    4  C3  UNL     1      20.147   4.728  10.898  1.00  0.00     0.080 C 
HETATM    5  C4  UNL     1      18.994   3.897  11.356  1.00  0.00     0.165 C 
HETATM    6  O1  UNL     1      18.720   2.887  10.419  1.00  0.00    -0.382 OA
HETATM    7  C5  UNL     1      18.257   1.749  11.034  1.00  0.00     0.168 C 
HETATM    8  C6  UNL     1      16.781   1.617  11.098  1.00  0.00     0.026 C 
HETATM    9  C7  UNL     1      16.031   2.848  11.435  1.00  0.00     0.006 C 
HETATM   10  C8  UNL     1      16.759   3.828  12.290  1.00  0.00     0.046 C 
HETATM   11  C9  UNL     1      17.712   4.701  11.468  1.00  0.00     0.116 C 
HETATM   12  C10 UNL     1      17.895   6.021  12.127  1.00  0.00     0.102 C 
ENDROOT
BRANCH  11  13
HETATM   13  O2  UNL     1      17.141   4.872  10.202  1.00  0.00    -0.382 OA
ATOM     14  H2  UNL     1      16.927   5.787  10.063  1.00  0.00     0.211 HD
ENDBRANCH  11  13
TORSDOF 1
ENDMDL
MODEL 5
REMARK VINA RESULT: -5.354979952      2.255      3.586
REMARK  1 active torsions:
REMARK  status: ('A' for Active; 'I' for Inactive)
REMARK    1  A    between atoms: C9_11  and  O2_12 
ROOT
HETATM    1  C1  UNL     1      17.743   2.149  11.703  1.00  0.00     0.154 C 
HETATM    2  N1  UNL     1      17.113   3.404  11.824  1.00  0.00    -0.375 N 
HETATM    3  C2  UNL     1      17.663   4.501  11.165  1.00  0.00     0.065 C 
HETATM    4  C3  UNL     1      17.801   5.764  11.940  1.00  0.00     0.080 C 
HETATM    5  C4  UNL     1      16.666   6.040  12.870  1.00  0.00     0.165 C 
HETATM    6  O1  UNL     1      17.048   6.983  13.838  1.00  0.00    -0.382 OA
HETATM    7  C5  UNL     1      15.990   7.779  14.203  1.00  0.00     0.168 C 
HETATM    8  C6  UNL     1      15.254   7.342  15.414  1.00  0.00     0.026 C 
HETATM    9  C7  UNL     1      15.001   5.888  15.532  1.00  0.00     0.006 C 
HETATM   10  C8  UNL     1      14.877   5.152  14.241  1.00  0.00     0.046 C 
HETATM   11  C9  UNL     1      16.247   4.808  13.651  1.00  0.00     0.116 C 
HETATM   12  C10 UNL     1      16.153   3.581  12.817  1.00  0.00     0.102 C 
ENDROOT
BRANCH  11  13
HETATM   13  O2  UNL     1      17.126   4.596  14.718  1.00  0.00    -0.382 OA
ATOM     14  H2  UNL     1      17.979   4.337  14.391  1.00  0.00     0.211 HD
ENDBRANCH  11  13
TORSDOF 1
ENDMDL
