MODEL 1
REMARK VINA RESULT: -8.997756431      0.000      0.000
REMARK  18 active torsions:
REMARK  status: ('A' for Active; 'I' for Inactive)
REMARK    1  A    between atoms: C2_2  and  C3_3 
REMARK    2  A    between atoms: C5_5  and  N1_6 
REMARK    3  A    between atoms: C5_5  and  C29_41 
REMARK       I    between atoms: N1_6  and  C6_8 
REMARK    4  A    between atoms: C6_8  and  C7_10 
REMARK    5  A    between atoms: C8_11  and  O2_12 
REMARK    6  A    between atoms: N2_17  and  C13_18 
REMARK    7  A    between atoms: C13_18  and  O3_19 
REMARK    8  A    between atoms: C13_18  and  C14_21 
REMARK    9  A    between atoms: C14_21  and  C15_22 
REMARK   10  A    between atoms: C14_21  and  N3_29 
REMARK   11  A    between atoms: C15_22  and  C16_23 
REMARK   12  A    between atoms: C16_23  and  C17_24 
REMARK   13  A    between atoms: C17_24  and  C18_25 
REMARK   14  A    between atoms: C18_25  and  C19_26 
REMARK   15  A    between atoms: C19_26  and  C20_27 
REMARK       I    between atoms: N3_29  and  C22_31 
REMARK       I    between atoms: C22_31  and  N4_33 
REMARK   16  A    between atoms: N4_33  and  C23_35 
REMARK       I    between atoms: C29_41  and  N5_43 
REMARK   17  A    between atoms: N5_43  and  S1_45 
REMARK   18  A    between atoms: S1_45  and  C30_48 
ROOT
HETATM    1  C7  UNL     1      21.275   1.813  18.784  1.00  0.00     0.111 C 
HETATM    2  C8  UNL     1      22.656   1.659  19.410  1.00  0.00     0.176 C 
HETATM    3  C10 UNL     1      22.978   0.146  19.311  1.00  0.00     0.040 C 
HETATM    4  C11 UNL     1      23.273  -0.111  17.848  1.00  0.00     0.023 C 
HETATM    5  C12 UNL     1      22.121   0.429  17.036  1.00  0.00     0.131 C 
HETATM    6  N2  UNL     1      20.946   0.676  18.005  1.00  0.00    -0.326 N 
ENDROOT
BRANCH   6   7
HETATM    7  C13 UNL     1      19.958  -0.264  17.893  1.00  0.00     0.141 C 
BRANCH   7   8
HETATM    8  O3  UNL     1      19.268  -0.447  19.018  1.00  0.00    -0.348 OA
ATOM      9  H3  UNL     1      18.937  -1.332  19.120  1.00  0.00     0.219 HD
ENDBRANCH   7   8
BRANCH   7  10
HETATM   10  C14 UNL     1      19.455  -1.136  16.837  1.00  0.00     0.161 C 
BRANCH  10  11
HETATM   11  C15 UNL     1      17.966  -1.454  17.038  1.00  0.00     0.034 C 
BRANCH  11  12
HETATM   12  C16 UNL     1      17.542  -2.707  16.335  1.00  0.00     0.002 C 
BRANCH  12  13
HETATM   13  C17 UNL     1      17.328  -2.436  14.837  1.00  0.00     0.000 C 
BRANCH  13  14
HETATM   14  C18 UNL     1      17.970  -3.566  14.045  1.00  0.00     0.000 C 
BRANCH  14  15
HETATM   15  C19 UNL     1      18.006  -4.836  14.832  1.00  0.00    -0.000 C 
BRANCH  15  16
HETATM   16  C20 UNL     1      17.142  -5.912  14.224  1.00  0.00    -0.005 C 
HETATM   17  C21 UNL     1      15.866  -6.152  14.966  1.00  0.00     0.005 C 
ENDBRANCH  15  16
ENDBRANCH  14  15
ENDBRANCH  13  14
ENDBRANCH  12  13
ENDBRANCH  11  12
ENDBRANCH  10  11
BRANCH  10  18
HETATM   18  N3  UNL     1      20.080  -2.479  16.912  1.00  0.00    -0.331 N 
HETATM   19  C22 UNL     1      21.014  -2.929  15.943  1.00  0.00     0.317 C 
HETATM   20  O4  UNL     1      21.289  -2.102  15.008  1.00  0.00    -0.247 OA
HETATM   21  N4  UNL     1      21.638  -4.181  15.940  1.00  0.00    -0.339 N 
ATOM     22  H4  UNL     1      21.423  -4.857  16.673  1.00  0.00     0.164 HD
ATOM     23  H3  UNL     1      19.831  -3.098  17.684  1.00  0.00     0.165 HD
BRANCH  21  24
HETATM   24  C23 UNL     1      22.586  -4.520  14.901  1.00  0.00     0.086 C 
HETATM   25  C24 UNL     1      21.968  -4.582  13.541  1.00  0.00     0.025 C 
HETATM   26  C25 UNL     1      21.124  -5.744  13.230  1.00  0.00     0.002 C 
HETATM   27  C26 UNL     1      21.355  -6.993  13.980  1.00  0.00     0.000 C 
HETATM   28  C27 UNL     1      22.196  -6.884  15.208  1.00  0.00     0.002 C 
HETATM   29  C28 UNL     1      23.265  -5.852  15.137  1.00  0.00     0.025 C 
ENDBRANCH  21  24
ENDBRANCH  10  18
ENDBRANCH   7  10
ENDBRANCH   6   7
BRANCH   1  30
HETATM   30  C6  UNL     1      20.359   2.472  19.662  1.00  0.00     0.268 C 
HETATM   31  N1  UNL     1      20.050   1.901  20.936  1.00  0.00    -0.337 N 
ATOM     32  H1  UNL     1      20.513   1.021  21.164  1.00  0.00     0.164 HD
HETATM   33  O1  UNL     1      19.768   3.545  19.429  1.00  0.00    -0.266 OA
BRANCH  31  34
HETATM   34  C5  UNL     1      19.162   2.430  21.926  1.00  0.00     0.122 A 
HETATM   35  C3  UNL     1      18.425   1.324  22.723  1.00  0.00     0.048 A 
HETATM   36  C4  UNL     1      17.680   2.301  21.907  1.00  0.00     0.053 A 
BRANCH  35  37
HETATM   37  C2  UNL     1      18.443   1.411  24.202  1.00  0.00    -0.029 C 
HETATM   38  C1  UNL     1      18.208   0.384  24.998  1.00  0.00     0.007 C 
ENDBRANCH  35  37
BRANCH  34  39
HETATM   39  C29 UNL     1      19.686   3.559  22.782  1.00  0.00     0.260 C 
HETATM   40  O5  UNL     1      18.878   4.486  23.026  1.00  0.00    -0.270 OA
HETATM   41  N5  UNL     1      20.976   3.645  23.314  1.00  0.00    -0.252 N 
ATOM     42  H5  UNL     1      21.631   2.889  23.114  1.00  0.00     0.181 HD
BRANCH  41  43
HETATM   43  S1  UNL     1      21.521   4.958  24.287  1.00  0.00     0.240 S 
HETATM   44  O6  UNL     1      20.815   5.020  25.607  1.00  0.00    -0.205 OA
HETATM   45  O7  UNL     1      21.224   6.233  23.553  1.00  0.00    -0.205 OA
BRANCH  43  46
HETATM   46  C30 UNL     1      23.255   4.904  24.603  1.00  0.00     0.072 C 
HETATM   47  C31 UNL     1      23.575   4.194  25.906  1.00  0.00     0.033 C 
HETATM   48  C32 UNL     1      23.862   4.019  23.503  1.00  0.00     0.033 C 
HETATM   49  C33 UNL     1      23.929   6.238  24.495  1.00  0.00     0.033 C 
ENDBRANCH  43  46
ENDBRANCH  41  43
ENDBRANCH  34  39
ENDBRANCH  31  34
ENDBRANCH   1  30
BRANCH   2  50
HETATM   50  O2  UNL     1      23.602   2.290  18.627  1.00  0.00    -0.384 OA
HETATM   51  C9  UNL     1      24.612   2.938  19.269  1.00  0.00     0.202 C 
ENDBRANCH   2  50
TORSDOF 18
ENDMDL
MODEL 2
REMARK VINA RESULT: -8.862744782      4.860     12.671
REMARK  18 active torsions:
REMARK  status: ('A' for Active; 'I' for Inactive)
REMARK    1  A    between atoms: C2_2  and  C3_3 
REMARK    2  A    between atoms: C5_5  and  N1_6 
REMARK    3  A    between atoms: C5_5  and  C29_41 
REMARK       I    between atoms: N1_6  and  C6_8 
REMARK    4  A    between atoms: C6_8  and  C7_10 
REMARK    5  A    between atoms: C8_11  and  O2_12 
REMARK    6  A    between atoms: N2_17  and  C13_18 
REMARK    7  A    between atoms: C13_18  and  O3_19 
REMARK    8  A    between atoms: C13_18  and  C14_21 
REMARK    9  A    between atoms: C14_21  and  C15_22 
REMARK   10  A    between atoms: C14_21  and  N3_29 
REMARK   11  A    between atoms: C15_22  and  C16_23 
REMARK   12  A    between atoms: C16_23  and  C17_24 
REMARK   13  A    between atoms: C17_24  and  C18_25 
REMARK   14  A    between atoms: C18_25  and  C19_26 
REMARK   15  A    between atoms: C19_26  and  C20_27 
REMARK       I    between atoms: N3_29  and  C22_31 
REMARK       I    between atoms: C22_31  and  N4_33 
REMARK   16  A    between atoms: N4_33  and  C23_35 
REMARK       I    between atoms: C29_41  and  N5_43 
REMARK   17  A    between atoms: N5_43  and  S1_45 
REMARK   18  A    between atoms: S1_45  and  C30_48 
ROOT
HETATM    1  C7  UNL     1      18.763  -4.932  13.560  1.00  0.00     0.111 C 
HETATM    2  C8  UNL     1      17.374  -5.384  13.994  1.00  0.00     0.176 C 
HETATM    3  C10 UNL     1      17.187  -4.805  15.419  1.00  0.00     0.040 C 
HETATM    4  C11 UNL     1      16.980  -3.317  15.228  1.00  0.00     0.023 C 
HETATM    5  C12 UNL     1      18.117  -2.790  14.387  1.00  0.00     0.131 C 
HETATM    6  N2  UNL     1      19.222  -3.867  14.374  1.00  0.00    -0.326 N 
ENDROOT
BRANCH   6   7
HETATM    7  C13 UNL     1      20.290  -3.539  15.164  1.00  0.00     0.141 C 
BRANCH   7   8
HETATM    8  O3  UNL     1      21.047  -4.586  15.496  1.00  0.00    -0.348 OA
ATOM      9  H3  UNL     1      21.919  -4.557  15.120  1.00  0.00     0.219 HD
ENDBRANCH   7   8
BRANCH   7  10
HETATM   10  C14 UNL     1      20.827  -2.315  15.749  1.00  0.00     0.161 C 
BRANCH  10  11
HETATM   11  C15 UNL     1      22.274  -2.511  16.221  1.00  0.00     0.034 C 
BRANCH  11  12
HETATM   12  C16 UNL     1      22.629  -1.629  17.380  1.00  0.00     0.002 C 
BRANCH  12  13
HETATM   13  C17 UNL     1      23.241  -0.309  16.881  1.00  0.00     0.000 C 
BRANCH  13  14
HETATM   14  C18 UNL     1      22.805   0.809  17.816  1.00  0.00     0.000 C 
BRANCH  14  15
HETATM   15  C19 UNL     1      23.157   0.506  19.237  1.00  0.00    -0.000 C 
BRANCH  15  16
HETATM   16  C20 UNL     1      24.582   0.877  19.566  1.00  0.00    -0.005 C 
HETATM   17  C21 UNL     1      25.008   2.193  18.999  1.00  0.00     0.005 C 
ENDBRANCH  15  16
ENDBRANCH  14  15
ENDBRANCH  13  14
ENDBRANCH  12  13
ENDBRANCH  11  12
ENDBRANCH  10  11
BRANCH  10  18
HETATM   18  N3  UNL     1      20.124  -1.977  17.011  1.00  0.00    -0.331 N 
HETATM   19  C22 UNL     1      19.450  -0.740  17.187  1.00  0.00     0.317 C 
HETATM   20  O4  UNL     1      19.480   0.058  16.189  1.00  0.00    -0.247 OA
HETATM   21  N4  UNL     1      18.775  -0.343  18.347  1.00  0.00    -0.339 N 
ATOM     22  H4  UNL     1      18.750  -0.963  19.156  1.00  0.00     0.164 HD
ATOM     23  H3  UNL     1      20.125  -2.652  17.775  1.00  0.00     0.165 HD
BRANCH  21  24
HETATM   24  C23 UNL     1      18.113   0.941  18.401  1.00  0.00     0.086 C 
HETATM   25  C24 UNL     1      18.903   1.977  19.135  1.00  0.00     0.025 C 
HETATM   26  C25 UNL     1      18.957   1.879  20.601  1.00  0.00     0.002 C 
HETATM   27  C26 UNL     1      17.859   1.177  21.293  1.00  0.00     0.000 C 
HETATM   28  C27 UNL     1      16.959   0.348  20.438  1.00  0.00     0.002 C 
HETATM   29  C28 UNL     1      16.753   0.875  19.062  1.00  0.00     0.025 C 
ENDBRANCH  21  24
ENDBRANCH  10  18
ENDBRANCH   7  10
ENDBRANCH   6   7
BRANCH   1  30
HETATM   30  C6  UNL     1      19.580  -6.030  13.146  1.00  0.00     0.268 C 
HETATM   31  N1  UNL     1      19.944  -7.046  14.085  1.00  0.00    -0.337 N 
ATOM     32  H1  UNL     1      19.593  -6.934  15.036  1.00  0.00     0.164 HD
HETATM   33  O1  UNL     1      20.034  -6.211  12.000  1.00  0.00    -0.266 OA
BRANCH  31  34
HETATM   34  C5  UNL     1      20.748  -8.203  13.834  1.00  0.00     0.122 A 
HETATM   35  C3  UNL     1      21.528  -8.674  15.087  1.00  0.00     0.048 A 
HETATM   36  C4  UNL     1      22.235  -8.239  13.868  1.00  0.00     0.053 A 
BRANCH  35  37
HETATM   37  C2  UNL     1      21.441 -10.106  15.457  1.00  0.00    -0.029 C 
HETATM   38  C1  UNL     1      21.521 -10.548  16.699  1.00  0.00     0.007 C 
ENDBRANCH  35  37
BRANCH  34  39
HETATM   39  C29 UNL     1      20.107  -9.325  13.052  1.00  0.00     0.260 C 
HETATM   40  O5  UNL     1      20.783  -9.792  12.105  1.00  0.00    -0.270 OA
HETATM   41  N5  UNL     1      18.845  -9.872  13.299  1.00  0.00    -0.252 N 
ATOM     42  H5  UNL     1      18.298  -9.490  14.071  1.00  0.00     0.181 HD
BRANCH  41  43
HETATM   43  S1  UNL     1      18.162 -11.155  12.374  1.00  0.00     0.240 S 
HETATM   44  O6  UNL     1      18.870 -12.456  12.595  1.00  0.00    -0.205 OA
HETATM   45  O7  UNL     1      18.301 -10.802  10.922  1.00  0.00    -0.205 OA
BRANCH  43  46
HETATM   46  C30 UNL     1      16.449 -11.407  12.711  1.00  0.00     0.072 C 
HETATM   47  C31 UNL     1      16.230 -12.172  14.003  1.00  0.00     0.033 C 
HETATM   48  C32 UNL     1      15.853 -10.013  12.962  1.00  0.00     0.033 C 
HETATM   49  C33 UNL     1      15.689 -11.993  11.560  1.00  0.00     0.033 C 
ENDBRANCH  43  46
ENDBRANCH  41  43
ENDBRANCH  34  39
ENDBRANCH  31  34
ENDBRANCH   1  30
BRANCH   2  50
HETATM   50  O2  UNL     1      16.414  -4.769  13.216  1.00  0.00    -0.384 OA
HETATM   51  C9  UNL     1      15.501  -5.570  12.601  1.00  0.00     0.202 C 
ENDBRANCH   2  50
TORSDOF 18
ENDMDL
MODEL 3
REMARK VINA RESULT: -8.814049635      1.207      1.466
REMARK  18 active torsions:
REMARK  status: ('A' for Active; 'I' for Inactive)
REMARK    1  A    between atoms: C2_2  and  C3_3 
REMARK    2  A    between atoms: C5_5  and  N1_6 
REMARK    3  A    between atoms: C5_5  and  C29_41 
REMARK       I    between atoms: N1_6  and  C6_8 
REMARK    4  A    between atoms: C6_8  and  C7_10 
REMARK    5  A    between atoms: C8_11  and  O2_12 
REMARK    6  A    between atoms: N2_17  and  C13_18 
REMARK    7  A    between atoms: C13_18  and  O3_19 
REMARK    8  A    between atoms: C13_18  and  C14_21 
REMARK    9  A    between atoms: C14_21  and  C15_22 
REMARK   10  A    between atoms: C14_21  and  N3_29 
REMARK   11  A    between atoms: C15_22  and  C16_23 
REMARK   12  A    between atoms: C16_23  and  C17_24 
REMARK   13  A    between atoms: C17_24  and  C18_25 
REMARK   14  A    between atoms: C18_25  and  C19_26 
REMARK   15  A    between atoms: C19_26  and  C20_27 
REMARK       I    between atoms: N3_29  and  C22_31 
REMARK       I    between atoms: C22_31  and  N4_33 
REMARK   16  A    between atoms: N4_33  and  C23_35 
REMARK       I    between atoms: C29_41  and  N5_43 
REMARK   17  A    between atoms: N5_43  and  S1_45 
REMARK   18  A    between atoms: S1_45  and  C30_48 
ROOT
HETATM    1  C7  UNL     1      21.202   1.712  18.732  1.00  0.00     0.111 C 
HETATM    2  C8  UNL     1      22.569   1.558  19.389  1.00  0.00     0.176 C 
HETATM    3  C10 UNL     1      22.896   0.046  19.290  1.00  0.00     0.040 C 
HETATM    4  C11 UNL     1      23.226  -0.204  17.833  1.00  0.00     0.023 C 
HETATM    5  C12 UNL     1      22.091   0.338  16.997  1.00  0.00     0.131 C 
HETATM    6  N2  UNL     1      20.894   0.578  17.940  1.00  0.00    -0.326 N 
ENDROOT
BRANCH   6   7
HETATM    7  C13 UNL     1      19.911  -0.364  17.800  1.00  0.00     0.141 C 
BRANCH   7   8
HETATM    8  O3  UNL     1      19.193  -0.551  18.907  1.00  0.00    -0.348 OA
ATOM      9  H3  UNL     1      18.940   0.258  19.337  1.00  0.00     0.219 HD
ENDBRANCH   7   8
BRANCH   7  10
HETATM   10  C14 UNL     1      19.436  -1.233  16.729  1.00  0.00     0.161 C 
BRANCH  10  11
HETATM   11  C15 UNL     1      17.948  -1.567  16.902  1.00  0.00     0.034 C 
BRANCH  11  12
HETATM   12  C16 UNL     1      17.551  -2.825  16.189  1.00  0.00     0.002 C 
BRANCH  12  13
HETATM   13  C17 UNL     1      16.976  -2.496  14.801  1.00  0.00     0.000 C 
BRANCH  13  14
HETATM   14  C18 UNL     1      15.811  -3.434  14.526  1.00  0.00     0.000 C 
BRANCH  14  15
HETATM   15  C19 UNL     1      16.271  -4.713  13.901  1.00  0.00    -0.000 C 
BRANCH  15  16
HETATM   16  C20 UNL     1      15.214  -5.333  13.022  1.00  0.00    -0.005 C 
HETATM   17  C21 UNL     1      14.676  -6.626  13.547  1.00  0.00     0.005 C 
ENDBRANCH  15  16
ENDBRANCH  14  15
ENDBRANCH  13  14
ENDBRANCH  12  13
ENDBRANCH  11  12
ENDBRANCH  10  11
BRANCH  10  18
HETATM   18  N3  UNL     1      20.074  -2.570  16.807  1.00  0.00    -0.331 N 
HETATM   19  C22 UNL     1      21.021  -3.008  15.846  1.00  0.00     0.317 C 
HETATM   20  O4  UNL     1      21.297  -2.176  14.915  1.00  0.00    -0.247 OA
HETATM   21  N4  UNL     1      21.658  -4.254  15.845  1.00  0.00    -0.339 N 
ATOM     22  H4  UNL     1      21.442  -4.934  16.574  1.00  0.00     0.164 HD
ATOM     23  H3  UNL     1      19.824  -3.193  17.575  1.00  0.00     0.165 HD
BRANCH  21  24
HETATM   24  C23 UNL     1      22.618  -4.580  14.815  1.00  0.00     0.086 C 
HETATM   25  C24 UNL     1      22.008  -4.678  13.453  1.00  0.00     0.025 C 
HETATM   26  C25 UNL     1      21.198  -5.868  13.155  1.00  0.00     0.002 C 
HETATM   27  C26 UNL     1      21.461  -7.100  13.923  1.00  0.00     0.000 C 
HETATM   28  C27 UNL     1      22.293  -6.950  15.153  1.00  0.00     0.002 C 
HETATM   29  C28 UNL     1      23.334  -5.889  15.071  1.00  0.00     0.025 C 
ENDBRANCH  21  24
ENDBRANCH  10  18
ENDBRANCH   7  10
ENDBRANCH   6   7
BRANCH   1  30
HETATM   30  C6  UNL     1      20.265   2.365  19.591  1.00  0.00     0.268 C 
HETATM   31  N1  UNL     1      20.006   1.844  20.898  1.00  0.00    -0.337 N 
ATOM     32  H1  UNL     1      20.520   1.003  21.162  1.00  0.00     0.164 HD
HETATM   33  O1  UNL     1      19.613   3.391  19.316  1.00  0.00    -0.266 OA
BRANCH  31  34
HETATM   34  C5  UNL     1      19.106   2.374  21.875  1.00  0.00     0.122 A 
HETATM   35  C3  UNL     1      18.415   1.271  22.716  1.00  0.00     0.048 A 
HETATM   36  C4  UNL     1      17.629   2.190  21.872  1.00  0.00     0.053 A 
BRANCH  35  37
HETATM   37  C2  UNL     1      18.438   1.410  24.191  1.00  0.00    -0.029 C 
HETATM   38  C1  UNL     1      18.285   0.397  25.024  1.00  0.00     0.007 C 
ENDBRANCH  35  37
BRANCH  34  39
HETATM   39  C29 UNL     1      19.592   3.551  22.688  1.00  0.00     0.260 C 
HETATM   40  O5  UNL     1      18.820   4.536  22.749  1.00  0.00    -0.270 OA
HETATM   41  N5  UNL     1      20.814   3.622  23.364  1.00  0.00    -0.252 N 
ATOM     42  H5  UNL     1      21.440   2.819  23.314  1.00  0.00     0.181 HD
BRANCH  41  43
HETATM   43  S1  UNL     1      21.320   4.991  24.279  1.00  0.00     0.240 S 
HETATM   44  O6  UNL     1      21.314   6.252  23.469  1.00  0.00    -0.205 OA
HETATM   45  O7  UNL     1      22.730   4.750  24.733  1.00  0.00    -0.205 OA
BRANCH  43  46
HETATM   46  C30 UNL     1      20.327   5.264  25.711  1.00  0.00     0.072 C 
HETATM   47  C31 UNL     1      19.684   3.984  26.212  1.00  0.00     0.033 C 
HETATM   48  C32 UNL     1      21.293   5.694  26.826  1.00  0.00     0.033 C 
HETATM   49  C33 UNL     1      19.338   6.380  25.554  1.00  0.00     0.033 C 
ENDBRANCH  43  46
ENDBRANCH  41  43
ENDBRANCH  34  39
ENDBRANCH  31  34
ENDBRANCH   1  30
BRANCH   2  50
HETATM   50  O2  UNL     1      23.531   2.194  18.632  1.00  0.00    -0.384 OA
HETATM   51  C9  UNL     1      24.523   2.845  19.300  1.00  0.00     0.202 C 
ENDBRANCH   2  50
TORSDOF 18
ENDMDL
MODEL 4
REMARK VINA RESULT: -8.705093862      4.943     12.726
REMARK  18 active torsions:
REMARK  status: ('A' for Active; 'I' for Inactive)
REMARK    1  A    between atoms: C2_2  and  C3_3 
REMARK    2  A    between atoms: C5_5  and  N1_6 
REMARK    3  A    between atoms: C5_5  and  C29_41 
REMARK       I    between atoms: N1_6  and  C6_8 
REMARK    4  A    between atoms: C6_8  and  C7_10 
REMARK    5  A    between atoms: C8_11  and  O2_12 
REMARK    6  A    between atoms: N2_17  and  C13_18 
REMARK    7  A    between atoms: C13_18  and  O3_19 
REMARK    8  A    between atoms: C13_18  and  C14_21 
REMARK    9  A    between atoms: C14_21  and  C15_22 
REMARK   10  A    between atoms: C14_21  and  N3_29 
REMARK   11  A    between atoms: C15_22  and  C16_23 
REMARK   12  A    between atoms: C16_23  and  C17_24 
REMARK   13  A    between atoms: C17_24  and  C18_25 
REMARK   14  A    between atoms: C18_25  and  C19_26 
REMARK   15  A    between atoms: C19_26  and  C20_27 
REMARK       I    between atoms: N3_29  and  C22_31 
REMARK       I    between atoms: C22_31  and  N4_33 
REMARK   16  A    between atoms: N4_33  and  C23_35 
REMARK       I    between atoms: C29_41  and  N5_43 
REMARK   17  A    between atoms: N5_43  and  S1_45 
REMARK   18  A    between atoms: S1_45  and  C30_48 
ROOT
HETATM    1  C7  UNL     1      18.732  -4.910  13.555  1.00  0.00     0.111 C 
HETATM    2  C8  UNL     1      17.339  -5.367  13.972  1.00  0.00     0.176 C 
HETATM    3  C10 UNL     1      17.139  -4.803  15.402  1.00  0.00     0.040 C 
HETATM    4  C11 UNL     1      16.934  -3.313  15.226  1.00  0.00     0.023 C 
HETATM    5  C12 UNL     1      18.078  -2.777  14.399  1.00  0.00     0.131 C 
HETATM    6  N2  UNL     1      19.183  -3.854  14.385  1.00  0.00    -0.326 N 
ENDROOT
BRANCH   6   7
HETATM    7  C13 UNL     1      20.244  -3.535  15.188  1.00  0.00     0.141 C 
BRANCH   7   8
HETATM    8  O3  UNL     1      20.982  -4.589  15.537  1.00  0.00    -0.348 OA
ATOM      9  H3  UNL     1      21.553  -4.423  16.279  1.00  0.00     0.219 HD
ENDBRANCH   7   8
BRANCH   7  10
HETATM   10  C14 UNL     1      20.788  -2.314  15.772  1.00  0.00     0.161 C 
BRANCH  10  11
HETATM   11  C15 UNL     1      22.237  -2.517  16.240  1.00  0.00     0.034 C 
BRANCH  11  12
HETATM   12  C16 UNL     1      22.605  -1.625  17.386  1.00  0.00     0.002 C 
BRANCH  12  13
HETATM   13  C17 UNL     1      23.160  -0.287  16.868  1.00  0.00     0.000 C 
BRANCH  13  14
HETATM   14  C18 UNL     1      22.771   0.810  17.847  1.00  0.00     0.000 C 
BRANCH  14  15
HETATM   15  C19 UNL     1      23.288   0.529  19.221  1.00  0.00    -0.000 C 
BRANCH  15  16
HETATM   16  C20 UNL     1      24.726   0.954  19.389  1.00  0.00    -0.005 C 
HETATM   17  C21 UNL     1      24.991   2.363  18.966  1.00  0.00     0.005 C 
ENDBRANCH  15  16
ENDBRANCH  14  15
ENDBRANCH  13  14
ENDBRANCH  12  13
ENDBRANCH  11  12
ENDBRANCH  10  11
BRANCH  10  18
HETATM   18  N3  UNL     1      20.091  -1.972  17.036  1.00  0.00    -0.331 N 
HETATM   19  C22 UNL     1      19.417  -0.736  17.212  1.00  0.00     0.317 C 
HETATM   20  O4  UNL     1      19.441   0.059  16.211  1.00  0.00    -0.247 OA
HETATM   21  N4  UNL     1      18.746  -0.337  18.373  1.00  0.00    -0.339 N 
ATOM     22  H4  UNL     1      18.725  -0.954  19.184  1.00  0.00     0.164 HD
ATOM     23  H3  UNL     1      20.096  -2.646  17.802  1.00  0.00     0.165 HD
BRANCH  21  24
HETATM   24  C23 UNL     1      18.083   0.947  18.426  1.00  0.00     0.086 C 
HETATM   25  C24 UNL     1      18.884   1.991  19.136  1.00  0.00     0.025 C 
HETATM   26  C25 UNL     1      18.965   1.908  20.601  1.00  0.00     0.002 C 
HETATM   27  C26 UNL     1      17.881   1.211  21.320  1.00  0.00     0.000 C 
HETATM   28  C27 UNL     1      16.967   0.372  20.490  1.00  0.00     0.002 C 
HETATM   29  C28 UNL     1      16.735   0.885  19.113  1.00  0.00     0.025 C 
ENDBRANCH  21  24
ENDBRANCH  10  18
ENDBRANCH   7  10
ENDBRANCH   6   7
BRANCH   1  30
HETATM   30  C6  UNL     1      19.552  -6.003  13.137  1.00  0.00     0.268 C 
HETATM   31  N1  UNL     1      19.944  -7.007  14.078  1.00  0.00    -0.337 N 
ATOM     32  H1  UNL     1      19.609  -6.889  15.034  1.00  0.00     0.164 HD
HETATM   33  O1  UNL     1      19.987  -6.190  11.984  1.00  0.00    -0.266 OA
BRANCH  31  34
HETATM   34  C5  UNL     1      20.755  -8.157  13.823  1.00  0.00     0.122 A 
HETATM   35  C3  UNL     1      21.482  -8.672  15.092  1.00  0.00     0.048 A 
HETATM   36  C4  UNL     1      22.240  -8.200  13.917  1.00  0.00     0.053 A 
BRANCH  35  37
HETATM   37  C2  UNL     1      21.377 -10.115  15.411  1.00  0.00    -0.029 C 
HETATM   38  C1  UNL     1      21.467 -10.603  16.634  1.00  0.00     0.007 C 
ENDBRANCH  35  37
BRANCH  34  39
HETATM   39  C29 UNL     1      20.146  -9.252  12.979  1.00  0.00     0.260 C 
HETATM   40  O5  UNL     1      20.893  -9.758  12.110  1.00  0.00    -0.270 OA
HETATM   41  N5  UNL     1      18.838  -9.733  13.091  1.00  0.00    -0.252 N 
ATOM     42  H5  UNL     1      18.232  -9.319  13.800  1.00  0.00     0.181 HD
BRANCH  41  43
HETATM   43  S1  UNL     1      18.193 -10.986  12.100  1.00  0.00     0.240 S 
HETATM   44  O6  UNL     1      18.861 -11.053  10.760  1.00  0.00    -0.205 OA
HETATM   45  O7  UNL     1      16.740 -10.691  11.869  1.00  0.00    -0.205 OA
BRANCH  43  46
HETATM   46  C30 UNL     1      18.314 -12.580  12.845  1.00  0.00     0.072 C 
HETATM   47  C31 UNL     1      19.627 -13.265  12.515  1.00  0.00     0.033 C 
HETATM   48  C32 UNL     1      18.355 -12.340  14.362  1.00  0.00     0.033 C 
HETATM   49  C33 UNL     1      17.127 -13.457  12.586  1.00  0.00     0.033 C 
ENDBRANCH  43  46
ENDBRANCH  41  43
ENDBRANCH  34  39
ENDBRANCH  31  34
ENDBRANCH   1  30
BRANCH   2  50
HETATM   50  O2  UNL     1      16.385  -4.744  13.193  1.00  0.00    -0.384 OA
HETATM   51  C9  UNL     1      15.324  -5.493  12.786  1.00  0.00     0.202 C 
ENDBRANCH   2  50
TORSDOF 18
ENDMDL
MODEL 5
REMARK VINA RESULT: -8.536476816      4.796     11.930
REMARK  18 active torsions:
REMARK  status: ('A' for Active; 'I' for Inactive)
REMARK    1  A    between atoms: C2_2  and  C3_3 
REMARK    2  A    between atoms: C5_5  and  N1_6 
REMARK    3  A    between atoms: C5_5  and  C29_41 
REMARK       I    between atoms: N1_6  and  C6_8 
REMARK    4  A    between atoms: C6_8  and  C7_10 
REMARK    5  A    between atoms: C8_11  and  O2_12 
REMARK    6  A    between atoms: N2_17  and  C13_18 
REMARK    7  A    between atoms: C13_18  and  O3_19 
REMARK    8  A    between atoms: C13_18  and  C14_21 
REMARK    9  A    between atoms: C14_21  and  C15_22 
REMARK   10  A    between atoms: C14_21  and  N3_29 
REMARK   11  A    between atoms: C15_22  and  C16_23 
REMARK   12  A    between atoms: C16_23  and  C17_24 
REMARK   13  A    between atoms: C17_24  and  C18_25 
REMARK   14  A    between atoms: C18_25  and  C19_26 
REMARK   15  A    between atoms: C19_26  and  C20_27 
REMARK       I    between atoms: N3_29  and  C22_31 
REMARK       I    between atoms: C22_31  and  N4_33 
REMARK   16  A    between atoms: N4_33  and  C23_35 
REMARK       I    between atoms: C29_41  and  N5_43 
REMARK   17  A    between atoms: N5_43  and  S1_45 
REMARK   18  A    between atoms: S1_45  and  C30_48 
ROOT
HETATM    1  C7  UNL     1      17.575  -5.005  13.309  1.00  0.00     0.111 C 
HETATM    2  C8  UNL     1      16.758  -6.005  14.118  1.00  0.00     0.176 C 
HETATM    3  C10 UNL     1      16.566  -5.343  15.506  1.00  0.00     0.040 C 
HETATM    4  C11 UNL     1      15.563  -4.230  15.290  1.00  0.00     0.023 C 
HETATM    5  C12 UNL     1      16.054  -3.371  14.150  1.00  0.00     0.131 C 
HETATM    6  N2  UNL     1      17.537  -3.722  13.911  1.00  0.00    -0.326 N 
ENDROOT
BRANCH   6   7
HETATM    7  C13 UNL     1      18.392  -2.758  14.373  1.00  0.00     0.141 C 
BRANCH   7   8
HETATM    8  O3  UNL     1      18.491  -1.704  13.564  1.00  0.00    -0.348 OA
ATOM      9  H3  UNL     1      18.001  -1.799  12.754  1.00  0.00     0.219 HD
ENDBRANCH   7   8
BRANCH   7  10
HETATM   10  C14 UNL     1      19.239  -2.582  15.547  1.00  0.00     0.161 C 
BRANCH  10  11
HETATM   11  C15 UNL     1      19.720  -3.933  16.095  1.00  0.00     0.034 C 
BRANCH  11  12
HETATM   12  C16 UNL     1      21.132  -3.885  16.597  1.00  0.00     0.002 C 
BRANCH  12  13
HETATM   13  C17 UNL     1      21.903  -2.741  15.918  1.00  0.00     0.000 C 
BRANCH  13  14
HETATM   14  C18 UNL     1      22.635  -1.948  16.991  1.00  0.00     0.000 C 
BRANCH  14  15
HETATM   15  C19 UNL     1      21.766  -1.704  18.182  1.00  0.00    -0.000 C 
BRANCH  15  16
HETATM   16  C20 UNL     1      22.204  -0.496  18.973  1.00  0.00    -0.005 C 
HETATM   17  C21 UNL     1      23.226   0.342  18.275  1.00  0.00     0.005 C 
ENDBRANCH  15  16
ENDBRANCH  14  15
ENDBRANCH  13  14
ENDBRANCH  12  13
ENDBRANCH  11  12
ENDBRANCH  10  11
BRANCH  10  18
HETATM   18  N3  UNL     1      18.462  -2.035  16.686  1.00  0.00    -0.331 N 
HETATM   19  C22 UNL     1      18.497  -0.658  17.027  1.00  0.00     0.317 C 
HETATM   20  O4  UNL     1      19.232   0.081  16.287  1.00  0.00    -0.247 OA
HETATM   21  N4  UNL     1      17.804  -0.069  18.090  1.00  0.00    -0.339 N 
ATOM     22  H4  UNL     1      17.221  -0.645  18.697  1.00  0.00     0.164 HD
ATOM     23  H3  UNL     1      17.886  -2.668  17.241  1.00  0.00     0.165 HD
BRANCH  21  24
HETATM   24  C23 UNL     1      17.909   1.353  18.329  1.00  0.00     0.086 C 
HETATM   25  C24 UNL     1      19.037   1.711  19.244  1.00  0.00     0.025 C 
HETATM   26  C25 UNL     1      18.869   1.424  20.676  1.00  0.00     0.002 C 
HETATM   27  C26 UNL     1      17.497   1.339  21.213  1.00  0.00     0.000 C 
HETATM   28  C27 UNL     1      16.398   1.228  20.209  1.00  0.00     0.002 C 
HETATM   29  C28 UNL     1      16.652   1.944  18.930  1.00  0.00     0.025 C 
ENDBRANCH  21  24
ENDBRANCH  10  18
ENDBRANCH   7  10
ENDBRANCH   6   7
BRANCH   1  30
HETATM   30  C6  UNL     1      18.756  -5.595  12.760  1.00  0.00     0.268 C 
HETATM   31  N1  UNL     1      19.870  -5.891  13.607  1.00  0.00    -0.337 N 
ATOM     32  H1  UNL     1      19.765  -5.657  14.595  1.00  0.00     0.164 HD
HETATM   33  O1  UNL     1      18.933  -5.896  11.564  1.00  0.00    -0.266 OA
BRANCH  31  34
HETATM   34  C5  UNL     1      21.115  -6.478  13.220  1.00  0.00     0.122 A 
HETATM   35  C3  UNL     1      22.339  -5.635  13.659  1.00  0.00     0.048 A 
HETATM   36  C4  UNL     1      22.068  -5.901  12.234  1.00  0.00     0.053 A 
BRANCH  35  37
HETATM   37  C2  UNL     1      23.435  -6.328  14.376  1.00  0.00    -0.029 C 
HETATM   38  C1  UNL     1      24.102  -5.796  15.383  1.00  0.00     0.007 C 
ENDBRANCH  35  37
BRANCH  34  39
HETATM   39  C29 UNL     1      21.276  -7.962  13.457  1.00  0.00     0.260 C 
HETATM   40  O5  UNL     1      21.755  -8.623  12.506  1.00  0.00    -0.270 OA
HETATM   41  N5  UNL     1      20.937  -8.639  14.632  1.00  0.00    -0.252 N 
ATOM     42  H5  UNL     1      20.548  -8.098  15.404  1.00  0.00     0.181 HD
BRANCH  41  43
HETATM   43  S1  UNL     1      21.142 -10.336  14.849  1.00  0.00     0.240 S 
HETATM   44  O6  UNL     1      21.102 -10.735  16.293  1.00  0.00    -0.205 OA
HETATM   45  O7  UNL     1      22.493 -10.710  14.312  1.00  0.00    -0.205 OA
BRANCH  43  46
HETATM   46  C30 UNL     1      19.931 -11.288  13.992  1.00  0.00     0.072 C 
HETATM   47  C31 UNL     1      20.365 -11.620  12.575  1.00  0.00     0.033 C 
HETATM   48  C32 UNL     1      19.858 -12.640  14.718  1.00  0.00     0.033 C 
HETATM   49  C33 UNL     1      18.554 -10.700  14.047  1.00  0.00     0.033 C 
ENDBRANCH  43  46
ENDBRANCH  41  43
ENDBRANCH  34  39
ENDBRANCH  31  34
ENDBRANCH   1  30
BRANCH   2  50
HETATM   50  O2  UNL     1      15.490  -6.119  13.585  1.00  0.00    -0.384 OA
HETATM   51  C9  UNL     1      15.018  -7.375  13.359  1.00  0.00     0.202 C 
ENDBRANCH   2  50
TORSDOF 18
ENDMDL
