MODEL 1
REMARK VINA RESULT: -8.749264756      0.000      0.000
REMARK  17 active torsions:
REMARK  status: ('A' for Active; 'I' for Inactive)
REMARK    1  A    between atoms: C3_3  and  O1_4 
REMARK    2  A    between atoms: C6_8  and  O2_9 
REMARK    3  A    between atoms: C17_22  and  O4_23 
REMARK    4  A    between atoms: O4_23  and  C18_24 
REMARK    5  A    between atoms: C18_24  and  C19_25 
REMARK    6  A    between atoms: C19_25  and  C20_26 
REMARK    7  A    between atoms: C20_26  and  C21_27 
REMARK    8  A    between atoms: C21_27  and  C22_28 
REMARK    9  A    between atoms: C22_28  and  C23_29 
REMARK       I    between atoms: C23_29  and  N1_31 
REMARK   10  A    between atoms: N1_31  and  C24_33 
REMARK   11  A    between atoms: C24_33  and  C25_34 
REMARK   12  A    between atoms: C24_33  and  C32_44 
REMARK   13  A    between atoms: C25_34  and  C26_35 
REMARK   14  A    between atoms: C26_35  and  C27_36 
REMARK       I    between atoms: C27_36  and  N2_38 
REMARK   15  A    between atoms: N2_38  and  C29_40 
REMARK   16  A    between atoms: C29_40  and  C30_41 
REMARK   17  A    between atoms: C30_41  and  O7_42 
ROOT
HETATM    1  C32 UNL     1      19.540  -6.380  12.160  1.00  0.00     0.313 C 
HETATM    2  O8  UNL     1      20.041  -6.192  11.041  1.00  0.00    -0.255 OA
HETATM    3  N3  UNL     1      20.264  -6.273  13.357  1.00  0.00    -0.393 NA
HETATM    4  C33 UNL     1      20.951  -6.173  14.491  1.00  0.00     0.233 C 
ENDROOT
BRANCH   1   5
HETATM    5  C24 UNL     1      18.020  -6.735  12.084  1.00  0.00     0.192 C 
BRANCH   5   6
HETATM    6  N1  UNL     1      17.492  -5.972  13.247  1.00  0.00    -0.347 N 
HETATM    7  C23 UNL     1      16.256  -5.278  13.160  1.00  0.00     0.218 C 
HETATM    8  O5  UNL     1      15.645  -5.301  12.070  1.00  0.00    -0.274 OA
ATOM      9  H1  UNL     1      18.024  -5.947  14.116  1.00  0.00     0.163 HD
BRANCH   7  10
HETATM   10  C22 UNL     1      15.662  -4.544  14.273  1.00  0.00     0.103 C 
BRANCH  10  11
HETATM   11  C21 UNL     1      16.379  -3.286  14.699  1.00  0.00     0.009 C 
BRANCH  11  12
HETATM   12  C20 UNL     1      17.327  -3.589  15.846  1.00  0.00     0.002 C 
BRANCH  12  13
HETATM   13  C19 UNL     1      18.746  -3.324  15.331  1.00  0.00     0.026 C 
BRANCH  13  14
HETATM   14  C18 UNL     1      18.697  -2.300  14.220  1.00  0.00     0.168 C 
BRANCH  14  15
HETATM   15  O4  UNL     1      19.500  -1.175  14.583  1.00  0.00    -0.378 OA
BRANCH  15  16
HETATM   16  C17 UNL     1      19.818  -1.269  15.905  1.00  0.00     0.192 C 
HETATM   17  C16 UNL     1      21.223  -1.115  16.277  1.00  0.00     0.164 C 
HETATM   18  C14 UNL     1      21.248  -0.734  17.761  1.00  0.00     0.024 C 
HETATM   19  O3  UNL     1      22.207  -1.245  15.609  1.00  0.00    -0.294 OA
HETATM   20  C13 UNL     1      22.430   0.104  17.983  1.00  0.00     0.018 C 
HETATM   21  C15 UNL     1      21.473  -2.067  18.483  1.00  0.00     0.024 C 
HETATM   22  C35 UNL     1      19.897  -0.194  18.044  1.00  0.00     0.013 C 
HETATM   23  C12 UNL     1      22.100   1.569  18.186  1.00  0.00     0.007 C 
HETATM   24  C11 UNL     1      21.089   1.565  19.339  1.00  0.00     0.007 C 
HETATM   25  C9  UNL     1      21.037   2.877  20.034  1.00  0.00    -0.013 C 
HETATM   26  C36 UNL     1      19.806   1.119  18.757  1.00  0.00     0.031 C 
HETATM   27  C4  UNL     1      19.945   2.891  21.021  1.00  0.00    -0.035 C 
HETATM   28  C8  UNL     1      22.353   3.083  20.761  1.00  0.00     0.016 C 
HETATM   29  C10 UNL     1      20.765   4.027  19.078  1.00  0.00     0.020 C 
HETATM   30  C3  UNL     1      18.873   2.065  20.882  1.00  0.00     0.074 C 
HETATM   31  C5  UNL     1      19.960   3.776  22.191  1.00  0.00     0.069 C 
HETATM   32  C2  UNL     1      18.747   1.155  19.770  1.00  0.00    -0.029 C 
HETATM   33  C1  UNL     1      17.657   0.422  19.719  1.00  0.00     0.022 C 
HETATM   34  C6  UNL     1      21.293   4.060  22.794  1.00  0.00     0.122 C 
HETATM   35  C7  UNL     1      22.372   4.199  21.726  1.00  0.00     0.033 C 
HETATM   36  C34 UNL     1      19.161  -0.120  16.715  1.00  0.00     0.046 C 
BRANCH  30  37
HETATM   37  O1  UNL     1      17.886   2.126  21.879  1.00  0.00    -0.360 OA
ATOM     38  H1  UNL     1      17.357   2.906  21.995  1.00  0.00     0.217 HD
ENDBRANCH  30  37
BRANCH  34  39
HETATM   39  O2  UNL     1      21.220   5.297  23.437  1.00  0.00    -0.395 OA
ATOM     40  H2  UNL     1      22.000   5.791  23.213  1.00  0.00     0.210 HD
ENDBRANCH  34  39
ENDBRANCH  15  16
ENDBRANCH  14  15
ENDBRANCH  13  14
ENDBRANCH  12  13
ENDBRANCH  11  12
ENDBRANCH  10  11
ENDBRANCH   7  10
ENDBRANCH   5   6
BRANCH   5  41
HETATM   41  C25 UNL     1      17.915  -8.170  12.441  1.00  0.00     0.045 C 
BRANCH  41  42
HETATM   42  C26 UNL     1      16.605  -8.834  12.042  1.00  0.00     0.105 C 
BRANCH  42  43
HETATM   43  C27 UNL     1      16.340  -9.911  13.057  1.00  0.00     0.219 C 
HETATM   44  O6  UNL     1      16.569  -9.585  14.274  1.00  0.00    -0.273 OA
HETATM   45  N2  UNL     1      15.889 -11.170  12.700  1.00  0.00    -0.354 N 
HETATM   46  C28 UNL     1      15.772 -12.182  13.772  1.00  0.00     0.152 C 
BRANCH  45  47
HETATM   47  C29 UNL     1      15.474 -11.522  11.363  1.00  0.00     0.151 C 
BRANCH  47  48
HETATM   48  C30 UNL     1      15.474 -13.004  11.154  1.00  0.00     0.186 C 
BRANCH  48  49
HETATM   49  O7  UNL     1      14.207 -13.516  10.938  1.00  0.00    -0.394 OA
HETATM   50  C31 UNL     1      13.976 -14.747  11.478  1.00  0.00     0.201 C 
ENDBRANCH  48  49
ENDBRANCH  47  48
ENDBRANCH  45  47
ENDBRANCH  42  43
ENDBRANCH  41  42
ENDBRANCH   5  41
ENDBRANCH   1   5
TORSDOF 16
ENDMDL
MODEL 2
REMARK VINA RESULT: -8.669083902      4.296     12.554
REMARK  17 active torsions:
REMARK  status: ('A' for Active; 'I' for Inactive)
REMARK    1  A    between atoms: C3_3  and  O1_4 
REMARK    2  A    between atoms: C6_8  and  O2_9 
REMARK    3  A    between atoms: C17_22  and  O4_23 
REMARK    4  A    between atoms: O4_23  and  C18_24 
REMARK    5  A    between atoms: C18_24  and  C19_25 
REMARK    6  A    between atoms: C19_25  and  C20_26 
REMARK    7  A    between atoms: C20_26  and  C21_27 
REMARK    8  A    between atoms: C21_27  and  C22_28 
REMARK    9  A    between atoms: C22_28  and  C23_29 
REMARK       I    between atoms: C23_29  and  N1_31 
REMARK   10  A    between atoms: N1_31  and  C24_33 
REMARK   11  A    between atoms: C24_33  and  C25_34 
REMARK   12  A    between atoms: C24_33  and  C32_44 
REMARK   13  A    between atoms: C25_34  and  C26_35 
REMARK   14  A    between atoms: C26_35  and  C27_36 
REMARK       I    between atoms: C27_36  and  N2_38 
REMARK   15  A    between atoms: N2_38  and  C29_40 
REMARK   16  A    between atoms: C29_40  and  C30_41 
REMARK   17  A    between atoms: C30_41  and  O7_42 
ROOT
HETATM    1  C32 UNL     1      19.386   2.731  22.256  1.00  0.00     0.313 C 
HETATM    2  O8  UNL     1      18.560   1.807  22.227  1.00  0.00    -0.255 OA
HETATM    3  N3  UNL     1      20.014   3.167  23.433  1.00  0.00    -0.393 NA
HETATM    4  C33 UNL     1      20.608   3.580  24.548  1.00  0.00     0.233 C 
ENDROOT
BRANCH   1   5
HETATM    5  C24 UNL     1      19.654   3.341  20.843  1.00  0.00     0.192 C 
BRANCH   5   6
HETATM    6  N1  UNL     1      19.206   2.229  19.964  1.00  0.00    -0.347 N 
HETATM    7  C23 UNL     1      18.192   2.434  18.991  1.00  0.00     0.218 C 
HETATM    8  O5  UNL     1      17.667   3.565  18.921  1.00  0.00    -0.274 OA
ATOM      9  H1  UNL     1      19.633   1.308  20.060  1.00  0.00     0.163 HD
BRANCH   7  10
HETATM   10  C22 UNL     1      17.734   1.398  18.071  1.00  0.00     0.103 C 
BRANCH  10  11
HETATM   11  C21 UNL     1      17.445   0.047  18.679  1.00  0.00     0.009 C 
BRANCH  11  12
HETATM   12  C20 UNL     1      18.450  -0.975  18.178  1.00  0.00     0.002 C 
BRANCH  12  13
HETATM   13  C19 UNL     1      18.027  -1.354  16.755  1.00  0.00     0.026 C 
BRANCH  13  14
HETATM   14  C18 UNL     1      18.350  -2.809  16.502  1.00  0.00     0.168 C 
BRANCH  14  15
HETATM   15  O4  UNL     1      19.742  -3.029  16.740  1.00  0.00    -0.378 OA
BRANCH  15  16
HETATM   16  C17 UNL     1      20.311  -3.521  15.603  1.00  0.00     0.192 C 
HETATM   17  C16 UNL     1      21.722  -3.898  15.659  1.00  0.00     0.164 C 
HETATM   18  C14 UNL     1      21.965  -4.873  14.501  1.00  0.00     0.024 C 
HETATM   19  O3  UNL     1      22.573  -3.555  16.426  1.00  0.00    -0.294 OA
HETATM   20  C13 UNL     1      23.030  -5.792  14.912  1.00  0.00     0.018 C 
HETATM   21  C15 UNL     1      22.515  -3.985  13.379  1.00  0.00     0.024 C 
HETATM   22  C35 UNL     1      20.625  -5.403  14.154  1.00  0.00     0.013 C 
HETATM   23  C12 UNL     1      22.529  -7.184  15.242  1.00  0.00     0.007 C 
HETATM   24  C11 UNL     1      21.762  -7.610  13.985  1.00  0.00     0.007 C 
HETATM   25  C9  UNL     1      21.646  -9.087  13.882  1.00  0.00    -0.013 C 
HETATM   26  C36 UNL     1      20.475  -6.887  14.027  1.00  0.00     0.031 C 
HETATM   27  C4  UNL     1      20.766  -9.455  12.760  1.00  0.00    -0.035 C 
HETATM   28  C8  UNL     1      23.028  -9.656  13.623  1.00  0.00     0.016 C 
HETATM   29  C10 UNL     1      21.033  -9.707  15.128  1.00  0.00     0.020 C 
HETATM   30  C3  UNL     1      19.822  -8.587  12.306  1.00  0.00     0.074 C 
HETATM   31  C5  UNL     1      20.866 -10.751  12.081  1.00  0.00     0.069 C 
HETATM   32  C2  UNL     1      19.628  -7.287  12.898  1.00  0.00    -0.029 C 
HETATM   33  C1  UNL     1      18.669  -6.540  12.399  1.00  0.00     0.022 C 
HETATM   34  C6  UNL     1      22.231 -11.340  11.967  1.00  0.00     0.122 C 
HETATM   35  C7  UNL     1      23.061 -11.076  13.219  1.00  0.00     0.033 C 
HETATM   36  C34 UNL     1      19.653  -4.866  15.193  1.00  0.00     0.046 C 
BRANCH  30  37
HETATM   37  O1  UNL     1      19.039  -9.008  11.218  1.00  0.00    -0.360 OA
ATOM     38  H1  UNL     1      19.426  -9.137  10.360  1.00  0.00     0.217 HD
ENDBRANCH  30  37
BRANCH  34  39
HETATM   39  O2  UNL     1      22.096 -12.726  11.875  1.00  0.00    -0.395 OA
ATOM     40  H2  UNL     1      22.273 -13.096  12.732  1.00  0.00     0.210 HD
ENDBRANCH  34  39
ENDBRANCH  15  16
ENDBRANCH  14  15
ENDBRANCH  13  14
ENDBRANCH  12  13
ENDBRANCH  11  12
ENDBRANCH  10  11
ENDBRANCH   7  10
ENDBRANCH   5   6
BRANCH   5  41
HETATM   41  C25 UNL     1      21.128   3.421  20.703  1.00  0.00     0.045 C 
BRANCH  41  42
HETATM   42  C26 UNL     1      21.626   3.586  19.273  1.00  0.00     0.105 C 
BRANCH  42  43
HETATM   43  C27 UNL     1      23.063   3.147  19.263  1.00  0.00     0.219 C 
HETATM   44  O6  UNL     1      23.903   4.011  19.696  1.00  0.00    -0.273 OA
HETATM   45  N2  UNL     1      23.453   1.899  18.810  1.00  0.00    -0.354 N 
HETATM   46  C28 UNL     1      24.904   1.620  18.742  1.00  0.00     0.152 C 
BRANCH  45  47
HETATM   47  C29 UNL     1      22.526   0.848  18.462  1.00  0.00     0.151 C 
BRANCH  47  48
HETATM   48  C30 UNL     1      23.179  -0.219  17.642  1.00  0.00     0.186 C 
BRANCH  48  49
HETATM   49  O7  UNL     1      22.681  -0.286  16.352  1.00  0.00    -0.394 OA
HETATM   50  C31 UNL     1      21.386   0.115  16.206  1.00  0.00     0.201 C 
ENDBRANCH  48  49
ENDBRANCH  47  48
ENDBRANCH  45  47
ENDBRANCH  42  43
ENDBRANCH  41  42
ENDBRANCH   5  41
ENDBRANCH   1   5
TORSDOF 16
ENDMDL
MODEL 3
REMARK VINA RESULT: -8.637718343      2.291      3.263
REMARK  17 active torsions:
REMARK  status: ('A' for Active; 'I' for Inactive)
REMARK    1  A    between atoms: C3_3  and  O1_4 
REMARK    2  A    between atoms: C6_8  and  O2_9 
REMARK    3  A    between atoms: C17_22  and  O4_23 
REMARK    4  A    between atoms: O4_23  and  C18_24 
REMARK    5  A    between atoms: C18_24  and  C19_25 
REMARK    6  A    between atoms: C19_25  and  C20_26 
REMARK    7  A    between atoms: C20_26  and  C21_27 
REMARK    8  A    between atoms: C21_27  and  C22_28 
REMARK    9  A    between atoms: C22_28  and  C23_29 
REMARK       I    between atoms: C23_29  and  N1_31 
REMARK   10  A    between atoms: N1_31  and  C24_33 
REMARK   11  A    between atoms: C24_33  and  C25_34 
REMARK   12  A    between atoms: C24_33  and  C32_44 
REMARK   13  A    between atoms: C25_34  and  C26_35 
REMARK   14  A    between atoms: C26_35  and  C27_36 
REMARK       I    between atoms: C27_36  and  N2_38 
REMARK   15  A    between atoms: N2_38  and  C29_40 
REMARK   16  A    between atoms: C29_40  and  C30_41 
REMARK   17  A    between atoms: C30_41  and  O7_42 
ROOT
HETATM    1  C32 UNL     1      20.852  -5.278  14.241  1.00  0.00     0.313 C 
HETATM    2  O8  UNL     1      20.198  -4.251  14.008  1.00  0.00    -0.255 OA
HETATM    3  N3  UNL     1      21.965  -5.306  15.095  1.00  0.00    -0.393 NA
HETATM    4  C33 UNL     1      23.020  -5.331  15.904  1.00  0.00     0.233 C 
ENDROOT
BRANCH   1   5
HETATM    5  C24 UNL     1      20.293  -6.529  13.489  1.00  0.00     0.192 C 
BRANCH   5   6
HETATM    6  N1  UNL     1      18.885  -6.541  13.965  1.00  0.00    -0.347 N 
HETATM    7  C23 UNL     1      17.809  -6.354  13.057  1.00  0.00     0.218 C 
HETATM    8  O5  UNL     1      18.085  -6.147  11.856  1.00  0.00    -0.274 OA
ATOM      9  H1  UNL     1      18.689  -6.685  14.955  1.00  0.00     0.163 HD
BRANCH   7  10
HETATM   10  C22 UNL     1      16.405  -6.393  13.450  1.00  0.00     0.103 C 
BRANCH  10  11
HETATM   11  C21 UNL     1      16.055  -5.697  14.743  1.00  0.00     0.009 C 
BRANCH  11  12
HETATM   12  C20 UNL     1      15.916  -4.203  14.508  1.00  0.00     0.002 C 
BRANCH  12  13
HETATM   13  C19 UNL     1      17.059  -3.525  15.270  1.00  0.00     0.026 C 
BRANCH  13  14
HETATM   14  C18 UNL     1      17.100  -2.055  14.918  1.00  0.00     0.168 C 
BRANCH  14  15
HETATM   15  O4  UNL     1      18.460  -1.615  14.899  1.00  0.00    -0.378 OA
BRANCH  15  16
HETATM   16  C17 UNL     1      18.952  -1.650  16.168  1.00  0.00     0.192 C 
HETATM   17  C16 UNL     1      20.391  -1.462  16.343  1.00  0.00     0.164 C 
HETATM   18  C14 UNL     1      20.606  -1.020  17.795  1.00  0.00     0.024 C 
HETATM   19  O3  UNL     1      21.280  -1.606  15.556  1.00  0.00    -0.294 OA
HETATM   20  C13 UNL     1      21.791  -0.157  17.824  1.00  0.00     0.018 C 
HETATM   21  C15 UNL     1      20.950  -2.319  18.532  1.00  0.00     0.024 C 
HETATM   22  C35 UNL     1      19.295  -0.487  18.235  1.00  0.00     0.013 C 
HETATM   23  C12 UNL     1      21.463   1.310  18.013  1.00  0.00     0.007 C 
HETATM   24  C11 UNL     1      20.615   1.340  19.289  1.00  0.00     0.007 C 
HETATM   25  C9  UNL     1      20.630   2.679  19.933  1.00  0.00    -0.013 C 
HETATM   26  C36 UNL     1      19.274   0.852  18.902  1.00  0.00     0.031 C 
HETATM   27  C4  UNL     1      19.679   2.718  21.056  1.00  0.00    -0.035 C 
HETATM   28  C8  UNL     1      22.027   2.932  20.470  1.00  0.00     0.016 C 
HETATM   29  C10 UNL     1      20.211   3.784  18.978  1.00  0.00     0.020 C 
HETATM   30  C3  UNL     1      18.614   1.872  21.093  1.00  0.00     0.074 C 
HETATM   31  C5  UNL     1      19.832   3.650  22.178  1.00  0.00     0.069 C 
HETATM   32  C2  UNL     1      18.359   0.916  20.045  1.00  0.00    -0.029 C 
HETATM   33  C1  UNL     1      17.286   0.167  20.168  1.00  0.00     0.022 C 
HETATM   34  C6  UNL     1      21.228   3.978  22.587  1.00  0.00     0.122 C 
HETATM   35  C7  UNL     1      22.153   4.088  21.379  1.00  0.00     0.033 C 
HETATM   36  C34 UNL     1      18.387  -0.478  17.014  1.00  0.00     0.046 C 
BRANCH  30  37
HETATM   37  O1  UNL     1      17.767   1.961  22.211  1.00  0.00    -0.360 OA
ATOM     38  H1  UNL     1      17.496   2.805  22.552  1.00  0.00     0.217 HD
ENDBRANCH  30  37
BRANCH  34  39
HETATM   39  O2  UNL     1      21.218   5.239  23.185  1.00  0.00    -0.395 OA
ATOM     40  H2  UNL     1      21.848   5.231  23.896  1.00  0.00     0.210 HD
ENDBRANCH  34  39
ENDBRANCH  15  16
ENDBRANCH  14  15
ENDBRANCH  13  14
ENDBRANCH  12  13
ENDBRANCH  11  12
ENDBRANCH  10  11
ENDBRANCH   7  10
ENDBRANCH   5   6
BRANCH   5  41
HETATM   41  C25 UNL     1      20.954  -7.706  14.103  1.00  0.00     0.045 C 
BRANCH  41  42
HETATM   42  C26 UNL     1      21.667  -8.624  13.119  1.00  0.00     0.105 C 
BRANCH  42  43
HETATM   43  C27 UNL     1      20.658  -9.644  12.672  1.00  0.00     0.219 C 
HETATM   44  O6  UNL     1      19.973  -9.322  11.639  1.00  0.00    -0.273 OA
HETATM   45  N2  UNL     1      20.475 -10.845  13.336  1.00  0.00    -0.354 N 
HETATM   46  C28 UNL     1      19.376 -11.720  12.873  1.00  0.00     0.152 C 
BRANCH  45  47
HETATM   47  C29 UNL     1      21.328 -11.307  14.404  1.00  0.00     0.151 C 
BRANCH  47  48
HETATM   48  C30 UNL     1      20.674 -11.159  15.742  1.00  0.00     0.186 C 
BRANCH  48  49
HETATM   49  O7  UNL     1      21.428 -10.412  16.629  1.00  0.00    -0.394 OA
HETATM   50  C31 UNL     1      21.784 -11.056  17.777  1.00  0.00     0.201 C 
ENDBRANCH  48  49
ENDBRANCH  47  48
ENDBRANCH  45  47
ENDBRANCH  42  43
ENDBRANCH  41  42
ENDBRANCH   5  41
ENDBRANCH   1   5
TORSDOF 16
ENDMDL
MODEL 4
REMARK VINA RESULT: -8.603137393      1.344      1.888
REMARK  17 active torsions:
REMARK  status: ('A' for Active; 'I' for Inactive)
REMARK    1  A    between atoms: C3_3  and  O1_4 
REMARK    2  A    between atoms: C6_8  and  O2_9 
REMARK    3  A    between atoms: C17_22  and  O4_23 
REMARK    4  A    between atoms: O4_23  and  C18_24 
REMARK    5  A    between atoms: C18_24  and  C19_25 
REMARK    6  A    between atoms: C19_25  and  C20_26 
REMARK    7  A    between atoms: C20_26  and  C21_27 
REMARK    8  A    between atoms: C21_27  and  C22_28 
REMARK    9  A    between atoms: C22_28  and  C23_29 
REMARK       I    between atoms: C23_29  and  N1_31 
REMARK   10  A    between atoms: N1_31  and  C24_33 
REMARK   11  A    between atoms: C24_33  and  C25_34 
REMARK   12  A    between atoms: C24_33  and  C32_44 
REMARK   13  A    between atoms: C25_34  and  C26_35 
REMARK   14  A    between atoms: C26_35  and  C27_36 
REMARK       I    between atoms: C27_36  and  N2_38 
REMARK   15  A    between atoms: N2_38  and  C29_40 
REMARK   16  A    between atoms: C29_40  and  C30_41 
REMARK   17  A    between atoms: C30_41  and  O7_42 
ROOT
HETATM    1  C32 UNL     1      19.800  -6.188  12.076  1.00  0.00     0.313 C 
HETATM    2  O8  UNL     1      20.407  -6.215  10.995  1.00  0.00    -0.255 OA
HETATM    3  N3  UNL     1      20.400  -5.815  13.288  1.00  0.00    -0.393 NA
HETATM    4  C33 UNL     1      20.970  -5.462  14.437  1.00  0.00     0.233 C 
ENDROOT
BRANCH   1   5
HETATM    5  C24 UNL     1      18.300  -6.603  11.933  1.00  0.00     0.192 C 
BRANCH   5   6
HETATM    6  N1  UNL     1      17.723  -6.014  13.169  1.00  0.00    -0.347 N 
HETATM    7  C23 UNL     1      16.423  -5.442  13.164  1.00  0.00     0.218 C 
HETATM    8  O5  UNL     1      15.796  -5.420  12.083  1.00  0.00    -0.274 OA
ATOM      9  H1  UNL     1      18.267  -6.020  14.032  1.00  0.00     0.163 HD
BRANCH   7  10
HETATM   10  C22 UNL     1      15.782  -4.883  14.349  1.00  0.00     0.103 C 
BRANCH  10  11
HETATM   11  C21 UNL     1      16.068  -3.429  14.639  1.00  0.00     0.009 C 
BRANCH  11  12
HETATM   12  C20 UNL     1      16.970  -3.308  15.855  1.00  0.00     0.002 C 
BRANCH  12  13
HETATM   13  C19 UNL     1      18.406  -3.191  15.332  1.00  0.00     0.026 C 
BRANCH  13  14
HETATM   14  C18 UNL     1      18.472  -2.112  14.275  1.00  0.00     0.168 C 
BRANCH  14  15
HETATM   15  O4  UNL     1      19.584  -1.255  14.548  1.00  0.00    -0.378 OA
BRANCH  15  16
HETATM   16  C17 UNL     1      19.886  -1.335  15.874  1.00  0.00     0.192 C 
HETATM   17  C16 UNL     1      21.290  -1.209  16.259  1.00  0.00     0.164 C 
HETATM   18  C14 UNL     1      21.309  -0.803  17.737  1.00  0.00     0.024 C 
HETATM   19  O3  UNL     1      22.278  -1.374  15.604  1.00  0.00    -0.294 OA
HETATM   20  C13 UNL     1      22.510   0.009  17.957  1.00  0.00     0.018 C 
HETATM   21  C15 UNL     1      21.493  -2.129  18.484  1.00  0.00     0.024 C 
HETATM   22  C35 UNL     1      19.969  -0.225  17.996  1.00  0.00     0.013 C 
HETATM   23  C12 UNL     1      22.213   1.485  18.132  1.00  0.00     0.007 C 
HETATM   24  C11 UNL     1      21.191   1.526  19.274  1.00  0.00     0.007 C 
HETATM   25  C9  UNL     1      21.165   2.850  19.946  1.00  0.00    -0.013 C 
HETATM   26  C36 UNL     1      19.904   1.101  18.686  1.00  0.00     0.031 C 
HETATM   27  C4  UNL     1      20.063   2.908  20.921  1.00  0.00    -0.035 C 
HETATM   28  C8  UNL     1      22.477   3.036  20.684  1.00  0.00     0.016 C 
HETATM   29  C10 UNL     1      20.931   3.990  18.968  1.00  0.00     0.020 C 
HETATM   30  C3  UNL     1      18.973   2.106  20.784  1.00  0.00     0.074 C 
HETATM   31  C5  UNL     1      20.088   3.812  22.076  1.00  0.00     0.069 C 
HETATM   32  C2  UNL     1      18.835   1.181  19.687  1.00  0.00    -0.029 C 
HETATM   33  C1  UNL     1      17.728   0.474  19.636  1.00  0.00     0.022 C 
HETATM   34  C6  UNL     1      21.421   4.074  22.689  1.00  0.00     0.122 C 
HETATM   35  C7  UNL     1      22.515   4.168  21.630  1.00  0.00     0.033 C 
HETATM   36  C34 UNL     1      19.249  -0.156  16.658  1.00  0.00     0.046 C 
BRANCH  30  37
HETATM   37  O1  UNL     1      17.977   2.208  21.770  1.00  0.00    -0.360 OA
ATOM     38  H1  UNL     1      17.956   1.609  22.506  1.00  0.00     0.217 HD
ENDBRANCH  30  37
BRANCH  34  39
HETATM   39  O2  UNL     1      21.372   5.323  23.310  1.00  0.00    -0.395 OA
ATOM     40  H2  UNL     1      20.554   5.380  23.789  1.00  0.00     0.210 HD
ENDBRANCH  34  39
ENDBRANCH  15  16
ENDBRANCH  14  15
ENDBRANCH  13  14
ENDBRANCH  12  13
ENDBRANCH  11  12
ENDBRANCH  10  11
ENDBRANCH   7  10
ENDBRANCH   5   6
BRANCH   5  41
HETATM   41  C25 UNL     1      18.263  -8.075  12.111  1.00  0.00     0.045 C 
BRANCH  41  42
HETATM   42  C26 UNL     1      19.109  -8.600  13.262  1.00  0.00     0.105 C 
BRANCH  42  43
HETATM   43  C27 UNL     1      19.842  -9.806  12.744  1.00  0.00     0.219 C 
HETATM   44  O6  UNL     1      20.594  -9.596  11.729  1.00  0.00    -0.273 OA
HETATM   45  N2  UNL     1      19.708 -11.058  13.318  1.00  0.00    -0.354 N 
HETATM   46  C28 UNL     1      20.389 -12.190  12.655  1.00  0.00     0.152 C 
BRANCH  45  47
HETATM   47  C29 UNL     1      18.996 -11.301  14.550  1.00  0.00     0.151 C 
BRANCH  47  48
HETATM   48  C30 UNL     1      17.632 -11.864  14.301  1.00  0.00     0.186 C 
BRANCH  48  49
HETATM   49  O7  UNL     1      16.642 -10.897  14.309  1.00  0.00    -0.394 OA
HETATM   50  C31 UNL     1      15.884 -10.830  13.177  1.00  0.00     0.201 C 
ENDBRANCH  48  49
ENDBRANCH  47  48
ENDBRANCH  45  47
ENDBRANCH  42  43
ENDBRANCH  41  42
ENDBRANCH   5  41
ENDBRANCH   1   5
TORSDOF 16
ENDMDL
MODEL 5
REMARK VINA RESULT: -8.488152088      3.011     12.558
REMARK  17 active torsions:
REMARK  status: ('A' for Active; 'I' for Inactive)
REMARK    1  A    between atoms: C3_3  and  O1_4 
REMARK    2  A    between atoms: C6_8  and  O2_9 
REMARK    3  A    between atoms: C17_22  and  O4_23 
REMARK    4  A    between atoms: O4_23  and  C18_24 
REMARK    5  A    between atoms: C18_24  and  C19_25 
REMARK    6  A    between atoms: C19_25  and  C20_26 
REMARK    7  A    between atoms: C20_26  and  C21_27 
REMARK    8  A    between atoms: C21_27  and  C22_28 
REMARK    9  A    between atoms: C22_28  and  C23_29 
REMARK       I    between atoms: C23_29  and  N1_31 
REMARK   10  A    between atoms: N1_31  and  C24_33 
REMARK   11  A    between atoms: C24_33  and  C25_34 
REMARK   12  A    between atoms: C24_33  and  C32_44 
REMARK   13  A    between atoms: C25_34  and  C26_35 
REMARK   14  A    between atoms: C26_35  and  C27_36 
REMARK       I    between atoms: C27_36  and  N2_38 
REMARK   15  A    between atoms: N2_38  and  C29_40 
REMARK   16  A    between atoms: C29_40  and  C30_41 
REMARK   17  A    between atoms: C30_41  and  O7_42 
ROOT
HETATM    1  C32 UNL     1      17.779  -0.954  17.396  1.00  0.00     0.313 C 
HETATM    2  O8  UNL     1      17.582  -0.945  18.620  1.00  0.00    -0.255 OA
HETATM    3  N3  UNL     1      17.714  -2.117  16.613  1.00  0.00    -0.393 NA
HETATM    4  C33 UNL     1      17.652  -3.220  15.872  1.00  0.00     0.233 C 
ENDROOT
BRANCH   1   5
HETATM    5  C24 UNL     1      18.096   0.467  16.828  1.00  0.00     0.192 C 
BRANCH   5   6
HETATM    6  N1  UNL     1      19.553   0.566  17.107  1.00  0.00    -0.347 N 
HETATM    7  C23 UNL     1      20.508   0.164  16.136  1.00  0.00     0.218 C 
HETATM    8  O5  UNL     1      20.086  -0.304  15.058  1.00  0.00    -0.274 OA
ATOM      9  H1  UNL     1      19.870   0.927  18.007  1.00  0.00     0.163 HD
BRANCH   7  10
HETATM   10  C22 UNL     1      21.950   0.272  16.330  1.00  0.00     0.103 C 
BRANCH  10  11
HETATM   11  C21 UNL     1      22.462  -0.040  17.715  1.00  0.00     0.009 C 
BRANCH  11  12
HETATM   12  C20 UNL     1      22.111  -1.470  18.090  1.00  0.00     0.002 C 
BRANCH  12  13
HETATM   13  C19 UNL     1      22.535  -2.354  16.913  1.00  0.00     0.026 C 
BRANCH  13  14
HETATM   14  C18 UNL     1      21.486  -3.417  16.676  1.00  0.00     0.168 C 
BRANCH  14  15
HETATM   15  O4  UNL     1      22.132  -4.652  16.359  1.00  0.00    -0.378 OA
BRANCH  15  16
HETATM   16  C17 UNL     1      21.829  -4.990  15.074  1.00  0.00     0.192 C 
HETATM   17  C16 UNL     1      22.633  -6.032  14.439  1.00  0.00     0.164 C 
HETATM   18  C14 UNL     1      21.803  -6.584  13.275  1.00  0.00     0.024 C 
HETATM   19  O3  UNL     1      23.727  -6.428  14.719  1.00  0.00    -0.294 OA
HETATM   20  C13 UNL     1      22.167  -7.994  13.101  1.00  0.00     0.018 C 
HETATM   21  C15 UNL     1      22.314  -5.811  12.055  1.00  0.00     0.024 C 
HETATM   22  C35 UNL     1      20.402  -6.218  13.592  1.00  0.00     0.013 C 
HETATM   23  C12 UNL     1      21.101  -8.955  13.586  1.00  0.00     0.007 C 
HETATM   24  C11 UNL     1      19.839  -8.519  12.833  1.00  0.00     0.007 C 
HETATM   25  C9  UNL     1      18.837  -9.614  12.751  1.00  0.00    -0.013 C 
HETATM   26  C36 UNL     1      19.364  -7.292  13.505  1.00  0.00     0.031 C 
HETATM   27  C4  UNL     1      17.578  -9.115  12.172  1.00  0.00    -0.035 C 
HETATM   28  C8  UNL     1      19.391 -10.699  11.848  1.00  0.00     0.016 C 
HETATM   29  C10 UNL     1      18.486 -10.178  14.118  1.00  0.00     0.020 C 
HETATM   30  C3  UNL     1      17.254  -7.796  12.250  1.00  0.00     0.074 C 
HETATM   31  C5  UNL     1      16.629  -9.998  11.487  1.00  0.00     0.069 C 
HETATM   32  C2  UNL     1      18.107  -6.834  12.904  1.00  0.00    -0.029 C 
HETATM   33  C1  UNL     1      17.684  -5.591  12.945  1.00  0.00     0.022 C 
HETATM   34  C6  UNL     1      17.212 -11.135  10.719  1.00  0.00     0.122 C 
HETATM   35  C7  UNL     1      18.421 -11.731  11.433  1.00  0.00     0.033 C 
HETATM   36  C34 UNL     1      20.407  -5.606  14.984  1.00  0.00     0.046 C 
BRANCH  30  37
HETATM   37  O1  UNL     1      16.046  -7.399  11.653  1.00  0.00    -0.360 OA
ATOM     38  H1  UNL     1      15.827  -7.669  10.769  1.00  0.00     0.217 HD
ENDBRANCH  30  37
BRANCH  34  39
HETATM   39  O2  UNL     1      16.256 -12.150  10.659  1.00  0.00    -0.395 OA
ATOM     40  H2  UNL     1      16.556 -12.799  10.032  1.00  0.00     0.210 HD
ENDBRANCH  34  39
ENDBRANCH  15  16
ENDBRANCH  14  15
ENDBRANCH  13  14
ENDBRANCH  12  13
ENDBRANCH  11  12
ENDBRANCH  10  11
ENDBRANCH   7  10
ENDBRANCH   5   6
BRANCH   5  41
HETATM   41  C25 UNL     1      17.427   1.429  17.736  1.00  0.00     0.045 C 
BRANCH  41  42
HETATM   42  C26 UNL     1      18.272   2.635  18.123  1.00  0.00     0.105 C 
BRANCH  42  43
HETATM   43  C27 UNL     1      18.379   2.624  19.623  1.00  0.00     0.219 C 
HETATM   44  O6  UNL     1      17.267   2.524  20.251  1.00  0.00    -0.273 OA
HETATM   45  N2  UNL     1      19.593   2.723  20.280  1.00  0.00    -0.354 N 
HETATM   46  C28 UNL     1      19.565   2.816  21.755  1.00  0.00     0.152 C 
BRANCH  45  47
HETATM   47  C29 UNL     1      20.871   2.682  19.610  1.00  0.00     0.151 C 
BRANCH  47  48
HETATM   48  C30 UNL     1      21.659   3.933  19.840  1.00  0.00     0.186 C 
BRANCH  48  49
HETATM   49  O7  UNL     1      22.945   3.859  19.332  1.00  0.00    -0.394 OA
HETATM   50  C31 UNL     1      23.918   3.591  20.248  1.00  0.00     0.201 C 
ENDBRANCH  48  49
ENDBRANCH  47  48
ENDBRANCH  45  47
ENDBRANCH  42  43
ENDBRANCH  41  42
ENDBRANCH   5  41
ENDBRANCH   1   5
TORSDOF 16
ENDMDL
