MODEL 1
REMARK VINA RESULT: -8.866242833      0.000      0.000
REMARK  17 active torsions:
REMARK  status: ('A' for Active; 'I' for Inactive)
REMARK    1  A    between atoms: C2_2  and  N1_5 
REMARK       I    between atoms: N1_5  and  C5_7 
REMARK       I    between atoms: C5_7  and  N2_9 
REMARK    2  A    between atoms: N2_9  and  C6_11 
REMARK    3  A    between atoms: C6_11  and  C7_12 
REMARK    4  A    between atoms: C6_11  and  C10_17 
REMARK    5  A    between atoms: C7_12  and  C8_13 
REMARK    6  A    between atoms: C8_13  and  C9_14 
REMARK    7  A    between atoms: C10_17  and  O4_18 
REMARK    8  A    between atoms: C10_17  and  N3_20 
REMARK    9  A    between atoms: C14_24  and  C15_25 
REMARK       I    between atoms: C15_25  and  N4_27 
REMARK   10  A    between atoms: N4_27  and  C16_29 
REMARK   11  A    between atoms: C16_29  and  C17_30 
REMARK   12  A    between atoms: C16_29  and  C25_38 
REMARK   13  A    between atoms: C17_30  and  C18_31 
REMARK   14  A    between atoms: C25_38  and  N5_39 
REMARK   15  A    between atoms: N5_39  and  C26_40 
REMARK   16  A    between atoms: N5_39  and  S1_46 
REMARK   17  A    between atoms: C26_40  and  C27_41 
ROOT
HETATM    1  C15 UNL     1      23.383  29.020  12.728  1.00  0.00     0.241 C 
HETATM    2  O5  UNL     1      24.293  29.244  13.557  1.00  0.00    -0.271 OA
HETATM    3  N4  UNL     1      22.081  29.434  13.095  1.00  0.00    -0.353 N 
ATOM      4  H4  UNL     1      21.347  29.202  12.426  1.00  0.00     0.163 HD
ENDROOT
BRANCH   1   5
HETATM    5  C14 UNL     1      23.596  28.366  11.411  1.00  0.00     0.178 C 
HETATM    6  N3  UNL     1      23.373  26.905  11.473  1.00  0.00    -0.350 N 
HETATM    7  C11 UNL     1      24.630  26.399  11.917  1.00  0.00     0.126 C 
HETATM    8  C12 UNL     1      25.593  27.099  10.914  1.00  0.00     0.022 C 
HETATM    9  C13 UNL     1      25.021  28.482  10.928  1.00  0.00     0.037 C 
BRANCH   6  10
HETATM   10  C10 UNL     1      22.133  26.382  11.061  1.00  0.00     0.137 C 
BRANCH  10  11
HETATM   11  C6  UNL     1      21.222  26.397   9.964  1.00  0.00     0.161 C 
BRANCH  11  12
HETATM   12  N2  UNL     1      22.152  26.431   8.758  1.00  0.00    -0.331 N 
HETATM   13  C5  UNL     1      22.422  25.377   7.940  1.00  0.00     0.317 C 
HETATM   14  N1  UNL     1      23.275  25.363   6.818  1.00  0.00    -0.335 N 
HETATM   15  O1  UNL     1      21.837  24.256   8.204  1.00  0.00    -0.247 OA
ATOM     16  H1  UNL     1      23.773  26.222   6.584  1.00  0.00     0.165 HD
ATOM     17  H2  UNL     1      22.610  27.317   8.545  1.00  0.00     0.165 HD
BRANCH  14  18
HETATM   18  C2  UNL     1      23.484  24.209   5.983  1.00  0.00     0.023 C 
HETATM   19  C1  UNL     1      24.560  24.606   4.948  1.00  0.00     0.037 C 
HETATM   20  C3  UNL     1      24.016  23.021   6.723  1.00  0.00     0.037 C 
HETATM   21  C4  UNL     1      22.186  23.906   5.264  1.00  0.00     0.037 C 
ENDBRANCH  14  18
ENDBRANCH  11  12
BRANCH  11  22
HETATM   22  C7  UNL     1      20.180  27.373   9.677  1.00  0.00     0.044 C 
BRANCH  22  23
HETATM   23  C8  UNL     1      18.786  26.990   9.413  1.00  0.00     0.116 C 
BRANCH  23  24
HETATM   24  C9  UNL     1      18.531  25.529   9.571  1.00  0.00     0.172 C 
HETATM   25  O2  UNL     1      18.341  24.951  10.644  1.00  0.00    -0.648 OA
HETATM   26  O3  UNL     1      18.492  24.687   8.431  1.00  0.00    -0.648 OA
ENDBRANCH  23  24
ENDBRANCH  22  23
ENDBRANCH  11  22
ENDBRANCH  10  11
BRANCH  10  27
HETATM   27  O4  UNL     1      21.647  25.595  12.063  1.00  0.00    -0.348 OA
ATOM     28  H4  UNL     1      22.308  25.477  12.735  1.00  0.00     0.219 HD
ENDBRANCH  10  27
ENDBRANCH   6  10
ENDBRANCH   1   5
BRANCH   3  29
HETATM   29  C16 UNL     1      21.638  30.136  14.278  1.00  0.00     0.099 C 
BRANCH  29  30
HETATM   30  C17 UNL     1      21.825  31.585  14.020  1.00  0.00     0.031 C 
BRANCH  30  31
HETATM   31  C18 UNL     1      21.555  32.674  14.946  1.00  0.00    -0.013 C 
HETATM   32  C19 UNL     1      22.313  33.927  14.779  1.00  0.00     0.005 C 
HETATM   33  C20 UNL     1      21.381  35.110  15.078  1.00  0.00     0.000 C 
HETATM   34  C21 UNL     1      20.890  34.941  16.488  1.00  0.00     0.000 C 
HETATM   35  C22 UNL     1      21.969  34.484  17.401  1.00  0.00     0.000 C 
HETATM   36  C23 UNL     1      22.338  33.046  17.329  1.00  0.00     0.000 C 
HETATM   37  C24 UNL     1      21.552  32.191  16.406  1.00  0.00     0.005 C 
ENDBRANCH  30  31
ENDBRANCH  29  30
BRANCH  29  38
HETATM   38  C25 UNL     1      20.369  29.756  14.882  1.00  0.00     0.132 C 
BRANCH  38  39
HETATM   39  N5  UNL     1      19.143  30.214  14.171  1.00  0.00    -0.209 NA
BRANCH  39  40
HETATM   40  C26 UNL     1      18.252  30.569  15.278  1.00  0.00     0.112 C 
BRANCH  40  41
HETATM   41  C27 UNL     1      17.603  31.869  15.177  1.00  0.00    -0.000 C 
HETATM   42  C28 UNL     1      17.977  32.767  16.378  1.00  0.00     0.006 C 
HETATM   43  C29 UNL     1      17.154  34.005  15.967  1.00  0.00     0.000 C 
HETATM   44  C30 UNL     1      17.262  34.043  14.433  1.00  0.00     0.000 C 
HETATM   45  C31 UNL     1      18.060  32.779  14.067  1.00  0.00     0.006 C 
ENDBRANCH  40  41
ENDBRANCH  39  40
BRANCH  39  46
HETATM   46  S1  UNL     1      18.510  28.843  13.332  1.00  0.00     0.207 S 
HETATM   47  C32 UNL     1      17.548  29.340  11.947  1.00  0.00     0.180 C 
HETATM   48  O6  UNL     1      19.643  27.984  12.784  1.00  0.00    -0.212 OA
HETATM   49  O7  UNL     1      17.596  28.031  14.221  1.00  0.00    -0.212 OA
ENDBRANCH  39  46
ENDBRANCH  38  39
ENDBRANCH  29  38
ENDBRANCH   3  29
TORSDOF 17
ENDMDL
MODEL 2
REMARK VINA RESULT: -8.650802404      4.959     12.118
REMARK  17 active torsions:
REMARK  status: ('A' for Active; 'I' for Inactive)
REMARK    1  A    between atoms: C2_2  and  N1_5 
REMARK       I    between atoms: N1_5  and  C5_7 
REMARK       I    between atoms: C5_7  and  N2_9 
REMARK    2  A    between atoms: N2_9  and  C6_11 
REMARK    3  A    between atoms: C6_11  and  C7_12 
REMARK    4  A    between atoms: C6_11  and  C10_17 
REMARK    5  A    between atoms: C7_12  and  C8_13 
REMARK    6  A    between atoms: C8_13  and  C9_14 
REMARK    7  A    between atoms: C10_17  and  O4_18 
REMARK    8  A    between atoms: C10_17  and  N3_20 
REMARK    9  A    between atoms: C14_24  and  C15_25 
REMARK       I    between atoms: C15_25  and  N4_27 
REMARK   10  A    between atoms: N4_27  and  C16_29 
REMARK   11  A    between atoms: C16_29  and  C17_30 
REMARK   12  A    between atoms: C16_29  and  C25_38 
REMARK   13  A    between atoms: C17_30  and  C18_31 
REMARK   14  A    between atoms: C25_38  and  N5_39 
REMARK   15  A    between atoms: N5_39  and  C26_40 
REMARK   16  A    between atoms: N5_39  and  S1_46 
REMARK   17  A    between atoms: C26_40  and  C27_41 
ROOT
HETATM    1  C15 UNL     1      17.354  33.180  16.066  1.00  0.00     0.241 C 
HETATM    2  O5  UNL     1      16.464  32.309  16.178  1.00  0.00    -0.271 OA
HETATM    3  N4  UNL     1      18.629  32.727  15.653  1.00  0.00    -0.353 N 
ATOM      4  H4  UNL     1      19.353  33.445  15.610  1.00  0.00     0.163 HD
ENDROOT
BRANCH   1   5
HETATM    5  C14 UNL     1      17.146  34.628  16.329  1.00  0.00     0.178 C 
HETATM    6  N3  UNL     1      17.217  34.946  17.771  1.00  0.00    -0.350 N 
HETATM    7  C11 UNL     1      15.894  34.680  18.233  1.00  0.00     0.126 C 
HETATM    8  C12 UNL     1      15.059  35.487  17.195  1.00  0.00     0.022 C 
HETATM    9  C13 UNL     1      15.767  35.096  15.935  1.00  0.00     0.037 C 
BRANCH   6  10
HETATM   10  C10 UNL     1      18.418  35.452  18.305  1.00  0.00     0.137 C 
BRANCH  10  11
HETATM   11  C6  UNL     1      19.406  36.454  18.079  1.00  0.00     0.161 C 
BRANCH  11  12
HETATM   12  N2  UNL     1      18.658  37.477  17.235  1.00  0.00    -0.331 N 
HETATM   13  C5  UNL     1      18.305  38.728  17.641  1.00  0.00     0.317 C 
HETATM   14  N1  UNL     1      17.612  39.704  16.896  1.00  0.00    -0.335 N 
HETATM   15  O1  UNL     1      18.636  39.078  18.839  1.00  0.00    -0.247 OA
ATOM     16  H1  UNL     1      17.313  39.463  15.951  1.00  0.00     0.165 HD
ATOM     17  H2  UNL     1      18.401  37.204  16.287  1.00  0.00     0.165 HD
BRANCH  14  18
HETATM   18  C2  UNL     1      17.301  41.020  17.391  1.00  0.00     0.023 C 
HETATM   19  C1  UNL     1      16.548  41.748  16.256  1.00  0.00     0.037 C 
HETATM   20  C3  UNL     1      16.389  41.015  18.579  1.00  0.00     0.037 C 
HETATM   21  C4  UNL     1      18.605  41.739  17.669  1.00  0.00     0.037 C 
ENDBRANCH  14  18
ENDBRANCH  11  12
BRANCH  11  22
HETATM   22  C7  UNL     1      20.707  36.303  17.441  1.00  0.00     0.044 C 
BRANCH  22  23
HETATM   23  C8  UNL     1      21.394  37.414  16.767  1.00  0.00     0.116 C 
BRANCH  23  24
HETATM   24  C9  UNL     1      22.401  38.098  17.628  1.00  0.00     0.172 C 
HETATM   25  O2  UNL     1      23.625  38.026  17.489  1.00  0.00    -0.648 OA
HETATM   26  O3  UNL     1      21.977  38.911  18.710  1.00  0.00    -0.648 OA
ENDBRANCH  23  24
ENDBRANCH  22  23
ENDBRANCH  11  22
ENDBRANCH  10  11
BRANCH  10  27
HETATM   27  O4  UNL     1      18.731  34.725  19.415  1.00  0.00    -0.348 OA
ATOM     28  H4  UNL     1      19.004  35.303  20.118  1.00  0.00     0.219 HD
ENDBRANCH  10  27
ENDBRANCH   6  10
ENDBRANCH   1   5
BRANCH   3  29
HETATM   29  C16 UNL     1      19.058  31.397  15.283  1.00  0.00     0.099 C 
BRANCH  29  30
HETATM   30  C17 UNL     1      18.431  31.086  13.974  1.00  0.00     0.031 C 
BRANCH  30  31
HETATM   31  C18 UNL     1      18.569  29.851  13.218  1.00  0.00    -0.013 C 
HETATM   32  C19 UNL     1      17.704  29.662  12.041  1.00  0.00     0.005 C 
HETATM   33  C20 UNL     1      18.511  28.953  10.944  1.00  0.00     0.000 C 
HETATM   34  C21 UNL     1      18.971  27.641  11.512  1.00  0.00     0.000 C 
HETATM   35  C22 UNL     1      17.911  26.982  12.318  1.00  0.00     0.000 C 
HETATM   36  C23 UNL     1      17.680  27.522  13.683  1.00  0.00     0.000 C 
HETATM   37  C24 UNL     1      18.571  28.619  14.136  1.00  0.00     0.005 C 
ENDBRANCH  30  31
ENDBRANCH  29  30
BRANCH  29  38
HETATM   38  C25 UNL     1      20.468  31.057  15.409  1.00  0.00     0.132 C 
BRANCH  38  39
HETATM   39  N5  UNL     1      21.364  31.573  14.338  1.00  0.00    -0.209 NA
BRANCH  39  40
HETATM   40  C26 UNL     1      22.460  30.600  14.350  1.00  0.00     0.112 C 
BRANCH  40  41
HETATM   41  C27 UNL     1      22.961  30.196  13.044  1.00  0.00    -0.000 C 
HETATM   42  C28 UNL     1      24.108  29.169  13.187  1.00  0.00     0.006 C 
HETATM   43  C29 UNL     1      24.388  28.969  11.684  1.00  0.00     0.000 C 
HETATM   44  C30 UNL     1      23.001  29.049  11.023  1.00  0.00     0.000 C 
HETATM   45  C31 UNL     1      22.037  29.378  12.178  1.00  0.00     0.006 C 
ENDBRANCH  40  41
ENDBRANCH  39  40
BRANCH  39  46
HETATM   46  S1  UNL     1      21.946  33.110  14.869  1.00  0.00     0.207 S 
HETATM   47  C32 UNL     1      22.353  33.073  16.580  1.00  0.00     0.180 C 
HETATM   48  O6  UNL     1      23.226  33.480  14.131  1.00  0.00    -0.212 OA
HETATM   49  O7  UNL     1      20.894  34.182  14.701  1.00  0.00    -0.212 OA
ENDBRANCH  39  46
ENDBRANCH  38  39
ENDBRANCH  29  38
ENDBRANCH   3  29
TORSDOF 17
ENDMDL
MODEL 3
REMARK VINA RESULT: -8.546665567      4.507     11.901
REMARK  17 active torsions:
REMARK  status: ('A' for Active; 'I' for Inactive)
REMARK    1  A    between atoms: C2_2  and  N1_5 
REMARK       I    between atoms: N1_5  and  C5_7 
REMARK       I    between atoms: C5_7  and  N2_9 
REMARK    2  A    between atoms: N2_9  and  C6_11 
REMARK    3  A    between atoms: C6_11  and  C7_12 
REMARK    4  A    between atoms: C6_11  and  C10_17 
REMARK    5  A    between atoms: C7_12  and  C8_13 
REMARK    6  A    between atoms: C8_13  and  C9_14 
REMARK    7  A    between atoms: C10_17  and  O4_18 
REMARK    8  A    between atoms: C10_17  and  N3_20 
REMARK    9  A    between atoms: C14_24  and  C15_25 
REMARK       I    between atoms: C15_25  and  N4_27 
REMARK   10  A    between atoms: N4_27  and  C16_29 
REMARK   11  A    between atoms: C16_29  and  C17_30 
REMARK   12  A    between atoms: C16_29  and  C25_38 
REMARK   13  A    between atoms: C17_30  and  C18_31 
REMARK   14  A    between atoms: C25_38  and  N5_39 
REMARK   15  A    between atoms: N5_39  and  C26_40 
REMARK   16  A    between atoms: N5_39  and  S1_46 
REMARK   17  A    between atoms: C26_40  and  C27_41 
ROOT
HETATM    1  C15 UNL     1      18.017  32.525  15.478  1.00  0.00     0.241 C 
HETATM    2  O5  UNL     1      18.243  31.858  16.512  1.00  0.00    -0.271 OA
HETATM    3  N4  UNL     1      18.314  31.896  14.247  1.00  0.00    -0.353 N 
ATOM      4  H4  UNL     1      18.164  32.471  13.418  1.00  0.00     0.163 HD
ENDROOT
BRANCH   1   5
HETATM    5  C14 UNL     1      17.461  33.903  15.477  1.00  0.00     0.178 C 
HETATM    6  N3  UNL     1      16.294  34.033  16.377  1.00  0.00    -0.350 N 
HETATM    7  C11 UNL     1      15.204  33.602  15.566  1.00  0.00     0.126 C 
HETATM    8  C12 UNL     1      15.432  34.468  14.292  1.00  0.00     0.022 C 
HETATM    9  C13 UNL     1      16.911  34.306  14.131  1.00  0.00     0.037 C 
BRANCH   6  10
HETATM   10  C10 UNL     1      16.480  34.560  17.669  1.00  0.00     0.137 C 
BRANCH  10  11
HETATM   11  C6  UNL     1      17.360  35.392  18.421  1.00  0.00     0.161 C 
BRANCH  11  12
HETATM   12  N2  UNL     1      17.383  36.678  17.606  1.00  0.00    -0.331 N 
HETATM   13  C5  UNL     1      16.830  37.862  17.986  1.00  0.00     0.317 C 
HETATM   14  N1  UNL     1      16.825  39.073  17.264  1.00  0.00    -0.335 N 
HETATM   15  O1  UNL     1      16.242  37.902  19.135  1.00  0.00    -0.247 OA
ATOM     16  H1  UNL     1      17.262  39.084  16.342  1.00  0.00     0.165 HD
ATOM     17  H2  UNL     1      17.852  36.650  16.701  1.00  0.00     0.165 HD
BRANCH  14  18
HETATM   18  C2  UNL     1      16.242  40.296  17.751  1.00  0.00     0.023 C 
HETATM   19  C1  UNL     1      16.273  41.296  16.575  1.00  0.00     0.037 C 
HETATM   20  C3  UNL     1      14.807  40.156  18.159  1.00  0.00     0.037 C 
HETATM   21  C4  UNL     1      17.111  40.818  18.876  1.00  0.00     0.037 C 
ENDBRANCH  14  18
ENDBRANCH  11  12
BRANCH  11  22
HETATM   22  C7  UNL     1      18.748  35.135  18.779  1.00  0.00     0.044 C 
BRANCH  22  23
HETATM   23  C8  UNL     1      19.850  35.250  17.813  1.00  0.00     0.116 C 
BRANCH  23  24
HETATM   24  C9  UNL     1      20.718  36.442  18.041  1.00  0.00     0.172 C 
HETATM   25  O2  UNL     1      20.324  37.547  18.422  1.00  0.00    -0.648 OA
HETATM   26  O3  UNL     1      22.116  36.358  17.817  1.00  0.00    -0.648 OA
ENDBRANCH  23  24
ENDBRANCH  22  23
ENDBRANCH  11  22
ENDBRANCH  10  11
BRANCH  10  27
HETATM   27  O4  UNL     1      15.464  34.114  18.462  1.00  0.00    -0.348 OA
ATOM     28  H4  UNL     1      14.647  34.117  17.979  1.00  0.00     0.219 HD
ENDBRANCH  10  27
ENDBRANCH   6  10
ENDBRANCH   1   5
BRANCH   3  29
HETATM   29  C16 UNL     1      18.797  30.558  13.990  1.00  0.00     0.099 C 
BRANCH  29  30
HETATM   30  C17 UNL     1      18.606  30.296  12.542  1.00  0.00     0.031 C 
BRANCH  30  31
HETATM   31  C18 UNL     1      18.473  28.995  11.906  1.00  0.00    -0.013 C 
HETATM   32  C19 UNL     1      19.660  28.425  11.243  1.00  0.00     0.005 C 
HETATM   33  C20 UNL     1      19.680  26.909  11.486  1.00  0.00     0.000 C 
HETATM   34  C21 UNL     1      18.406  26.354  10.916  1.00  0.00     0.000 C 
HETATM   35  C22 UNL     1      18.059  26.981   9.615  1.00  0.00     0.000 C 
HETATM   36  C23 UNL     1      17.471  28.345   9.669  1.00  0.00     0.000 C 
HETATM   37  C24 UNL     1      17.224  28.923  11.013  1.00  0.00     0.005 C 
ENDBRANCH  30  31
ENDBRANCH  29  30
BRANCH  29  38
HETATM   38  C25 UNL     1      20.085  30.163  14.542  1.00  0.00     0.132 C 
BRANCH  38  39
HETATM   39  N5  UNL     1      21.284  30.547  13.748  1.00  0.00    -0.209 NA
BRANCH  39  40
HETATM   40  C26 UNL     1      22.268  29.542  14.158  1.00  0.00     0.112 C 
BRANCH  40  41
HETATM   41  C27 UNL     1      23.041  28.938  13.081  1.00  0.00    -0.000 C 
HETATM   42  C28 UNL     1      22.700  29.593  11.723  1.00  0.00     0.006 C 
HETATM   43  C29 UNL     1      23.652  28.752  10.849  1.00  0.00     0.000 C 
HETATM   44  C30 UNL     1      24.891  28.534  11.734  1.00  0.00     0.000 C 
HETATM   45  C31 UNL     1      24.527  29.187  13.081  1.00  0.00     0.006 C 
ENDBRANCH  40  41
ENDBRANCH  39  40
BRANCH  39  46
HETATM   46  S1  UNL     1      21.777  32.105  14.309  1.00  0.00     0.207 S 
HETATM   47  C32 UNL     1      21.776  32.172  16.066  1.00  0.00     0.180 C 
HETATM   48  O6  UNL     1      23.204  32.403  13.868  1.00  0.00    -0.212 OA
HETATM   49  O7  UNL     1      20.828  33.183  13.837  1.00  0.00    -0.212 OA
ENDBRANCH  39  46
ENDBRANCH  38  39
ENDBRANCH  29  38
ENDBRANCH   3  29
TORSDOF 17
ENDMDL
MODEL 4
REMARK VINA RESULT: -8.376357429      4.063     11.511
REMARK  17 active torsions:
REMARK  status: ('A' for Active; 'I' for Inactive)
REMARK    1  A    between atoms: C2_2  and  N1_5 
REMARK       I    between atoms: N1_5  and  C5_7 
REMARK       I    between atoms: C5_7  and  N2_9 
REMARK    2  A    between atoms: N2_9  and  C6_11 
REMARK    3  A    between atoms: C6_11  and  C7_12 
REMARK    4  A    between atoms: C6_11  and  C10_17 
REMARK    5  A    between atoms: C7_12  and  C8_13 
REMARK    6  A    between atoms: C8_13  and  C9_14 
REMARK    7  A    between atoms: C10_17  and  O4_18 
REMARK    8  A    between atoms: C10_17  and  N3_20 
REMARK    9  A    between atoms: C14_24  and  C15_25 
REMARK       I    between atoms: C15_25  and  N4_27 
REMARK   10  A    between atoms: N4_27  and  C16_29 
REMARK   11  A    between atoms: C16_29  and  C17_30 
REMARK   12  A    between atoms: C16_29  and  C25_38 
REMARK   13  A    between atoms: C17_30  and  C18_31 
REMARK   14  A    between atoms: C25_38  and  N5_39 
REMARK   15  A    between atoms: N5_39  and  C26_40 
REMARK   16  A    between atoms: N5_39  and  S1_46 
REMARK   17  A    between atoms: C26_40  and  C27_41 
ROOT
HETATM    1  C15 UNL     1      17.631  32.089  15.096  1.00  0.00     0.241 C 
HETATM    2  O5  UNL     1      17.381  31.262  16.001  1.00  0.00    -0.271 OA
HETATM    3  N4  UNL     1      18.251  31.580  13.932  1.00  0.00    -0.353 N 
ATOM      4  H4  UNL     1      18.487  32.277  13.225  1.00  0.00     0.163 HD
ENDROOT
BRANCH   1   5
HETATM    5  C14 UNL     1      17.312  33.539  15.178  1.00  0.00     0.178 C 
HETATM    6  N3  UNL     1      17.706  34.123  16.478  1.00  0.00    -0.350 N 
HETATM    7  C11 UNL     1      16.589  33.839  17.318  1.00  0.00     0.126 C 
HETATM    8  C12 UNL     1      15.422  34.369  16.434  1.00  0.00     0.022 C 
HETATM    9  C13 UNL     1      15.830  33.812  15.106  1.00  0.00     0.037 C 
BRANCH   6  10
HETATM   10  C10 UNL     1      18.928  34.815  16.578  1.00  0.00     0.137 C 
BRANCH  10  11
HETATM   11  C6  UNL     1      19.685  35.622  17.477  1.00  0.00     0.161 C 
BRANCH  11  12
HETATM   12  N2  UNL     1      19.443  37.029  16.948  1.00  0.00    -0.331 N 
HETATM   13  C5  UNL     1      18.461  37.873  17.371  1.00  0.00     0.317 C 
HETATM   14  N1  UNL     1      18.200  39.179  16.908  1.00  0.00    -0.335 N 
HETATM   15  O1  UNL     1      17.674  37.449  18.302  1.00  0.00    -0.247 OA
ATOM     16  H1  UNL     1      18.786  39.549  16.159  1.00  0.00     0.165 HD
ATOM     17  H2  UNL     1      20.067  37.368  16.216  1.00  0.00     0.165 HD
BRANCH  14  18
HETATM   18  C2  UNL     1      17.157  40.022  17.432  1.00  0.00     0.023 C 
HETATM   19  C1  UNL     1      16.992  41.187  16.432  1.00  0.00     0.037 C 
HETATM   20  C3  UNL     1      15.826  39.342  17.524  1.00  0.00     0.037 C 
HETATM   21  C4  UNL     1      17.617  40.569  18.767  1.00  0.00     0.037 C 
ENDBRANCH  14  18
ENDBRANCH  11  12
BRANCH  11  22
HETATM   22  C7  UNL     1      21.112  35.554  17.758  1.00  0.00     0.044 C 
BRANCH  22  23
HETATM   23  C8  UNL     1      22.099  36.385  17.054  1.00  0.00     0.116 C 
BRANCH  23  24
HETATM   24  C9  UNL     1      22.198  36.084  15.596  1.00  0.00     0.172 C 
HETATM   25  O2  UNL     1      21.756  36.795  14.691  1.00  0.00    -0.648 OA
HETATM   26  O3  UNL     1      22.841  34.899  15.157  1.00  0.00    -0.648 OA
ENDBRANCH  23  24
ENDBRANCH  22  23
ENDBRANCH  11  22
ENDBRANCH  10  11
BRANCH  10  27
HETATM   27  O4  UNL     1      19.610  34.648  15.409  1.00  0.00    -0.348 OA
ATOM     28  H4  UNL     1      19.273  33.895  14.938  1.00  0.00     0.219 HD
ENDBRANCH  10  27
ENDBRANCH   6  10
ENDBRANCH   1   5
BRANCH   3  29
HETATM   29  C16 UNL     1      18.600  30.218  13.595  1.00  0.00     0.099 C 
BRANCH  29  30
HETATM   30  C17 UNL     1      18.363  30.054  12.140  1.00  0.00     0.031 C 
BRANCH  30  31
HETATM   31  C18 UNL     1      18.219  28.799  11.419  1.00  0.00    -0.013 C 
HETATM   32  C19 UNL     1      19.407  28.252  10.740  1.00  0.00     0.005 C 
HETATM   33  C20 UNL     1      19.398  26.724  10.886  1.00  0.00     0.000 C 
HETATM   34  C21 UNL     1      18.125  26.228  10.262  1.00  0.00     0.000 C 
HETATM   35  C22 UNL     1      17.810  26.943   8.998  1.00  0.00     0.000 C 
HETATM   36  C23 UNL     1      17.244  28.311   9.130  1.00  0.00     0.000 C 
HETATM   37  C24 UNL     1      16.984  28.806  10.505  1.00  0.00     0.005 C 
ENDBRANCH  30  31
ENDBRANCH  29  30
BRANCH  29  38
HETATM   38  C25 UNL     1      19.851  29.672  14.101  1.00  0.00     0.132 C 
BRANCH  38  39
HETATM   39  N5  UNL     1      21.085  30.078  13.371  1.00  0.00    -0.209 NA
BRANCH  39  40
HETATM   40  C26 UNL     1      22.030  29.022  13.743  1.00  0.00     0.112 C 
BRANCH  40  41
HETATM   41  C27 UNL     1      22.892  28.540  12.672  1.00  0.00    -0.000 C 
HETATM   42  C28 UNL     1      22.641  29.328  11.366  1.00  0.00     0.006 C 
HETATM   43  C29 UNL     1      23.670  28.590  10.485  1.00  0.00     0.000 C 
HETATM   44  C30 UNL     1      24.843  28.294  11.435  1.00  0.00     0.000 C 
HETATM   45  C31 UNL     1      24.369  28.801  12.810  1.00  0.00     0.006 C 
ENDBRANCH  40  41
ENDBRANCH  39  40
BRANCH  39  46
HETATM   46  S1  UNL     1      21.595  31.581  14.051  1.00  0.00     0.207 S 
HETATM   47  C32 UNL     1      21.390  31.586  15.797  1.00  0.00     0.180 C 
HETATM   48  O6  UNL     1      23.080  31.806  13.792  1.00  0.00    -0.212 OA
HETATM   49  O7  UNL     1      20.772  32.731  13.518  1.00  0.00    -0.212 OA
ENDBRANCH  39  46
ENDBRANCH  38  39
ENDBRANCH  29  38
ENDBRANCH   3  29
TORSDOF 17
ENDMDL
MODEL 5
REMARK VINA RESULT: -8.370153989      4.714     11.279
REMARK  17 active torsions:
REMARK  status: ('A' for Active; 'I' for Inactive)
REMARK    1  A    between atoms: C2_2  and  N1_5 
REMARK       I    between atoms: N1_5  and  C5_7 
REMARK       I    between atoms: C5_7  and  N2_9 
REMARK    2  A    between atoms: N2_9  and  C6_11 
REMARK    3  A    between atoms: C6_11  and  C7_12 
REMARK    4  A    between atoms: C6_11  and  C10_17 
REMARK    5  A    between atoms: C7_12  and  C8_13 
REMARK    6  A    between atoms: C8_13  and  C9_14 
REMARK    7  A    between atoms: C10_17  and  O4_18 
REMARK    8  A    between atoms: C10_17  and  N3_20 
REMARK    9  A    between atoms: C14_24  and  C15_25 
REMARK       I    between atoms: C15_25  and  N4_27 
REMARK   10  A    between atoms: N4_27  and  C16_29 
REMARK   11  A    between atoms: C16_29  and  C17_30 
REMARK   12  A    between atoms: C16_29  and  C25_38 
REMARK   13  A    between atoms: C17_30  and  C18_31 
REMARK   14  A    between atoms: C25_38  and  N5_39 
REMARK   15  A    between atoms: N5_39  and  C26_40 
REMARK   16  A    between atoms: N5_39  and  S1_46 
REMARK   17  A    between atoms: C26_40  and  C27_41 
ROOT
HETATM    1  C15 UNL     1      20.102  32.961  15.977  1.00  0.00     0.241 C 
HETATM    2  O5  UNL     1      19.276  32.697  16.878  1.00  0.00    -0.271 OA
HETATM    3  N4  UNL     1      19.667  32.758  14.646  1.00  0.00    -0.353 N 
ATOM      4  H4  UNL     1      20.368  32.937  13.928  1.00  0.00     0.163 HD
ENDROOT
BRANCH   1   5
HETATM    5  C14 UNL     1      21.476  33.469  16.225  1.00  0.00     0.178 C 
HETATM    6  N3  UNL     1      21.577  34.928  16.009  1.00  0.00    -0.350 N 
HETATM    7  C11 UNL     1      21.799  35.039  14.605  1.00  0.00     0.126 C 
HETATM    8  C12 UNL     1      22.979  34.039  14.421  1.00  0.00     0.022 C 
HETATM    9  C13 UNL     1      22.488  32.901  15.259  1.00  0.00     0.037 C 
BRANCH   6  10
HETATM   10  C10 UNL     1      21.510  35.793  17.119  1.00  0.00     0.137 C 
BRANCH  10  11
HETATM   11  C6  UNL     1      21.498  37.177  17.457  1.00  0.00     0.161 C 
BRANCH  11  12
HETATM   12  N2  UNL     1      20.160  37.646  16.903  1.00  0.00    -0.331 N 
HETATM   13  C5  UNL     1      19.239  38.383  17.583  1.00  0.00     0.317 C 
HETATM   14  N1  UNL     1      17.990  38.836  17.111  1.00  0.00    -0.335 N 
HETATM   15  O1  UNL     1      19.526  38.719  18.795  1.00  0.00    -0.247 OA
ATOM     16  H1  UNL     1      17.713  38.577  16.163  1.00  0.00     0.165 HD
ATOM     17  H2  UNL     1      19.934  37.387  15.943  1.00  0.00     0.165 HD
BRANCH  14  18
HETATM   18  C2  UNL     1      17.082  39.641  17.886  1.00  0.00     0.023 C 
HETATM   19  C1  UNL     1      16.321  38.671  18.816  1.00  0.00     0.037 C 
HETATM   20  C3  UNL     1      17.769  40.635  18.771  1.00  0.00     0.037 C 
HETATM   21  C4  UNL     1      16.103  40.296  16.935  1.00  0.00     0.037 C 
ENDBRANCH  14  18
ENDBRANCH  11  12
BRANCH  11  22
HETATM   22  C7  UNL     1      22.458  38.203  17.070  1.00  0.00     0.044 C 
BRANCH  22  23
HETATM   23  C8  UNL     1      23.756  38.366  17.738  1.00  0.00     0.116 C 
BRANCH  23  24
HETATM   24  C9  UNL     1      23.645  38.877  19.136  1.00  0.00     0.172 C 
HETATM   25  O2  UNL     1      22.765  39.636  19.549  1.00  0.00    -0.648 OA
HETATM   26  O3  UNL     1      24.599  38.493  20.112  1.00  0.00    -0.648 OA
ENDBRANCH  23  24
ENDBRANCH  22  23
ENDBRANCH  11  22
ENDBRANCH  10  11
BRANCH  10  27
HETATM   27  O4  UNL     1      21.430  35.033  18.248  1.00  0.00    -0.348 OA
ATOM     28  H4  UNL     1      20.588  35.160  18.668  1.00  0.00     0.219 HD
ENDBRANCH  10  27
ENDBRANCH   6  10
ENDBRANCH   1   5
BRANCH   3  29
HETATM   29  C16 UNL     1      18.374  32.337  14.155  1.00  0.00     0.099 C 
BRANCH  29  30
HETATM   30  C17 UNL     1      17.550  33.560  13.990  1.00  0.00     0.031 C 
BRANCH  30  31
HETATM   31  C18 UNL     1      16.613  34.111  14.956  1.00  0.00    -0.013 C 
HETATM   32  C19 UNL     1      17.132  35.057  15.960  1.00  0.00     0.005 C 
HETATM   33  C20 UNL     1      16.081  36.152  16.195  1.00  0.00     0.000 C 
HETATM   34  C21 UNL     1      14.830  35.469  16.669  1.00  0.00     0.000 C 
HETATM   35  C22 UNL     1      15.122  34.380  17.636  1.00  0.00     0.000 C 
HETATM   36  C23 UNL     1      15.634  33.105  17.068  1.00  0.00     0.000 C 
HETATM   37  C24 UNL     1      15.740  33.017  15.590  1.00  0.00     0.005 C 
ENDBRANCH  30  31
ENDBRANCH  29  30
BRANCH  29  38
HETATM   38  C25 UNL     1      18.322  31.383  13.056  1.00  0.00     0.132 C 
BRANCH  38  39
HETATM   39  N5  UNL     1      19.204  30.190  13.182  1.00  0.00    -0.209 NA
BRANCH  39  40
HETATM   40  C26 UNL     1      20.234  30.453  12.175  1.00  0.00     0.112 C 
BRANCH  40  41
HETATM   41  C27 UNL     1      21.611  30.279  12.617  1.00  0.00    -0.000 C 
HETATM   42  C28 UNL     1      21.669  29.456  13.925  1.00  0.00     0.006 C 
HETATM   43  C29 UNL     1      23.201  29.464  14.100  1.00  0.00     0.000 C 
HETATM   44  C30 UNL     1      23.750  29.373  12.666  1.00  0.00     0.000 C 
HETATM   45  C31 UNL     1      22.500  29.409  11.767  1.00  0.00     0.006 C 
ENDBRANCH  40  41
ENDBRANCH  39  40
BRANCH  39  46
HETATM   46  S1  UNL     1      18.263  28.821  12.706  1.00  0.00     0.207 S 
HETATM   47  C32 UNL     1      19.216  27.708  11.734  1.00  0.00     0.180 C 
HETATM   48  O6  UNL     1      17.804  28.038  13.930  1.00  0.00    -0.212 OA
HETATM   49  O7  UNL     1      17.085  29.235  11.855  1.00  0.00    -0.212 OA
ENDBRANCH  39  46
ENDBRANCH  38  39
ENDBRANCH  29  38
ENDBRANCH   3  29
TORSDOF 17
ENDMDL
