MODEL 1
REMARK VINA RESULT: -9.575250230      0.000      0.000
REMARK  10 active torsions:
REMARK  status: ('A' for Active; 'I' for Inactive)
REMARK    1  A    between atoms: N1_2  and  C3_4 
REMARK    2  A    between atoms: N1_2  and  C5_10 
REMARK    3  A    between atoms: C3_4  and  C4_5 
REMARK    4  A    between atoms: C4_5  and  N2_6 
REMARK    5  A    between atoms: C5_10  and  C6_11 
REMARK    6  A    between atoms: C16_24  and  C17_25 
REMARK    7  A    between atoms: N5_27  and  O1_29 
REMARK    8  A    between atoms: C21_34  and  N6_35 
REMARK       I    between atoms: N6_35  and  C22_37 
REMARK    9  A    between atoms: C22_37  and  C23_39 
REMARK   10  A    between atoms: C23_39  and  C24_40 
ROOT
HETATM    1  C6  UNL     1      -8.146  15.674  24.327  1.00  0.00     0.010 C 
HETATM    2  C7  UNL     1      -7.171  16.760  24.907  1.00  0.00     0.244 C 
HETATM    3  N3  UNL     1      -7.973  17.618  25.722  1.00  0.00    -0.070 N 
ATOM      4  H31 UNL     1      -7.857  18.604  25.486  1.00  0.00     0.277 HD
ATOM      5  H32 UNL     1      -7.641  17.666  26.685  1.00  0.00     0.277 HD
HETATM    6  C8  UNL     1      -9.357  17.180  25.629  1.00  0.00     0.187 C 
HETATM    7  C9  UNL     1      -9.307  16.574  24.213  1.00  0.00     0.046 C 
HETATM    8  C10 UNL     1      -9.685  16.186  26.686  1.00  0.00     0.045 C 
HETATM    9  C11 UNL     1      -9.330  14.787  26.373  1.00  0.00    -0.013 C 
HETATM   10  C12 UNL     1     -10.503  14.169  25.563  1.00  0.00     0.016 C 
HETATM   11  C13 UNL     1     -10.736  12.703  25.947  1.00  0.00     0.040 C 
HETATM   12  C14 UNL     1     -11.304  12.824  27.339  1.00  0.00    -0.049 A 
HETATM   13  C15 UNL     1     -12.533  12.341  27.701  1.00  0.00     0.022 A 
HETATM   14  C16 UNL     1     -13.000  12.599  28.981  1.00  0.00     0.007 A 
HETATM   15  C18 UNL     1     -12.175  13.344  29.831  1.00  0.00     0.015 A 
HETATM   16  C19 UNL     1     -10.921  13.825  29.434  1.00  0.00     0.011 A 
HETATM   17  C20 UNL     1     -10.492  13.550  28.168  1.00  0.00    -0.028 A 
HETATM   18  C21 UNL     1      -9.148  13.986  27.637  1.00  0.00     0.127 C 
HETATM   19  C34 UNL     1      -8.169  14.642  25.426  1.00  0.00     0.025 C 
ENDROOT
BRANCH  18  20
HETATM   20  N6  UNL     1      -8.412  14.429  28.719  1.00  0.00    -0.352 N 
HETATM   21  C22 UNL     1      -7.680  15.519  29.200  1.00  0.00     0.218 C 
HETATM   22  O2  UNL     1      -7.500  16.551  28.551  1.00  0.00    -0.274 OA
ATOM     23  H6  UNL     1      -8.396  13.692  29.424  1.00  0.00     0.163 HD
BRANCH  21  24
HETATM   24  C23 UNL     1      -7.058  15.480  30.573  1.00  0.00     0.112 C 
BRANCH  24  25
HETATM   25  C24 UNL     1      -7.977  15.079  31.659  1.00  0.00    -0.031 C 
HETATM   26  C25 UNL     1      -7.538  15.934  32.876  1.00  0.00     0.014 C 
HETATM   27  C26 UNL     1      -8.429  15.756  34.048  1.00  0.00    -0.013 C 
HETATM   28  C27 UNL     1      -9.850  16.098  33.729  1.00  0.00     0.009 C 
HETATM   29  C31 UNL     1      -8.364  14.312  34.507  1.00  0.00     0.009 C 
HETATM   30  C28 UNL     1     -10.262  15.190  32.577  1.00  0.00    -0.013 C 
HETATM   31  C29 UNL     1     -10.171  13.741  32.944  1.00  0.00     0.009 C 
HETATM   32  C33 UNL     1      -9.409  15.539  31.410  1.00  0.00     0.014 C 
HETATM   33  C30 UNL     1      -8.741  13.446  33.347  1.00  0.00    -0.013 C 
HETATM   34  C32 UNL     1      -7.872  13.667  32.124  1.00  0.00     0.014 C 
ENDBRANCH  24  25
ENDBRANCH  21  24
ENDBRANCH  18  20
BRANCH   1  35
HETATM   35  C5  UNL     1      -7.472  15.263  23.090  1.00  0.00     0.247 C 
BRANCH  35  36
HETATM   36  N1  UNL     1      -7.948  15.440  21.799  1.00  0.00    -0.072 N 
HETATM   37  C1  UNL     1      -7.058  14.546  20.978  1.00  0.00     0.272 C 
HETATM   38  C2  UNL     1      -9.257  14.970  21.452  1.00  0.00     0.272 C 
BRANCH  36  39
HETATM   39  C3  UNL     1      -7.702  16.726  21.164  1.00  0.00     0.263 C 
BRANCH  39  40
HETATM   40  C4  UNL     1      -6.282  17.197  21.240  1.00  0.00     0.257 C 
BRANCH  40  41
HETATM   41  N2  UNL     1      -6.261  18.483  21.945  1.00  0.00    -0.078 N 
ATOM     42  H23 UNL     1      -6.977  18.547  22.669  1.00  0.00     0.274 HD
ATOM     43  H22 UNL     1      -5.445  18.587  22.548  1.00  0.00     0.274 HD
ATOM     44  H21 UNL     1      -6.335  19.229  21.252  1.00  0.00     0.274 HD
ENDBRANCH  40  41
ENDBRANCH  39  40
ENDBRANCH  36  39
ENDBRANCH  35  36
ENDBRANCH   1  35
BRANCH  14  45
HETATM   45  C17 UNL     1     -14.279  12.132  29.450  1.00  0.00     0.146 C 
HETATM   46  N4  UNL     1     -15.392  13.059  29.285  1.00  0.00    -0.080 NA
HETATM   47  N5  UNL     1     -14.564  11.048  29.974  1.00  0.00    -0.255 N 
ATOM     48  H5  UNL     1     -15.549  10.957  30.220  1.00  0.00     0.195 HD
BRANCH  47  49
HETATM   49  O1  UNL     1     -13.833   9.974  30.281  1.00  0.00    -0.288 OA
ATOM     50  H1  UNL     1     -13.933   9.050  30.082  1.00  0.00     0.244 HD
ENDBRANCH  47  49
ENDBRANCH  14  45
TORSDOF 10
ENDMDL
MODEL 2
REMARK VINA RESULT: -9.523367103      2.713      5.574
REMARK  10 active torsions:
REMARK  status: ('A' for Active; 'I' for Inactive)
REMARK    1  A    between atoms: N1_2  and  C3_4 
REMARK    2  A    between atoms: N1_2  and  C5_10 
REMARK    3  A    between atoms: C3_4  and  C4_5 
REMARK    4  A    between atoms: C4_5  and  N2_6 
REMARK    5  A    between atoms: C5_10  and  C6_11 
REMARK    6  A    between atoms: C16_24  and  C17_25 
REMARK    7  A    between atoms: N5_27  and  O1_29 
REMARK    8  A    between atoms: C21_34  and  N6_35 
REMARK       I    between atoms: N6_35  and  C22_37 
REMARK    9  A    between atoms: C22_37  and  C23_39 
REMARK   10  A    between atoms: C23_39  and  C24_40 
ROOT
HETATM    1  C6  UNL     1      -7.002  16.534  26.204  1.00  0.00     0.010 C 
HETATM    2  C7  UNL     1      -7.810  15.958  24.986  1.00  0.00     0.244 C 
HETATM    3  N3  UNL     1      -8.007  14.569  25.263  1.00  0.00    -0.070 N 
ATOM      4  H31 UNL     1      -7.713  13.970  24.492  1.00  0.00     0.277 HD
ATOM      5  H32 UNL     1      -8.993  14.308  25.274  1.00  0.00     0.277 HD
HETATM    6  C8  UNL     1      -7.330  14.248  26.511  1.00  0.00     0.187 C 
HETATM    7  C9  UNL     1      -6.217  15.311  26.444  1.00  0.00     0.046 C 
HETATM    8  C10 UNL     1      -8.236  14.413  27.679  1.00  0.00     0.045 C 
HETATM    9  C11 UNL     1      -8.340  15.788  28.210  1.00  0.00    -0.013 C 
HETATM   10  C12 UNL     1      -7.170  16.001  29.210  1.00  0.00     0.016 C 
HETATM   11  C13 UNL     1      -7.607  16.848  30.411  1.00  0.00     0.040 C 
HETATM   12  C14 UNL     1      -8.526  15.905  31.149  1.00  0.00    -0.049 A 
HETATM   13  C15 UNL     1      -8.324  15.511  32.445  1.00  0.00     0.022 A 
HETATM   14  C16 UNL     1      -9.171  14.560  32.992  1.00  0.00     0.007 A 
HETATM   15  C18 UNL     1     -10.191  14.059  32.175  1.00  0.00     0.015 A 
HETATM   16  C19 UNL     1     -10.375  14.481  30.853  1.00  0.00     0.011 A 
HETATM   17  C20 UNL     1      -9.524  15.421  30.347  1.00  0.00    -0.028 A 
HETATM   18  C21 UNL     1      -9.641  15.977  28.950  1.00  0.00     0.127 C 
HETATM   19  C34 UNL     1      -8.095  16.865  27.188  1.00  0.00     0.025 C 
ENDROOT
BRANCH  18  20
HETATM   20  N6  UNL     1     -10.864  15.569  28.454  1.00  0.00    -0.352 N 
HETATM   21  C22 UNL     1     -11.544  15.268  27.271  1.00  0.00     0.218 C 
HETATM   22  O2  UNL     1     -11.032  15.361  26.153  1.00  0.00    -0.274 OA
ATOM     23  H6  UNL     1     -11.504  15.440  29.238  1.00  0.00     0.163 HD
BRANCH  21  24
HETATM   24  C23 UNL     1     -12.979  14.804  27.307  1.00  0.00     0.112 C 
BRANCH  24  25
HETATM   25  C24 UNL     1     -13.193  13.501  27.971  1.00  0.00    -0.031 C 
HETATM   26  C25 UNL     1     -11.765  12.952  28.221  1.00  0.00     0.014 C 
HETATM   27  C26 UNL     1     -11.769  11.687  28.994  1.00  0.00    -0.013 C 
HETATM   28  C27 UNL     1     -12.445  11.842  30.320  1.00  0.00     0.009 C 
HETATM   29  C31 UNL     1     -12.493  10.619  28.197  1.00  0.00     0.009 C 
HETATM   30  C28 UNL     1     -13.864  12.316  30.026  1.00  0.00    -0.013 C 
HETATM   31  C29 UNL     1     -14.623  11.329  29.193  1.00  0.00     0.009 C 
HETATM   32  C33 UNL     1     -13.760  13.651  29.378  1.00  0.00     0.014 C 
HETATM   33  C30 UNL     1     -13.868  11.127  27.896  1.00  0.00    -0.013 C 
HETATM   34  C32 UNL     1     -13.871  12.451  27.159  1.00  0.00     0.014 C 
ENDBRANCH  24  25
ENDBRANCH  21  24
ENDBRANCH  18  20
BRANCH   1  35
HETATM   35  C5  UNL     1      -6.312  17.688  25.616  1.00  0.00     0.247 C 
BRANCH  35  36
HETATM   36  N1  UNL     1      -4.939  17.852  25.503  1.00  0.00    -0.072 N 
HETATM   37  C1  UNL     1      -4.809  19.168  24.783  1.00  0.00     0.272 C 
HETATM   38  C2  UNL     1      -4.148  18.067  26.679  1.00  0.00     0.272 C 
BRANCH  36  39
HETATM   39  C3  UNL     1      -4.232  16.970  24.587  1.00  0.00     0.263 C 
BRANCH  39  40
HETATM   40  C4  UNL     1      -2.911  16.478  25.092  1.00  0.00     0.257 C 
BRANCH  40  41
HETATM   41  N2  UNL     1      -2.560  15.261  24.352  1.00  0.00    -0.078 N 
ATOM     42  H23 UNL     1      -3.352  14.867  23.844  1.00  0.00     0.274 HD
ATOM     43  H22 UNL     1      -1.960  15.448  23.549  1.00  0.00     0.274 HD
ATOM     44  H21 UNL     1      -2.144  14.597  25.006  1.00  0.00     0.274 HD
ENDBRANCH  40  41
ENDBRANCH  39  40
ENDBRANCH  36  39
ENDBRANCH  35  36
ENDBRANCH   1  35
BRANCH  14  45
HETATM   45  C17 UNL     1      -9.036  14.085  34.344  1.00  0.00     0.146 C 
HETATM   46  N4  UNL     1      -8.331  14.973  35.261  1.00  0.00    -0.080 NA
HETATM   47  N5  UNL     1      -9.440  13.024  34.837  1.00  0.00    -0.255 N 
ATOM     48  H5  UNL     1      -9.217  12.921  35.827  1.00  0.00     0.195 HD
BRANCH  47  49
HETATM   49  O1  UNL     1     -10.109  11.988  34.326  1.00  0.00    -0.288 OA
ATOM     50  H1  UNL     1     -10.328  11.131  34.673  1.00  0.00     0.244 HD
ENDBRANCH  47  49
ENDBRANCH  14  45
TORSDOF 10
ENDMDL
MODEL 3
REMARK VINA RESULT: -9.260027467      2.569      9.753
REMARK  10 active torsions:
REMARK  status: ('A' for Active; 'I' for Inactive)
REMARK    1  A    between atoms: N1_2  and  C3_4 
REMARK    2  A    between atoms: N1_2  and  C5_10 
REMARK    3  A    between atoms: C3_4  and  C4_5 
REMARK    4  A    between atoms: C4_5  and  N2_6 
REMARK    5  A    between atoms: C5_10  and  C6_11 
REMARK    6  A    between atoms: C16_24  and  C17_25 
REMARK    7  A    between atoms: N5_27  and  O1_29 
REMARK    8  A    between atoms: C21_34  and  N6_35 
REMARK       I    between atoms: N6_35  and  C22_37 
REMARK    9  A    between atoms: C22_37  and  C23_39 
REMARK   10  A    between atoms: C23_39  and  C24_40 
ROOT
HETATM    1  C6  UNL     1      -9.468  14.947  29.798  1.00  0.00     0.010 C 
HETATM    2  C7  UNL     1     -10.897  14.686  29.201  1.00  0.00     0.244 C 
HETATM    3  N3  UNL     1     -11.187  15.805  28.362  1.00  0.00    -0.070 N 
ATOM      4  H31 UNL     1     -12.088  16.233  28.577  1.00  0.00     0.277 HD
ATOM      5  H32 UNL     1     -11.388  15.532  27.400  1.00  0.00     0.277 HD
HETATM    6  C8  UNL     1     -10.083  16.749  28.455  1.00  0.00     0.187 C 
HETATM    7  C9  UNL     1      -9.618  16.411  29.884  1.00  0.00     0.046 C 
HETATM    8  C10 UNL     1      -9.051  16.483  27.418  1.00  0.00     0.045 C 
HETATM    9  C11 UNL     1      -8.057  15.446  27.765  1.00  0.00    -0.013 C 
HETATM   10  C12 UNL     1      -6.924  16.128  28.580  1.00  0.00     0.016 C 
HETATM   11  C13 UNL     1      -5.551  15.543  28.227  1.00  0.00     0.040 C 
HETATM   12  C14 UNL     1      -5.333  16.064  26.828  1.00  0.00    -0.049 A 
HETATM   13  C15 UNL     1      -4.266  16.844  26.468  1.00  0.00     0.022 A 
HETATM   14  C16 UNL     1      -4.218  17.355  25.180  1.00  0.00     0.007 A 
HETATM   15  C18 UNL     1      -5.275  17.035  24.320  1.00  0.00     0.015 A 
HETATM   16  C19 UNL     1      -6.353  16.233  24.714  1.00  0.00     0.011 A 
HETATM   17  C20 UNL     1      -6.366  15.745  25.989  1.00  0.00    -0.028 A 
HETATM   18  C21 UNL     1      -7.455  14.846  26.519  1.00  0.00     0.127 C 
HETATM   19  C34 UNL     1      -8.564  14.402  28.723  1.00  0.00     0.025 C 
ENDROOT
BRANCH  18  20
HETATM   20  N6  UNL     1      -8.204  14.436  25.433  1.00  0.00    -0.352 N 
HETATM   21  C22 UNL     1      -9.517  14.276  24.980  1.00  0.00     0.218 C 
HETATM   22  O2  UNL     1     -10.507  14.523  25.672  1.00  0.00    -0.274 OA
ATOM     23  H6  UNL     1      -7.568  14.144  24.692  1.00  0.00     0.163 HD
BRANCH  21  24
HETATM   24  C23 UNL     1      -9.791  13.779  23.583  1.00  0.00     0.112 C 
BRANCH  24  25
HETATM   25  C24 UNL     1      -9.020  14.456  22.520  1.00  0.00    -0.031 C 
HETATM   26  C25 UNL     1      -9.948  14.416  21.279  1.00  0.00     0.014 C 
HETATM   27  C26 UNL     1      -9.388  15.160  20.125  1.00  0.00    -0.013 C 
HETATM   28  C27 UNL     1      -9.122  16.594  20.459  1.00  0.00     0.009 C 
HETATM   29  C31 UNL     1      -8.088  14.508  19.696  1.00  0.00     0.009 C 
HETATM   30  C28 UNL     1      -8.155  16.589  21.636  1.00  0.00    -0.013 C 
HETATM   31  C29 UNL     1      -6.863  15.911  21.299  1.00  0.00     0.009 C 
HETATM   32  C33 UNL     1      -8.855  15.949  22.782  1.00  0.00     0.014 C 
HETATM   33  C30 UNL     1      -7.174  14.488  20.881  1.00  0.00    -0.013 C 
HETATM   34  C32 UNL     1      -7.764  13.782  22.084  1.00  0.00     0.014 C 
ENDBRANCH  24  25
ENDBRANCH  21  24
ENDBRANCH  18  20
BRANCH   1  35
HETATM   35  C5  UNL     1      -9.495  14.181  31.049  1.00  0.00     0.247 C 
BRANCH  35  36
HETATM   36  N1  UNL     1      -9.428  14.702  32.332  1.00  0.00    -0.072 N 
HETATM   37  C1  UNL     1      -8.977  13.527  33.158  1.00  0.00     0.272 C 
HETATM   38  C2  UNL     1      -8.441  15.693  32.648  1.00  0.00     0.272 C 
BRANCH  36  39
HETATM   39  C3  UNL     1     -10.684  15.031  32.990  1.00  0.00     0.263 C 
BRANCH  39  40
HETATM   40  C4  UNL     1     -11.770  14.018  32.799  1.00  0.00     0.257 C 
BRANCH  40  41
HETATM   41  N2  UNL     1     -12.927  14.691  32.198  1.00  0.00    -0.078 N 
ATOM     42  H23 UNL     1     -13.524  15.141  32.891  1.00  0.00     0.274 HD
ATOM     43  H22 UNL     1     -12.667  15.527  31.675  1.00  0.00     0.274 HD
ATOM     44  H21 UNL     1     -13.431  14.012  31.627  1.00  0.00     0.274 HD
ENDBRANCH  40  41
ENDBRANCH  39  40
ENDBRANCH  36  39
ENDBRANCH  35  36
ENDBRANCH   1  35
BRANCH  14  45
HETATM   45  C17 UNL     1      -3.138  18.184  24.713  1.00  0.00     0.146 C 
HETATM   46  N4  UNL     1      -3.323  19.620  24.880  1.00  0.00    -0.080 NA
HETATM   47  N5  UNL     1      -2.070  17.843  24.188  1.00  0.00    -0.255 N 
ATOM     48  H5  UNL     1      -1.465  18.627  23.943  1.00  0.00     0.195 HD
BRANCH  47  49
HETATM   49  O1  UNL     1      -1.556  16.650  23.879  1.00  0.00    -0.288 OA
ATOM     50  H1  UNL     1      -1.522  16.156  23.068  1.00  0.00     0.244 HD
ENDBRANCH  47  49
ENDBRANCH  14  45
TORSDOF 10
ENDMDL
MODEL 4
REMARK VINA RESULT: -9.191638693      0.177      1.181
REMARK  10 active torsions:
REMARK  status: ('A' for Active; 'I' for Inactive)
REMARK    1  A    between atoms: N1_2  and  C3_4 
REMARK    2  A    between atoms: N1_2  and  C5_10 
REMARK    3  A    between atoms: C3_4  and  C4_5 
REMARK    4  A    between atoms: C4_5  and  N2_6 
REMARK    5  A    between atoms: C5_10  and  C6_11 
REMARK    6  A    between atoms: C16_24  and  C17_25 
REMARK    7  A    between atoms: N5_27  and  O1_29 
REMARK    8  A    between atoms: C21_34  and  N6_35 
REMARK       I    between atoms: N6_35  and  C22_37 
REMARK    9  A    between atoms: C22_37  and  C23_39 
REMARK   10  A    between atoms: C23_39  and  C24_40 
ROOT
HETATM    1  C6  UNL     1      -8.146  15.665  24.301  1.00  0.00     0.010 C 
HETATM    2  C7  UNL     1      -7.160  16.739  24.885  1.00  0.00     0.244 C 
HETATM    3  N3  UNL     1      -7.951  17.597  25.710  1.00  0.00    -0.070 N 
ATOM      4  H31 UNL     1      -7.829  18.584  25.481  1.00  0.00     0.277 HD
ATOM      5  H32 UNL     1      -7.615  17.635  26.672  1.00  0.00     0.277 HD
HETATM    6  C8  UNL     1      -9.340  17.170  25.620  1.00  0.00     0.187 C 
HETATM    7  C9  UNL     1      -9.301  16.575  24.200  1.00  0.00     0.046 C 
HETATM    8  C10 UNL     1      -9.671  16.171  26.671  1.00  0.00     0.045 C 
HETATM    9  C11 UNL     1      -9.328  14.771  26.345  1.00  0.00    -0.013 C 
HETATM   10  C12 UNL     1     -10.509  14.168  25.536  1.00  0.00     0.016 C 
HETATM   11  C13 UNL     1     -10.752  12.701  25.910  1.00  0.00     0.040 C 
HETATM   12  C14 UNL     1     -11.312  12.816  27.306  1.00  0.00    -0.049 A 
HETATM   13  C15 UNL     1     -12.543  12.340  27.670  1.00  0.00     0.022 A 
HETATM   14  C16 UNL     1     -13.003  12.592  28.954  1.00  0.00     0.007 A 
HETATM   15  C18 UNL     1     -12.168  13.324  29.805  1.00  0.00     0.015 A 
HETATM   16  C19 UNL     1     -10.912  13.799  29.407  1.00  0.00     0.011 A 
HETATM   17  C20 UNL     1     -10.490  13.530  28.137  1.00  0.00    -0.028 A 
HETATM   18  C21 UNL     1      -9.146  13.960  27.603  1.00  0.00     0.127 C 
HETATM   19  C34 UNL     1      -8.172  14.625  25.392  1.00  0.00     0.025 C 
ENDROOT
BRANCH  18  20
HETATM   20  N6  UNL     1      -8.402  14.388  28.685  1.00  0.00    -0.352 N 
HETATM   21  C22 UNL     1      -7.969  15.535  29.357  1.00  0.00     0.218 C 
HETATM   22  O2  UNL     1      -8.236  16.679  28.985  1.00  0.00    -0.274 OA
ATOM     23  H6  UNL     1      -8.032  13.570  29.169  1.00  0.00     0.163 HD
BRANCH  21  24
HETATM   24  C23 UNL     1      -7.130  15.421  30.606  1.00  0.00     0.112 C 
BRANCH  24  25
HETATM   25  C24 UNL     1      -7.893  15.172  31.846  1.00  0.00    -0.031 C 
HETATM   26  C25 UNL     1      -9.376  15.364  31.436  1.00  0.00     0.014 C 
HETATM   27  C26 UNL     1     -10.317  15.038  32.535  1.00  0.00    -0.013 C 
HETATM   28  C27 UNL     1     -10.148  13.632  33.020  1.00  0.00     0.009 C 
HETATM   29  C31 UNL     1     -10.077  15.987  33.693  1.00  0.00     0.009 C 
HETATM   30  C28 UNL     1      -8.699  13.507  33.476  1.00  0.00    -0.013 C 
HETATM   31  C29 UNL     1      -8.376  14.457  34.587  1.00  0.00     0.009 C 
HETATM   32  C33 UNL     1      -7.838  13.711  32.280  1.00  0.00     0.014 C 
HETATM   33  C30 UNL     1      -8.641  15.865  34.095  1.00  0.00    -0.013 C 
HETATM   34  C32 UNL     1      -7.674  16.137  32.960  1.00  0.00     0.014 C 
ENDBRANCH  24  25
ENDBRANCH  21  24
ENDBRANCH  18  20
BRANCH   1  35
HETATM   35  C5  UNL     1      -7.481  15.258  23.058  1.00  0.00     0.247 C 
BRANCH  35  36
HETATM   36  N1  UNL     1      -7.946  15.478  21.770  1.00  0.00    -0.072 N 
HETATM   37  C1  UNL     1      -7.076  14.580  20.932  1.00  0.00     0.272 C 
HETATM   38  C2  UNL     1      -9.265  15.050  21.406  1.00  0.00     0.272 C 
BRANCH  36  39
HETATM   39  C3  UNL     1      -7.664  16.771  21.165  1.00  0.00     0.263 C 
BRANCH  39  40
HETATM   40  C4  UNL     1      -6.234  17.206  21.264  1.00  0.00     0.257 C 
BRANCH  40  41
HETATM   41  N2  UNL     1      -6.194  18.502  21.950  1.00  0.00    -0.078 N 
ATOM     42  H23 UNL     1      -7.123  18.892  22.110  1.00  0.00     0.274 HD
ATOM     43  H22 UNL     1      -5.908  18.422  22.926  1.00  0.00     0.274 HD
ATOM     44  H21 UNL     1      -5.591  19.128  21.415  1.00  0.00     0.274 HD
ENDBRANCH  40  41
ENDBRANCH  39  40
ENDBRANCH  36  39
ENDBRANCH  35  36
ENDBRANCH   1  35
BRANCH  14  45
HETATM   45  C17 UNL     1     -14.283  12.131  29.425  1.00  0.00     0.146 C 
HETATM   46  N4  UNL     1     -15.394  13.060  29.253  1.00  0.00    -0.080 NA
HETATM   47  N5  UNL     1     -14.570  11.051  29.957  1.00  0.00    -0.255 N 
ATOM     48  H5  UNL     1     -15.556  10.965  30.203  1.00  0.00     0.195 HD
BRANCH  47  49
HETATM   49  O1  UNL     1     -13.842   9.977  30.271  1.00  0.00    -0.288 OA
ATOM     50  H1  UNL     1     -13.601   9.199  29.782  1.00  0.00     0.244 HD
ENDBRANCH  47  49
ENDBRANCH  14  45
TORSDOF 10
ENDMDL
MODEL 5
REMARK VINA RESULT: -9.154163274      2.722      5.681
REMARK  10 active torsions:
REMARK  status: ('A' for Active; 'I' for Inactive)
REMARK    1  A    between atoms: N1_2  and  C3_4 
REMARK    2  A    between atoms: N1_2  and  C5_10 
REMARK    3  A    between atoms: C3_4  and  C4_5 
REMARK    4  A    between atoms: C4_5  and  N2_6 
REMARK    5  A    between atoms: C5_10  and  C6_11 
REMARK    6  A    between atoms: C16_24  and  C17_25 
REMARK    7  A    between atoms: N5_27  and  O1_29 
REMARK    8  A    between atoms: C21_34  and  N6_35 
REMARK       I    between atoms: N6_35  and  C22_37 
REMARK    9  A    between atoms: C22_37  and  C23_39 
REMARK   10  A    between atoms: C23_39  and  C24_40 
ROOT
HETATM    1  C6  UNL     1      -6.924  16.592  26.215  1.00  0.00     0.010 C 
HETATM    2  C7  UNL     1      -7.691  15.972  24.992  1.00  0.00     0.244 C 
HETATM    3  N3  UNL     1      -7.835  14.580  25.279  1.00  0.00    -0.070 N 
ATOM      4  H31 UNL     1      -7.506  13.986  24.517  1.00  0.00     0.277 HD
ATOM      5  H32 UNL     1      -8.809  14.279  25.280  1.00  0.00     0.277 HD
HETATM    6  C8  UNL     1      -7.162  14.297  26.538  1.00  0.00     0.187 C 
HETATM    7  C9  UNL     1      -6.092  15.404  26.475  1.00  0.00     0.046 C 
HETATM    8  C10 UNL     1      -8.089  14.436  27.693  1.00  0.00     0.045 C 
HETATM    9  C11 UNL     1      -8.256  15.810  28.210  1.00  0.00    -0.013 C 
HETATM   10  C12 UNL     1      -7.109  16.079  29.223  1.00  0.00     0.016 C 
HETATM   11  C13 UNL     1      -7.596  16.918  30.410  1.00  0.00     0.040 C 
HETATM   12  C14 UNL     1      -8.485  15.945  31.145  1.00  0.00    -0.049 A 
HETATM   13  C15 UNL     1      -8.285  15.571  32.447  1.00  0.00     0.022 A 
HETATM   14  C16 UNL     1      -9.100  14.590  32.992  1.00  0.00     0.007 A 
HETATM   15  C18 UNL     1     -10.087  14.041  32.167  1.00  0.00     0.015 A 
HETATM   16  C19 UNL     1     -10.271  14.444  30.838  1.00  0.00     0.011 A 
HETATM   17  C20 UNL     1      -9.452  15.414  30.335  1.00  0.00    -0.028 A 
HETATM   18  C21 UNL     1      -9.573  15.952  28.931  1.00  0.00     0.127 C 
HETATM   19  C34 UNL     1      -8.042  16.887  27.181  1.00  0.00     0.025 C 
ENDROOT
BRANCH  18  20
HETATM   20  N6  UNL     1     -10.772  15.490  28.424  1.00  0.00    -0.352 N 
HETATM   21  C22 UNL     1     -11.456  15.238  27.231  1.00  0.00     0.218 C 
HETATM   22  O2  UNL     1     -10.980  15.467  26.117  1.00  0.00    -0.274 OA
ATOM     23  H6  UNL     1     -11.380  15.243  29.204  1.00  0.00     0.163 HD
BRANCH  21  24
HETATM   24  C23 UNL     1     -12.848  14.657  27.252  1.00  0.00     0.112 C 
BRANCH  24  25
HETATM   25  C24 UNL     1     -13.010  13.466  28.112  1.00  0.00    -0.031 C 
HETATM   26  C25 UNL     1     -13.708  12.422  27.203  1.00  0.00     0.014 C 
HETATM   27  C26 UNL     1     -13.855  11.101  27.862  1.00  0.00    -0.013 C 
HETATM   28  C27 UNL     1     -12.536  10.538  28.288  1.00  0.00     0.009 C 
HETATM   29  C31 UNL     1     -14.741  11.251  29.083  1.00  0.00     0.009 C 
HETATM   30  C28 UNL     1     -11.916  11.562  29.232  1.00  0.00    -0.013 C 
HETATM   31  C29 UNL     1     -12.768  11.799  30.440  1.00  0.00     0.009 C 
HETATM   32  C33 UNL     1     -11.679  12.802  28.446  1.00  0.00     0.014 C 
HETATM   33  C30 UNL     1     -14.124  12.284  29.972  1.00  0.00    -0.013 C 
HETATM   34  C32 UNL     1     -13.915  13.620  29.286  1.00  0.00     0.014 C 
ENDBRANCH  24  25
ENDBRANCH  21  24
ENDBRANCH  18  20
BRANCH   1  35
HETATM   35  C5  UNL     1      -6.274  17.768  25.625  1.00  0.00     0.247 C 
BRANCH  35  36
HETATM   36  N1  UNL     1      -4.909  17.956  25.464  1.00  0.00    -0.072 N 
HETATM   37  C1  UNL     1      -4.827  19.251  24.701  1.00  0.00     0.272 C 
HETATM   38  C2  UNL     1      -4.087  18.224  26.607  1.00  0.00     0.272 C 
BRANCH  36  39
HETATM   39  C3  UNL     1      -4.211  17.060  24.554  1.00  0.00     0.263 C 
BRANCH  39  40
HETATM   40  C4  UNL     1      -2.892  16.564  25.059  1.00  0.00     0.257 C 
BRANCH  40  41
HETATM   41  N2  UNL     1      -2.583  15.302  24.376  1.00  0.00    -0.078 N 
ATOM     42  H23 UNL     1      -3.404  14.710  24.253  1.00  0.00     0.274 HD
ATOM     43  H22 UNL     1      -2.359  15.434  23.390  1.00  0.00     0.274 HD
ATOM     44  H21 UNL     1      -1.835  14.835  24.889  1.00  0.00     0.274 HD
ENDBRANCH  40  41
ENDBRANCH  39  40
ENDBRANCH  36  39
ENDBRANCH  35  36
ENDBRANCH   1  35
BRANCH  14  45
HETATM   45  C17 UNL     1      -8.964  14.133  34.350  1.00  0.00     0.146 C 
HETATM   46  N4  UNL     1      -8.295  15.052  35.264  1.00  0.00    -0.080 NA
HETATM   47  N5  UNL     1      -9.338  13.065  34.850  1.00  0.00    -0.255 N 
ATOM     48  H5  UNL     1      -9.122  12.978  35.843  1.00  0.00     0.195 HD
BRANCH  47  49
HETATM   49  O1  UNL     1      -9.970  12.003  34.343  1.00  0.00    -0.288 OA
ATOM     50  H1  UNL     1     -10.890  11.810  34.202  1.00  0.00     0.244 HD
ENDBRANCH  47  49
ENDBRANCH  14  45
TORSDOF 10
ENDMDL
