MODEL 1
REMARK VINA RESULT: -5.855658000      0.000      0.000
REMARK  1 active torsions:
REMARK  status: ('A' for Active; 'I' for Inactive)
REMARK       I    between atoms: N2_4  and  C3_6 
REMARK    1  A    between atoms: C3_6  and  C4_8 
ROOT
HETATM    1  C1  UNL     1      56.206  22.443  25.337  1.00  0.00     0.085 C 
HETATM    2  C2  UNL     1      55.258  22.841  26.391  1.00  0.00     0.091 C 
HETATM    3  N1  UNL     1      55.724  23.167  27.677  1.00  0.00    -0.088 NA
HETATM    4  N2  UNL     1      54.009  22.887  26.127  1.00  0.00    -0.319 N 
ATOM      5  H2  UNL     1      53.683  22.649  25.190  1.00  0.00     0.169 HD
HETATM    6  C3  UNL     1      53.069  23.266  27.122  1.00  0.00     0.226 C 
HETATM    7  O1  UNL     1      53.088  24.468  27.500  1.00  0.00    -0.273 OA
ENDROOT
BRANCH   6   8
HETATM    8  C4  UNL     1      52.117  22.294  27.683  1.00  0.00     0.078 A 
HETATM    9  C5  UNL     1      52.299  21.911  29.143  1.00  0.00     0.015 A 
HETATM   10  C6  UNL     1      51.109  22.742  28.718  1.00  0.00     0.015 A 
ENDBRANCH   6   8
TORSDOF 1
ENDMDL
MODEL 2
REMARK VINA RESULT: -5.424565547      1.470      4.091
REMARK  1 active torsions:
REMARK  status: ('A' for Active; 'I' for Inactive)
REMARK       I    between atoms: N2_4  and  C3_6 
REMARK    1  A    between atoms: C3_6  and  C4_8 
ROOT
HETATM    1  C1  UNL     1      52.586  21.472  29.543  1.00  0.00     0.085 C 
HETATM    2  C2  UNL     1      53.040  22.380  28.476  1.00  0.00     0.091 C 
HETATM    3  N1  UNL     1      52.108  23.130  27.738  1.00  0.00    -0.088 NA
HETATM    4  N2  UNL     1      54.289  22.480  28.227  1.00  0.00    -0.319 N 
ATOM      5  H2  UNL     1      54.956  21.931  28.770  1.00  0.00     0.169 HD
HETATM    6  C3  UNL     1      54.759  23.345  27.205  1.00  0.00     0.226 C 
HETATM    7  O1  UNL     1      54.647  24.584  27.405  1.00  0.00    -0.273 OA
ENDROOT
BRANCH   6   8
HETATM    8  C4  UNL     1      55.353  22.814  25.967  1.00  0.00     0.078 A 
HETATM    9  C5  UNL     1      56.677  23.414  25.521  1.00  0.00     0.015 A 
HETATM   10  C6  UNL     1      56.623  21.994  26.036  1.00  0.00     0.015 A 
ENDBRANCH   6   8
TORSDOF 1
ENDMDL
MODEL 3
REMARK VINA RESULT: -5.413786114      3.788      5.504
REMARK  1 active torsions:
REMARK  status: ('A' for Active; 'I' for Inactive)
REMARK       I    between atoms: N2_4  and  C3_6 
REMARK    1  A    between atoms: C3_6  and  C4_8 
ROOT
HETATM    1  C1  UNL     1      49.449  22.204  32.934  1.00  0.00     0.085 C 
HETATM    2  C2  UNL     1      50.571  22.488  32.025  1.00  0.00     0.091 C 
HETATM    3  N1  UNL     1      51.229  23.730  32.076  1.00  0.00    -0.088 NA
HETATM    4  N2  UNL     1      50.943  21.597  31.189  1.00  0.00    -0.319 N 
ATOM      5  H2  UNL     1      50.459  20.699  31.161  1.00  0.00     0.169 HD
HETATM    6  C3  UNL     1      52.022  21.841  30.298  1.00  0.00     0.226 C 
HETATM    7  O1  UNL     1      53.174  21.923  30.802  1.00  0.00    -0.273 OA
ENDROOT
BRANCH   6   8
HETATM    8  C4  UNL     1      51.799  21.988  28.851  1.00  0.00     0.078 A 
HETATM    9  C5  UNL     1      51.314  23.343  28.359  1.00  0.00     0.015 A 
HETATM   10  C6  UNL     1      52.715  22.875  28.036  1.00  0.00     0.015 A 
ENDBRANCH   6   8
TORSDOF 1
ENDMDL
MODEL 4
REMARK VINA RESULT: -5.197926699      3.966      5.525
REMARK  1 active torsions:
REMARK  status: ('A' for Active; 'I' for Inactive)
REMARK       I    between atoms: N2_4  and  C3_6 
REMARK    1  A    between atoms: C3_6  and  C4_8 
ROOT
HETATM    1  C1  UNL     1      49.036  24.300  32.047  1.00  0.00     0.085 C 
HETATM    2  C2  UNL     1      50.282  23.590  31.717  1.00  0.00     0.091 C 
HETATM    3  N1  UNL     1      51.409  23.711  32.549  1.00  0.00    -0.088 NA
HETATM    4  N2  UNL     1      50.332  22.863  30.667  1.00  0.00    -0.319 N 
ATOM      5  H2  UNL     1      49.508  22.783  30.071  1.00  0.00     0.169 HD
HETATM    6  C3  UNL     1      51.520  22.167  30.321  1.00  0.00     0.226 C 
HETATM    7  O1  UNL     1      51.859  21.207  31.064  1.00  0.00    -0.273 OA
ENDROOT
BRANCH   6   8
HETATM    8  C4  UNL     1      52.314  22.550  29.143  1.00  0.00     0.078 A 
HETATM    9  C5  UNL     1      51.825  22.063  27.789  1.00  0.00     0.015 A 
HETATM   10  C6  UNL     1      51.746  23.531  28.141  1.00  0.00     0.015 A 
ENDBRANCH   6   8
TORSDOF 1
ENDMDL
MODEL 5
REMARK VINA RESULT: -5.173141187      1.805      4.069
REMARK  1 active torsions:
REMARK  status: ('A' for Active; 'I' for Inactive)
REMARK       I    between atoms: N2_4  and  C3_6 
REMARK    1  A    between atoms: C3_6  and  C4_8 
ROOT
HETATM    1  C1  UNL     1      50.797  23.450  29.026  1.00  0.00     0.085 C 
HETATM    2  C2  UNL     1      51.974  22.959  28.290  1.00  0.00     0.091 C 
HETATM    3  N1  UNL     1      52.411  21.633  28.455  1.00  0.00    -0.088 NA
HETATM    4  N2  UNL     1      52.595  23.749  27.502  1.00  0.00    -0.319 N 
ATOM      5  H2  UNL     1      52.268  24.709  27.390  1.00  0.00     0.169 HD
HETATM    6  C3  UNL     1      53.734  23.307  26.778  1.00  0.00     0.226 C 
HETATM    7  O1  UNL     1      53.540  22.461  25.864  1.00  0.00    -0.273 OA
ENDROOT
BRANCH   6   8
HETATM    8  C4  UNL     1      55.080  23.817  27.086  1.00  0.00     0.078 A 
HETATM    9  C5  UNL     1      56.189  22.790  27.248  1.00  0.00     0.015 A 
HETATM   10  C6  UNL     1      56.177  23.713  26.050  1.00  0.00     0.015 A 
ENDBRANCH   6   8
TORSDOF 1
ENDMDL
