MODEL 1
REMARK VINA RESULT: -5.150281993      0.000      0.000
REMARK  3 active torsions:
REMARK  status: ('A' for Active; 'I' for Inactive)
REMARK    1  A    between atoms: N1_2  and  C2_4 
REMARK    2  A    between atoms: C4_6  and  O1_7 
REMARK    3  A    between atoms: C6_11  and  N3_12 
ROOT
HETATM    1  C2  UNL     1      18.810  21.297  31.936  1.00  0.00     0.120 A 
HETATM    2  C3  UNL     1      17.877  22.334  31.836  1.00  0.00     0.105 A 
HETATM    3  C4  UNL     1      17.098  22.623  32.936  1.00  0.00     0.160 A 
HETATM    4  N2  UNL     1      17.244  21.913  34.074  1.00  0.00    -0.171 N 
ATOM      5  H2  UNL     1      16.660  22.138  34.879  1.00  0.00     0.186 HD
HETATM    6  C6  UNL     1      18.141  20.916  34.170  1.00  0.00     0.679 A 
HETATM    7  N4  UNL     1      18.897  20.638  33.099  1.00  0.00    -0.177 N 
ATOM      8  H4  UNL     1      19.578  19.882  33.174  1.00  0.00     0.185 HD
ENDROOT
BRANCH   1   9
HETATM    9  N1  UNL     1      19.550  21.011  30.918  1.00  0.00    -0.380 N 
HETATM   10  C1  UNL     1      20.984  21.178  31.061  1.00  0.00     0.147 C 
ATOM     11  H1  UNL     1      19.140  20.678  30.045  1.00  0.00     0.160 HD
ENDBRANCH   1   9
BRANCH   3  12
HETATM   12  O1  UNL     1      16.167  23.628  32.894  1.00  0.00    -0.340 OA
HETATM   13  C5  UNL     1      16.450  24.993  32.871  1.00  0.00     0.211 C 
ENDBRANCH   3  12
BRANCH   6  14
HETATM   14  N3  UNL     1      18.241  20.269  35.281  1.00  0.00    -0.234 N 
ATOM     15  H32 UNL     1      17.602  20.413  36.063  1.00  0.00     0.174 HD
ATOM     16  H31 UNL     1      18.988  19.583  35.388  1.00  0.00     0.174 HD
ENDBRANCH   6  14
TORSDOF 3
ENDMDL
MODEL 2
REMARK VINA RESULT: -4.701429772      1.656      3.572
REMARK  3 active torsions:
REMARK  status: ('A' for Active; 'I' for Inactive)
REMARK    1  A    between atoms: N1_2  and  C2_4 
REMARK    2  A    between atoms: C4_6  and  O1_7 
REMARK    3  A    between atoms: C6_11  and  N3_12 
ROOT
HETATM    1  C2  UNL     1      17.019  22.468  32.876  1.00  0.00     0.120 A 
HETATM    2  C3  UNL     1      17.905  22.169  31.835  1.00  0.00     0.105 A 
HETATM    3  C4  UNL     1      18.867  21.205  32.050  1.00  0.00     0.160 A 
HETATM    4  N2  UNL     1      18.940  20.574  33.240  1.00  0.00    -0.171 N 
ATOM      5  H2  UNL     1      19.657  19.864  33.385  1.00  0.00     0.186 HD
HETATM    6  C6  UNL     1      18.088  20.862  34.240  1.00  0.00     0.679 A 
HETATM    7  N4  UNL     1      17.154  21.799  34.028  1.00  0.00    -0.177 N 
ATOM      8  H4  UNL     1      16.508  22.015  34.788  1.00  0.00     0.185 HD
ENDROOT
BRANCH   1   9
HETATM    9  N1  UNL     1      16.112  23.366  32.696  1.00  0.00    -0.380 N 
HETATM   10  C1  UNL     1      16.547  24.745  32.567  1.00  0.00     0.147 C 
ATOM     11  H1  UNL     1      15.124  23.117  32.645  1.00  0.00     0.160 HD
ENDBRANCH   1   9
BRANCH   3  12
HETATM   12  O1  UNL     1      19.761  20.872  31.066  1.00  0.00    -0.340 OA
HETATM   13  C5  UNL     1      21.110  21.226  31.045  1.00  0.00     0.211 C 
ENDBRANCH   3  12
BRANCH   6  14
HETATM   14  N3  UNL     1      18.200  20.229  35.360  1.00  0.00    -0.234 N 
ATOM     15  H32 UNL     1      17.433  20.150  36.027  1.00  0.00     0.174 HD
ATOM     16  H31 UNL     1      19.090  19.788  35.591  1.00  0.00     0.174 HD
ENDBRANCH   6  14
TORSDOF 3
ENDMDL
MODEL 3
REMARK VINA RESULT: -4.278935919      7.576      8.236
REMARK  3 active torsions:
REMARK  status: ('A' for Active; 'I' for Inactive)
REMARK    1  A    between atoms: N1_2  and  C2_4 
REMARK    2  A    between atoms: C4_6  and  O1_7 
REMARK    3  A    between atoms: C6_11  and  N3_12 
ROOT
HETATM    1  C2  UNL     1      22.787  22.586  38.434  1.00  0.00     0.120 A 
HETATM    2  C3  UNL     1      23.539  21.499  37.977  1.00  0.00     0.105 A 
HETATM    3  C4  UNL     1      23.076  20.226  38.238  1.00  0.00     0.160 A 
HETATM    4  N2  UNL     1      21.925  20.051  38.919  1.00  0.00    -0.171 N 
ATOM      5  H2  UNL     1      21.595  19.104  39.105  1.00  0.00     0.186 HD
HETATM    6  C6  UNL     1      21.202  21.097  39.358  1.00  0.00     0.679 A 
HETATM    7  N4  UNL     1      21.655  22.333  39.102  1.00  0.00    -0.177 N 
ATOM      8  H4  UNL     1      21.104  23.125  39.435  1.00  0.00     0.185 HD
ENDROOT
BRANCH   1   9
HETATM    9  N1  UNL     1      23.202  23.785  38.200  1.00  0.00    -0.380 N 
HETATM   10  C1  UNL     1      22.319  24.882  38.548  1.00  0.00     0.147 C 
ATOM     11  H1  UNL     1      24.119  23.955  37.785  1.00  0.00     0.160 HD
ENDBRANCH   1   9
BRANCH   3  12
HETATM   12  O1  UNL     1      23.773  19.124  37.815  1.00  0.00    -0.340 OA
HETATM   13  C5  UNL     1      25.095  18.828  38.143  1.00  0.00     0.211 C 
ENDBRANCH   3  12
BRANCH   6  14
HETATM   14  N3  UNL     1      20.108  20.875  40.004  1.00  0.00    -0.234 N 
ATOM     15  H32 UNL     1      19.241  20.601  39.542  1.00  0.00     0.174 HD
ATOM     16  H31 UNL     1      20.104  20.976  41.019  1.00  0.00     0.174 HD
ENDBRANCH   6  14
TORSDOF 3
ENDMDL
MODEL 4
REMARK VINA RESULT: -3.463214338      2.287      4.415
REMARK  3 active torsions:
REMARK  status: ('A' for Active; 'I' for Inactive)
REMARK    1  A    between atoms: N1_2  and  C2_4 
REMARK    2  A    between atoms: C4_6  and  O1_7 
REMARK    3  A    between atoms: C6_11  and  N3_12 
ROOT
HETATM    1  C2  UNL     1      17.372  22.165  33.931  1.00  0.00     0.120 A 
HETATM    2  C3  UNL     1      18.356  21.316  33.415  1.00  0.00     0.105 A 
HETATM    3  C4  UNL     1      18.684  21.427  32.080  1.00  0.00     0.160 A 
HETATM    4  N2  UNL     1      18.062  22.338  31.304  1.00  0.00    -0.171 N 
ATOM      5  H2  UNL     1      18.314  22.409  30.318  1.00  0.00     0.186 HD
HETATM    6  C6  UNL     1      17.115  23.155  31.800  1.00  0.00     0.679 A 
HETATM    7  N4  UNL     1      16.799  23.044  33.098  1.00  0.00    -0.177 N 
ATOM      8  H4  UNL     1      16.082  23.665  33.473  1.00  0.00     0.185 HD
ENDROOT
BRANCH   1   9
HETATM    9  N1  UNL     1      17.050  22.077  35.177  1.00  0.00    -0.380 N 
HETATM   10  C1  UNL     1      16.570  23.279  35.833  1.00  0.00     0.147 C 
ATOM     11  H1  UNL     1      17.131  21.195  35.682  1.00  0.00     0.160 HD
ENDBRANCH   1   9
BRANCH   3  12
HETATM   12  O1  UNL     1      19.641  20.620  31.521  1.00  0.00    -0.340 OA
HETATM   13  C5  UNL     1      20.890  21.042  31.066  1.00  0.00     0.211 C 
ENDBRANCH   3  12
BRANCH   6  14
HETATM   14  N3  UNL     1      16.551  24.009  31.015  1.00  0.00    -0.234 N 
ATOM     15  H32 UNL     1      17.007  24.376  30.180  1.00  0.00     0.174 HD
ATOM     16  H31 UNL     1      15.609  24.334  31.234  1.00  0.00     0.174 HD
ENDBRANCH   6  14
TORSDOF 3
ENDMDL
MODEL 5
REMARK VINA RESULT: -3.429003747      7.411      7.565
REMARK  3 active torsions:
REMARK  status: ('A' for Active; 'I' for Inactive)
REMARK    1  A    between atoms: N1_2  and  C2_4 
REMARK    2  A    between atoms: C4_6  and  O1_7 
REMARK    3  A    between atoms: C6_11  and  N3_12 
ROOT
HETATM    1  C2  UNL     1      23.301  20.953  38.295  1.00  0.00     0.120 A 
HETATM    2  C3  UNL     1      23.426  22.331  38.090  1.00  0.00     0.105 A 
HETATM    3  C4  UNL     1      22.410  23.154  38.529  1.00  0.00     0.160 A 
HETATM    4  N2  UNL     1      21.329  22.627  39.141  1.00  0.00    -0.171 N 
ATOM      5  H2  UNL     1      20.585  23.248  39.460  1.00  0.00     0.186 HD
HETATM    6  C6  UNL     1      21.210  21.302  39.338  1.00  0.00     0.679 A 
HETATM    7  N4  UNL     1      22.199  20.505  38.911  1.00  0.00    -0.177 N 
ATOM      8  H4  UNL     1      22.107  19.501  39.063  1.00  0.00     0.185 HD
ENDROOT
BRANCH   1   9
HETATM    9  N1  UNL     1      24.240  20.166  37.892  1.00  0.00    -0.380 N 
HETATM   10  C1  UNL     1      23.989  18.738  37.946  1.00  0.00     0.147 C 
ATOM     11  H1  UNL     1      25.127  20.535  37.548  1.00  0.00     0.160 HD
ENDBRANCH   1   9
BRANCH   3  12
HETATM   12  O1  UNL     1      22.478  24.511  38.353  1.00  0.00    -0.340 OA
HETATM   13  C5  UNL     1      23.405  25.360  38.958  1.00  0.00     0.211 C 
ENDBRANCH   3  12
BRANCH   6  14
HETATM   14  N3  UNL     1      20.155  20.850  39.929  1.00  0.00    -0.234 N 
ATOM     15  H32 UNL     1      19.282  21.374  39.975  1.00  0.00     0.174 HD
ATOM     16  H31 UNL     1      20.191  19.930  40.368  1.00  0.00     0.174 HD
ENDBRANCH   6  14
TORSDOF 3
ENDMDL
