MODEL 1
REMARK VINA RESULT: -8.102880102      0.000      0.000
REMARK  6 active torsions:
REMARK  status: ('A' for Active; 'I' for Inactive)
REMARK    1  A    between atoms: C2_3  and  C3_4 
REMARK    2  A    between atoms: N3_7  and  C4_8 
REMARK    3  A    between atoms: C7_13  and  N5_14 
REMARK    4  A    between atoms: C8_17  and  N6_18 
REMARK    5  A    between atoms: C9_23  and  C10_24 
REMARK       I    between atoms: C10_24  and  N8_26 
REMARK    6  A    between atoms: N8_26  and  N9_28 
ROOT
HETATM    1  C3  UNL     1     116.237  56.504  20.085  1.00  0.00     0.130 A 
HETATM    2  N2  UNL     1     116.210  55.252  19.675  1.00  0.00    -0.288 N 
ATOM      3  H2  UNL     1     116.867  54.849  19.008  1.00  0.00     0.187 HD
HETATM    4  N3  UNL     1     115.205  54.575  20.252  1.00  0.00    -0.242 N 
HETATM    5  C7  UNL     1     114.569  55.415  21.052  1.00  0.00     0.154 A 
HETATM    6  C8  UNL     1     115.165  56.628  20.990  1.00  0.00     0.179 A 
ENDROOT
BRANCH   1   7
HETATM    7  C2  UNL     1     117.140  57.600  19.744  1.00  0.00     0.140 A 
HETATM    8  N1  UNL     1     117.328  58.246  18.597  1.00  0.00    -0.322 N 
HETATM    9  C1  UNL     1     116.633  57.989  17.344  1.00  0.00     0.159 C 
HETATM   10  C11 UNL     1     118.281  59.215  18.719  1.00  0.00     0.152 A 
HETATM   11  C9  UNL     1     118.701  59.157  20.026  1.00  0.00     0.145 A 
HETATM   12  N10 UNL     1     118.736  60.093  17.699  1.00  0.00    -0.080 NA
HETATM   13  N7  UNL     1     118.006  58.184  20.625  1.00  0.00    -0.333 N 
ATOM     14  H7  UNL     1     118.108  57.915  21.604  1.00  0.00     0.168 HD
BRANCH  11  15
HETATM   15  C10 UNL     1     119.719  60.016  20.608  1.00  0.00     0.289 C 
HETATM   16  O4  UNL     1     119.610  60.455  21.785  1.00  0.00    -0.264 OA
HETATM   17  N8  UNL     1     120.881  60.403  19.886  1.00  0.00    -0.271 N 
ATOM     18  H8  UNL     1     120.997  60.062  18.931  1.00  0.00     0.189 HD
BRANCH  17  19
HETATM   19  N9  UNL     1     121.868  61.225  20.424  1.00  0.00    -0.342 N 
ATOM     20  H92 UNL     1     121.902  61.317  21.440  1.00  0.00     0.176 HD
ATOM     21  H91 UNL     1     122.544  61.729  19.850  1.00  0.00     0.176 HD
ENDBRANCH  17  19
ENDBRANCH  11  15
ENDBRANCH   1   7
BRANCH   6  22
HETATM   22  N6  UNL     1     114.800  57.817  21.699  1.00  0.00    -0.109 N 
HETATM   23  O2  UNL     1     115.549  58.783  21.885  1.00  0.00    -0.532 OA
HETATM   24  O3  UNL     1     113.512  57.845  22.184  1.00  0.00    -0.532 OA
ENDBRANCH   6  22
BRANCH   4  25
HETATM   25  C4  UNL     1     114.961  53.213  19.980  1.00  0.00     0.272 C 
HETATM   26  C5  UNL     1     115.505  52.613  18.771  1.00  0.00     0.076 C 
HETATM   27  C6  UNL     1     114.527  51.523  18.448  1.00  0.00     0.147 C 
HETATM   28  N4  UNL     1     113.346  51.990  19.097  1.00  0.00    -0.099 NA
HETATM   29  O1  UNL     1     113.581  53.065  19.818  1.00  0.00    -0.259 OA
ENDBRANCH   4  25
BRANCH   5  30
HETATM   30  N5  UNL     1     113.544  55.108  21.770  1.00  0.00    -0.382 N 
ATOM     31  H52 UNL     1     113.564  54.634  22.673  1.00  0.00     0.157 HD
ATOM     32  H51 UNL     1     112.578  55.306  21.515  1.00  0.00     0.157 HD
ENDBRANCH   5  30
TORSDOF 6
ENDMDL
MODEL 2
REMARK VINA RESULT: -7.971547258      1.824      1.988
REMARK  6 active torsions:
REMARK  status: ('A' for Active; 'I' for Inactive)
REMARK    1  A    between atoms: C2_3  and  C3_4 
REMARK    2  A    between atoms: N3_7  and  C4_8 
REMARK    3  A    between atoms: C7_13  and  N5_14 
REMARK    4  A    between atoms: C8_17  and  N6_18 
REMARK    5  A    between atoms: C9_23  and  C10_24 
REMARK       I    between atoms: C10_24  and  N8_26 
REMARK    6  A    between atoms: N8_26  and  N9_28 
ROOT
HETATM    1  C3  UNL     1     116.572  55.452  19.594  1.00  0.00     0.130 A 
HETATM    2  N2  UNL     1     116.922  54.368  18.931  1.00  0.00    -0.288 N 
ATOM      3  H2  UNL     1     117.776  54.280  18.381  1.00  0.00     0.187 HD
HETATM    4  N3  UNL     1     116.008  53.397  19.073  1.00  0.00    -0.242 N 
HETATM    5  C7  UNL     1     115.045  53.868  19.848  1.00  0.00     0.154 A 
HETATM    6  C8  UNL     1     115.340  55.140  20.203  1.00  0.00     0.179 A 
ENDROOT
BRANCH   1   7
HETATM    7  C2  UNL     1     117.242  56.741  19.738  1.00  0.00     0.140 A 
HETATM    8  N1  UNL     1     117.362  57.758  18.889  1.00  0.00    -0.322 N 
HETATM    9  C1  UNL     1     116.818  57.818  17.541  1.00  0.00     0.159 C 
HETATM   10  C11 UNL     1     118.080  58.782  19.435  1.00  0.00     0.152 A 
HETATM   11  C9  UNL     1     118.418  58.363  20.699  1.00  0.00     0.145 A 
HETATM   12  N10 UNL     1     118.402  60.019  18.813  1.00  0.00    -0.080 NA
HETATM   13  N7  UNL     1     117.908  57.138  20.863  1.00  0.00    -0.333 N 
ATOM     14  H7  UNL     1     118.002  56.579  21.711  1.00  0.00     0.168 HD
BRANCH  11  15
HETATM   15  C10 UNL     1     119.193  59.144  21.650  1.00  0.00     0.289 C 
HETATM   16  O4  UNL     1     120.257  58.693  22.153  1.00  0.00    -0.264 OA
HETATM   17  N8  UNL     1     118.794  60.446  22.058  1.00  0.00    -0.271 N 
ATOM     18  H8  UNL     1     117.937  60.838  21.667  1.00  0.00     0.189 HD
BRANCH  17  19
HETATM   19  N9  UNL     1     119.521  61.210  22.968  1.00  0.00    -0.342 N 
ATOM     20  H92 UNL     1     120.445  61.534  22.679  1.00  0.00     0.176 HD
ATOM     21  H91 UNL     1     119.170  61.452  23.894  1.00  0.00     0.176 HD
ENDBRANCH  17  19
ENDBRANCH  11  15
ENDBRANCH   1   7
BRANCH   6  22
HETATM   22  N6  UNL     1     114.572  56.014  21.036  1.00  0.00    -0.109 N 
HETATM   23  O2  UNL     1     114.738  57.237  21.115  1.00  0.00    -0.532 OA
HETATM   24  O3  UNL     1     113.583  55.407  21.778  1.00  0.00    -0.532 OA
ENDBRANCH   6  22
BRANCH   4  25
HETATM   25  C4  UNL     1     116.150  52.134  18.461  1.00  0.00     0.272 C 
HETATM   26  C5  UNL     1     117.037  51.986  17.317  1.00  0.00     0.076 C 
HETATM   27  C6  UNL     1     116.425  50.859  16.540  1.00  0.00     0.147 C 
HETATM   28  N4  UNL     1     115.066  50.913  16.971  1.00  0.00    -0.099 NA
HETATM   29  O1  UNL     1     114.900  51.784  17.943  1.00  0.00    -0.259 OA
ENDBRANCH   4  25
BRANCH   5  30
HETATM   30  N5  UNL     1     113.997  53.205  20.199  1.00  0.00    -0.382 N 
ATOM     31  H52 UNL     1     113.843  52.760  21.103  1.00  0.00     0.157 HD
ATOM     32  H51 UNL     1     113.186  53.046  19.603  1.00  0.00     0.157 HD
ENDBRANCH   5  30
TORSDOF 6
ENDMDL
MODEL 3
REMARK VINA RESULT: -7.859666289      1.123      1.254
REMARK  6 active torsions:
REMARK  status: ('A' for Active; 'I' for Inactive)
REMARK    1  A    between atoms: C2_3  and  C3_4 
REMARK    2  A    between atoms: N3_7  and  C4_8 
REMARK    3  A    between atoms: C7_13  and  N5_14 
REMARK    4  A    between atoms: C8_17  and  N6_18 
REMARK    5  A    between atoms: C9_23  and  C10_24 
REMARK       I    between atoms: C10_24  and  N8_26 
REMARK    6  A    between atoms: N8_26  and  N9_28 
ROOT
HETATM    1  C3  UNL     1     116.423  56.944  19.604  1.00  0.00     0.130 A 
HETATM    2  N2  UNL     1     116.346  55.644  19.403  1.00  0.00    -0.288 N 
ATOM      3  H2  UNL     1     116.929  55.127  18.746  1.00  0.00     0.187 HD
HETATM    4  N3  UNL     1     115.400  55.090  20.177  1.00  0.00    -0.242 N 
HETATM    5  C7  UNL     1     114.855  56.059  20.893  1.00  0.00     0.154 A 
HETATM    6  C8  UNL     1     115.450  57.234  20.580  1.00  0.00     0.179 A 
ENDROOT
BRANCH   1   7
HETATM    7  C2  UNL     1     117.294  57.952  19.005  1.00  0.00     0.140 A 
HETATM    8  N1  UNL     1     117.349  58.425  17.763  1.00  0.00    -0.322 N 
HETATM    9  C1  UNL     1     116.502  58.019  16.652  1.00  0.00     0.159 C 
HETATM   10  C11 UNL     1     118.325  59.370  17.632  1.00  0.00     0.152 A 
HETATM   11  C9  UNL     1     118.901  59.481  18.874  1.00  0.00     0.145 A 
HETATM   12  N10 UNL     1     118.664  60.082  16.449  1.00  0.00    -0.080 NA
HETATM   13  N7  UNL     1     118.270  58.625  19.684  1.00  0.00    -0.333 N 
ATOM     14  H7  UNL     1     118.488  58.492  20.672  1.00  0.00     0.168 HD
BRANCH  11  15
HETATM   15  C10 UNL     1     119.996  60.380  19.202  1.00  0.00     0.289 C 
HETATM   16  O4  UNL     1     120.954  60.005  19.930  1.00  0.00    -0.264 OA
HETATM   17  N8  UNL     1     120.042  61.717  18.721  1.00  0.00    -0.271 N 
ATOM     18  H8  UNL     1     119.281  62.049  18.128  1.00  0.00     0.189 HD
BRANCH  17  19
HETATM   19  N9  UNL     1     121.081  62.595  19.024  1.00  0.00    -0.342 N 
ATOM     20  H92 UNL     1     121.790  62.275  19.683  1.00  0.00     0.176 HD
ATOM     21  H91 UNL     1     121.156  63.527  18.617  1.00  0.00     0.176 HD
ENDBRANCH  17  19
ENDBRANCH  11  15
ENDBRANCH   1   7
BRANCH   6  22
HETATM   22  N6  UNL     1     115.167  58.527  21.125  1.00  0.00    -0.109 N 
HETATM   23  O2  UNL     1     114.802  58.737  22.286  1.00  0.00    -0.532 OA
HETATM   24  O3  UNL     1     115.337  59.584  20.258  1.00  0.00    -0.532 OA
ENDBRANCH   6  22
BRANCH   4  25
HETATM   25  C4  UNL     1     115.121  53.708  20.151  1.00  0.00     0.272 C 
HETATM   26  C5  UNL     1     115.625  52.893  19.055  1.00  0.00     0.076 C 
HETATM   27  C6  UNL     1     114.617  51.789  18.945  1.00  0.00     0.147 C 
HETATM   28  N4  UNL     1     113.461  52.391  19.523  1.00  0.00    -0.099 NA
HETATM   29  O1  UNL     1     113.735  53.569  20.041  1.00  0.00    -0.259 OA
ENDBRANCH   4  25
BRANCH   5  30
HETATM   30  N5  UNL     1     113.907  55.892  21.750  1.00  0.00    -0.382 N 
ATOM     31  H52 UNL     1     113.172  55.187  21.702  1.00  0.00     0.157 HD
ATOM     32  H51 UNL     1     113.779  56.456  22.589  1.00  0.00     0.157 HD
ENDBRANCH   5  30
TORSDOF 6
ENDMDL
MODEL 4
REMARK VINA RESULT: -7.853575633      1.802      2.520
REMARK  6 active torsions:
REMARK  status: ('A' for Active; 'I' for Inactive)
REMARK    1  A    between atoms: C2_3  and  C3_4 
REMARK    2  A    between atoms: N3_7  and  C4_8 
REMARK    3  A    between atoms: C7_13  and  N5_14 
REMARK    4  A    between atoms: C8_17  and  N6_18 
REMARK    5  A    between atoms: C9_23  and  C10_24 
REMARK       I    between atoms: C10_24  and  N8_26 
REMARK    6  A    between atoms: N8_26  and  N9_28 
ROOT
HETATM    1  C3  UNL     1     116.654  56.846  19.698  1.00  0.00     0.130 A 
HETATM    2  N2  UNL     1     116.535  55.544  19.534  1.00  0.00    -0.288 N 
ATOM      3  H2  UNL     1     117.160  54.976  18.963  1.00  0.00     0.187 HD
HETATM    4  N3  UNL     1     115.486  55.063  20.218  1.00  0.00    -0.242 N 
HETATM    5  C7  UNL     1     114.914  56.083  20.837  1.00  0.00     0.154 A 
HETATM    6  C8  UNL     1     115.596  57.217  20.552  1.00  0.00     0.179 A 
ENDROOT
BRANCH   1   7
HETATM    7  C2  UNL     1     117.631  57.791  19.164  1.00  0.00     0.140 A 
HETATM    8  N1  UNL     1     118.647  58.416  19.753  1.00  0.00    -0.322 N 
HETATM    9  C1  UNL     1     119.037  58.290  21.149  1.00  0.00     0.159 C 
HETATM   10  C11 UNL     1     119.313  59.222  18.877  1.00  0.00     0.152 A 
HETATM   11  C9  UNL     1     118.662  59.079  17.676  1.00  0.00     0.145 A 
HETATM   12  N10 UNL     1     120.443  60.035  19.162  1.00  0.00    -0.080 NA
HETATM   13  N7  UNL     1     117.657  58.217  17.867  1.00  0.00    -0.333 N 
ATOM     14  H7  UNL     1     117.001  57.920  17.144  1.00  0.00     0.168 HD
BRANCH  11  15
HETATM   15  C10 UNL     1     119.033  59.761  16.446  1.00  0.00     0.289 C 
HETATM   16  O4  UNL     1     118.171  60.049  15.572  1.00  0.00    -0.264 OA
HETATM   17  N8  UNL     1     120.376  60.135  16.169  1.00  0.00    -0.271 N 
ATOM     18  H8  UNL     1     121.096  59.916  16.857  1.00  0.00     0.189 HD
BRANCH  17  19
HETATM   19  N9  UNL     1     120.753  60.788  14.997  1.00  0.00    -0.342 N 
ATOM     20  H92 UNL     1     120.075  61.421  14.572  1.00  0.00     0.176 HD
ATOM     21  H91 UNL     1     121.664  60.658  14.559  1.00  0.00     0.176 HD
ENDBRANCH  17  19
ENDBRANCH  11  15
ENDBRANCH   1   7
BRANCH   6  22
HETATM   22  N6  UNL     1     115.319  58.542  21.017  1.00  0.00    -0.109 N 
HETATM   23  O2  UNL     1     115.479  59.570  20.350  1.00  0.00    -0.532 OA
HETATM   24  O3  UNL     1     114.835  58.628  22.303  1.00  0.00    -0.532 OA
ENDBRANCH   6  22
BRANCH   4  25
HETATM   25  C4  UNL     1     115.145  53.695  20.209  1.00  0.00     0.272 C 
HETATM   26  C5  UNL     1     115.652  52.835  19.150  1.00  0.00     0.076 C 
HETATM   27  C6  UNL     1     114.599  51.775  19.022  1.00  0.00     0.147 C 
HETATM   28  N4  UNL     1     113.451  52.442  19.541  1.00  0.00    -0.099 NA
HETATM   29  O1  UNL     1     113.759  53.617  20.047  1.00  0.00    -0.259 OA
ENDBRANCH   4  25
BRANCH   5  30
HETATM   30  N5  UNL     1     113.873  55.992  21.590  1.00  0.00    -0.382 N 
ATOM     31  H52 UNL     1     113.027  55.461  21.383  1.00  0.00     0.157 HD
ATOM     32  H51 UNL     1     113.771  56.448  22.496  1.00  0.00     0.157 HD
ENDBRANCH   5  30
TORSDOF 6
ENDMDL
MODEL 5
REMARK VINA RESULT: -7.690500491      2.676      7.789
REMARK  6 active torsions:
REMARK  status: ('A' for Active; 'I' for Inactive)
REMARK    1  A    between atoms: C2_3  and  C3_4 
REMARK    2  A    between atoms: N3_7  and  C4_8 
REMARK    3  A    between atoms: C7_13  and  N5_14 
REMARK    4  A    between atoms: C8_17  and  N6_18 
REMARK    5  A    between atoms: C9_23  and  C10_24 
REMARK       I    between atoms: C10_24  and  N8_26 
REMARK    6  A    between atoms: N8_26  and  N9_28 
ROOT
HETATM    1  C3  UNL     1     117.260  55.757  19.211  1.00  0.00     0.130 A 
HETATM    2  N2  UNL     1     117.656  56.334  20.327  1.00  0.00    -0.288 N 
ATOM      3  H2  UNL     1     117.471  55.970  21.261  1.00  0.00     0.187 HD
HETATM    4  N3  UNL     1     118.335  57.464  20.074  1.00  0.00    -0.242 N 
HETATM    5  C7  UNL     1     118.375  57.617  18.761  1.00  0.00     0.154 A 
HETATM    6  C8  UNL     1     117.724  56.587  18.171  1.00  0.00     0.179 A 
ENDROOT
BRANCH   1   7
HETATM    7  C2  UNL     1     116.507  54.526  18.987  1.00  0.00     0.140 A 
HETATM    8  N1  UNL     1     115.455  54.023  19.626  1.00  0.00    -0.322 N 
HETATM    9  C1  UNL     1     114.773  54.625  20.761  1.00  0.00     0.159 C 
HETATM   10  C11 UNL     1     115.063  52.833  19.085  1.00  0.00     0.152 A 
HETATM   11  C9  UNL     1     115.933  52.595  18.048  1.00  0.00     0.145 A 
HETATM   12  N10 UNL     1     113.979  52.020  19.514  1.00  0.00    -0.080 NA
HETATM   13  N7  UNL     1     116.792  53.620  18.005  1.00  0.00    -0.333 N 
ATOM     14  H7  UNL     1     117.552  53.712  17.332  1.00  0.00     0.168 HD
BRANCH  11  15
HETATM   15  C10 UNL     1     115.891  51.428  17.183  1.00  0.00     0.289 C 
HETATM   16  O4  UNL     1     116.877  51.110  16.464  1.00  0.00    -0.264 OA
HETATM   17  N8  UNL     1     114.745  50.589  17.105  1.00  0.00    -0.271 N 
ATOM     18  H8  UNL     1     113.932  50.820  17.675  1.00  0.00     0.189 HD
BRANCH  17  19
HETATM   19  N9  UNL     1     114.684  49.467  16.282  1.00  0.00    -0.342 N 
ATOM     20  H92 UNL     1     115.567  49.074  15.955  1.00  0.00     0.176 HD
ATOM     21  H91 UNL     1     113.805  49.033  16.001  1.00  0.00     0.176 HD
ENDBRANCH  17  19
ENDBRANCH  11  15
ENDBRANCH   1   7
BRANCH   6  22
HETATM   22  N6  UNL     1     117.536  56.361  16.770  1.00  0.00    -0.109 N 
HETATM   23  O2  UNL     1     118.010  55.408  16.142  1.00  0.00    -0.532 OA
HETATM   24  O3  UNL     1     116.759  57.293  16.120  1.00  0.00    -0.532 OA
ENDBRANCH   6  22
BRANCH   4  25
HETATM   25  C4  UNL     1     118.867  58.268  21.102  1.00  0.00     0.272 C 
HETATM   26  C5  UNL     1     118.214  59.523  21.445  1.00  0.00     0.076 C 
HETATM   27  C6  UNL     1     119.336  60.376  21.958  1.00  0.00     0.147 C 
HETATM   28  N4  UNL     1     120.467  59.776  21.331  1.00  0.00    -0.099 NA
HETATM   29  O1  UNL     1     120.141  58.672  20.693  1.00  0.00    -0.259 OA
ENDBRANCH   4  25
BRANCH   5  30
HETATM   30  N5  UNL     1     118.949  58.599  18.156  1.00  0.00    -0.382 N 
ATOM     31  H52 UNL     1     119.922  58.631  17.851  1.00  0.00     0.157 HD
ATOM     32  H51 UNL     1     118.489  59.473  17.905  1.00  0.00     0.157 HD
ENDBRANCH   5  30
TORSDOF 6
ENDMDL
