MODEL 1
REMARK VINA RESULT: -6.522366923      0.000      0.000
REMARK  6 active torsions:
REMARK  status: ('A' for Active; 'I' for Inactive)
REMARK    1  A    between atoms: C2_2  and  N1_4 
REMARK    2  A    between atoms: C2_2  and  C11_33 
REMARK    3  A    between atoms: N1_4  and  C4_6 
REMARK    4  A    between atoms: C5_9  and  N3_10 
REMARK    5  A    between atoms: C7_19  and  N8_20 
REMARK    6  A    between atoms: C10_27  and  N11_28 
ROOT
HETATM    1  C4  UNL     1       8.038 -26.711 -24.119  1.00  0.00     0.682 A 
HETATM    2  N2  UNL     1       7.245 -27.828 -24.216  1.00  0.00    -0.174 N 
ATOM      3  H2  UNL     1       6.232 -27.716 -24.176  1.00  0.00     0.186 HD
HETATM    4  C5  UNL     1       7.749 -29.058 -24.359  1.00  0.00     0.155 A 
HETATM    5  C7  UNL     1       9.118 -29.246 -24.417  1.00  0.00     0.130 A 
HETATM    6  C10 UNL     1       9.892 -28.117 -24.320  1.00  0.00     0.146 A 
HETATM    7  N12 UNL     1       9.366 -26.881 -24.174  1.00  0.00    -0.175 N 
ATOM      8  H12 UNL     1       9.983 -26.072 -24.106  1.00  0.00     0.186 HD
ENDROOT
BRANCH   4   9
HETATM    9  N3  UNL     1       6.908 -30.180 -24.453  1.00  0.00    -0.310 N 
HETATM   10  C6  UNL     1       6.111 -30.444 -25.420  1.00  0.00     0.211 C 
HETATM   11  N4  UNL     1       5.239 -31.552 -25.575  1.00  0.00    -0.256 N 
HETATM   12  N7  UNL     1       5.920 -29.659 -26.585  1.00  0.00    -0.256 N 
HETATM   13  N5  UNL     1       4.939 -31.662 -26.932  1.00  0.00    -0.006 NA
ATOM     14  H4  UNL     1       4.895 -32.157 -24.829  1.00  0.00     0.187 HD
HETATM   15  N6  UNL     1       5.134 -30.385 -27.448  1.00  0.00    -0.006 NA
ATOM     16  H7  UNL     1       6.298 -28.726 -26.752  1.00  0.00     0.187 HD
ATOM     17  H3  UNL     1       6.934 -30.844 -23.681  1.00  0.00     0.170 HD
ENDBRANCH   4   9
BRANCH   5  18
HETATM   18  N8  UNL     1       9.756 -30.500 -24.560  1.00  0.00    -0.295 N 
HETATM   19  C8  UNL     1      10.358 -31.227 -23.603  1.00  0.00     0.206 A 
HETATM   20  N9  UNL     1      10.848 -32.370 -24.134  1.00  0.00    -0.295 N 
HETATM   21  N10 UNL     1      10.559 -32.365 -25.408  1.00  0.00    -0.295 N 
ATOM     22  H9  UNL     1      11.350 -33.102 -23.633  1.00  0.00     0.187 HD
HETATM   23  C9  UNL     1       9.891 -31.229 -25.688  1.00  0.00     0.206 A 
ATOM     24  H10 UNL     1      10.799 -33.097 -26.078  1.00  0.00     0.187 HD
ENDBRANCH   5  18
BRANCH   1  25
HETATM   25  N1  UNL     1       7.510 -25.585 -23.980  1.00  0.00    -0.207 N 
ATOM     26  H1  UNL     1       7.127 -25.214 -24.850  1.00  0.00     0.179 HD
BRANCH  25  27
HETATM   27  C2  UNL     1       7.329 -24.721 -22.886  1.00  0.00     0.128 C 
HETATM   28  C1  UNL     1       7.268 -23.258 -23.187  1.00  0.00     0.050 C 
HETATM   29  C3  UNL     1       8.433 -24.916 -21.829  1.00  0.00     0.050 C 
BRANCH  27  30
HETATM   30  C11 UNL     1       6.060 -25.112 -22.173  1.00  0.00     0.202 C 
HETATM   31  O1  UNL     1       5.490 -24.330 -21.363  1.00  0.00    -0.646 OA
HETATM   32  O2  UNL     1       5.466 -26.347 -22.382  1.00  0.00    -0.646 OA
ENDBRANCH  27  30
ENDBRANCH  25  27
ENDBRANCH   1  25
BRANCH   6  33
HETATM   33  N11 UNL     1      11.172 -28.218 -24.365  1.00  0.00    -0.383 N 
ATOM     34 2H11 UNL     1      11.574 -28.827 -25.078  1.00  0.00     0.157 HD
ATOM     35 1H11 UNL     1      11.744 -27.695 -23.701  1.00  0.00     0.157 HD
ENDBRANCH   6  33
TORSDOF 6
ENDMDL
MODEL 2
REMARK VINA RESULT: -6.450332202      1.539      2.086
REMARK  6 active torsions:
REMARK  status: ('A' for Active; 'I' for Inactive)
REMARK    1  A    between atoms: C2_2  and  N1_4 
REMARK    2  A    between atoms: C2_2  and  C11_33 
REMARK    3  A    between atoms: N1_4  and  C4_6 
REMARK    4  A    between atoms: C5_9  and  N3_10 
REMARK    5  A    between atoms: C7_19  and  N8_20 
REMARK    6  A    between atoms: C10_27  and  N11_28 
ROOT
HETATM    1  C4  UNL     1       7.237 -26.640 -23.304  1.00  0.00     0.682 A 
HETATM    2  N2  UNL     1       6.316 -27.247 -24.124  1.00  0.00    -0.174 N 
ATOM      3  H2  UNL     1       5.341 -26.954 -24.066  1.00  0.00     0.186 HD
HETATM    4  C5  UNL     1       6.649 -28.206 -24.993  1.00  0.00     0.155 A 
HETATM    5  C7  UNL     1       7.963 -28.625 -25.096  1.00  0.00     0.130 A 
HETATM    6  C10 UNL     1       8.866 -28.006 -24.270  1.00  0.00     0.146 A 
HETATM    7  N12 UNL     1       8.512 -27.038 -23.396  1.00  0.00    -0.175 N 
ATOM      8  H12 UNL     1       9.221 -26.607 -22.802  1.00  0.00     0.186 HD
ENDROOT
BRANCH   4   9
HETATM    9  N3  UNL     1       5.680 -28.806 -25.816  1.00  0.00    -0.310 N 
HETATM   10  C6  UNL     1       5.236 -30.002 -25.706  1.00  0.00     0.211 C 
HETATM   11  N4  UNL     1       4.265 -30.664 -26.499  1.00  0.00    -0.256 N 
HETATM   12  N7  UNL     1       5.632 -30.955 -24.735  1.00  0.00    -0.256 N 
HETATM   13  N5  UNL     1       3.774 -31.735 -25.752  1.00  0.00    -0.006 NA
ATOM     14  H4  UNL     1       3.977 -30.404 -27.442  1.00  0.00     0.187 HD
HETATM   15  N6  UNL     1       4.785 -32.032 -24.845  1.00  0.00    -0.006 NA
ATOM     16  H7  UNL     1       6.404 -30.860 -24.076  1.00  0.00     0.187 HD
ATOM     17  H3  UNL     1       5.295 -28.237 -26.568  1.00  0.00     0.170 HD
ENDBRANCH   4   9
BRANCH   5  18
HETATM   18  N8  UNL     1       8.421 -29.634 -25.974  1.00  0.00    -0.295 N 
HETATM   19  C8  UNL     1       8.576 -29.554 -27.307  1.00  0.00     0.206 A 
HETATM   20  N9  UNL     1       9.038 -30.730 -27.788  1.00  0.00    -0.295 N 
HETATM   21  N10 UNL     1       9.173 -31.542 -26.774  1.00  0.00    -0.295 N 
ATOM     22  H9  UNL     1       9.244 -30.944 -28.764  1.00  0.00     0.187 HD
HETATM   23  C9  UNL     1       8.801 -30.890 -25.655  1.00  0.00     0.206 A 
ATOM     24  H10 UNL     1       9.505 -32.506 -26.821  1.00  0.00     0.187 HD
ENDBRANCH   5  18
BRANCH   1  25
HETATM   25  N1  UNL     1       6.865 -25.751 -22.506  1.00  0.00    -0.207 N 
ATOM     26  H1  UNL     1       6.123 -26.062 -21.878  1.00  0.00     0.179 HD
BRANCH  25  27
HETATM   27  C2  UNL     1       7.249 -24.416 -22.285  1.00  0.00     0.128 C 
HETATM   28  C1  UNL     1       7.661 -23.627 -23.486  1.00  0.00     0.050 C 
HETATM   29  C3  UNL     1       8.404 -24.326 -21.270  1.00  0.00     0.050 C 
BRANCH  27  30
HETATM   30  C11 UNL     1       6.107 -23.697 -21.614  1.00  0.00     0.202 C 
HETATM   31  O1  UNL     1       5.477 -24.214 -20.650  1.00  0.00    -0.646 OA
HETATM   32  O2  UNL     1       5.705 -22.436 -22.027  1.00  0.00    -0.646 OA
ENDBRANCH  27  30
ENDBRANCH  25  27
ENDBRANCH   1  25
BRANCH   6  33
HETATM   33  N11 UNL     1      10.104 -28.347 -24.312  1.00  0.00    -0.383 N 
ATOM     34 2H11 UNL     1      10.580 -28.292 -25.213  1.00  0.00     0.157 HD
ATOM     35 1H11 UNL     1      10.572 -28.657 -23.460  1.00  0.00     0.157 HD
ENDBRANCH   6  33
TORSDOF 6
ENDMDL
MODEL 3
REMARK VINA RESULT: -6.229596726      1.764      2.230
REMARK  6 active torsions:
REMARK  status: ('A' for Active; 'I' for Inactive)
REMARK    1  A    between atoms: C2_2  and  N1_4 
REMARK    2  A    between atoms: C2_2  and  C11_33 
REMARK    3  A    between atoms: N1_4  and  C4_6 
REMARK    4  A    between atoms: C5_9  and  N3_10 
REMARK    5  A    between atoms: C7_19  and  N8_20 
REMARK    6  A    between atoms: C10_27  and  N11_28 
ROOT
HETATM    1  C4  UNL     1       7.179 -26.724 -23.286  1.00  0.00     0.682 A 
HETATM    2  N2  UNL     1       6.284 -27.339 -24.127  1.00  0.00    -0.174 N 
ATOM      3  H2  UNL     1       5.303 -27.061 -24.087  1.00  0.00     0.186 HD
HETATM    4  C5  UNL     1       6.648 -28.288 -24.995  1.00  0.00     0.155 A 
HETATM    5  C7  UNL     1       7.969 -28.688 -25.075  1.00  0.00     0.130 A 
HETATM    6  C10 UNL     1       8.846 -28.060 -24.228  1.00  0.00     0.146 A 
HETATM    7  N12 UNL     1       8.462 -27.103 -23.355  1.00  0.00    -0.175 N 
ATOM      8  H12 UNL     1       9.152 -26.665 -22.745  1.00  0.00     0.186 HD
ENDROOT
BRANCH   4   9
HETATM    9  N3  UNL     1       5.704 -28.897 -25.840  1.00  0.00    -0.310 N 
HETATM   10  C6  UNL     1       5.243 -30.085 -25.721  1.00  0.00     0.211 C 
HETATM   11  N4  UNL     1       4.294 -30.756 -26.534  1.00  0.00    -0.256 N 
HETATM   12  N7  UNL     1       5.591 -31.020 -24.714  1.00  0.00    -0.256 N 
HETATM   13  N5  UNL     1       3.765 -31.805 -25.782  1.00  0.00    -0.006 NA
ATOM     14  H4  UNL     1       4.046 -30.515 -27.494  1.00  0.00     0.187 HD
HETATM   15  N6  UNL     1       4.737 -32.091 -24.831  1.00  0.00    -0.006 NA
ATOM     16  H7  UNL     1       6.339 -30.917 -24.028  1.00  0.00     0.187 HD
ATOM     17  H3  UNL     1       5.354 -28.341 -26.620  1.00  0.00     0.170 HD
ENDBRANCH   4   9
BRANCH   5  18
HETATM   18  N8  UNL     1       8.459 -29.685 -25.950  1.00  0.00    -0.295 N 
HETATM   19  C8  UNL     1       8.869 -30.925 -25.633  1.00  0.00     0.206 A 
HETATM   20  N9  UNL     1       9.266 -31.577 -26.749  1.00  0.00    -0.295 N 
HETATM   21  N10 UNL     1       9.110 -30.761 -27.756  1.00  0.00    -0.295 N 
ATOM     22  H9  UNL     1       9.622 -32.532 -26.796  1.00  0.00     0.187 HD
HETATM   23  C9  UNL     1       8.617 -29.597 -27.288  1.00  0.00     0.206 A 
ATOM     24  H10 UNL     1       9.325 -30.968 -28.732  1.00  0.00     0.187 HD
ENDBRANCH   5  18
BRANCH   1  25
HETATM   25  N1  UNL     1       6.779 -25.846 -22.490  1.00  0.00    -0.207 N 
ATOM     26  H1  UNL     1       6.038 -26.176 -21.870  1.00  0.00     0.179 HD
BRANCH  25  27
HETATM   27  C2  UNL     1       7.129 -24.502 -22.264  1.00  0.00     0.128 C 
HETATM   28  C1  UNL     1       8.199 -24.247 -21.252  1.00  0.00     0.050 C 
HETATM   29  C3  UNL     1       5.904 -23.668 -21.843  1.00  0.00     0.050 C 
BRANCH  27  30
HETATM   30  C11 UNL     1       7.560 -23.895 -23.575  1.00  0.00     0.202 C 
HETATM   31  O1  UNL     1       7.682 -22.647 -23.714  1.00  0.00    -0.646 OA
HETATM   32  O2  UNL     1       7.842 -24.685 -24.678  1.00  0.00    -0.646 OA
ENDBRANCH  27  30
ENDBRANCH  25  27
ENDBRANCH   1  25
BRANCH   6  33
HETATM   33  N11 UNL     1      10.091 -28.383 -24.248  1.00  0.00    -0.383 N 
ATOM     34 2H11 UNL     1      10.618 -28.285 -23.381  1.00  0.00     0.157 HD
ATOM     35 1H11 UNL     1      10.509 -28.724 -25.113  1.00  0.00     0.157 HD
ENDBRANCH   6  33
TORSDOF 6
ENDMDL
MODEL 4
REMARK VINA RESULT: -6.220800780      8.429     10.999
REMARK  6 active torsions:
REMARK  status: ('A' for Active; 'I' for Inactive)
REMARK    1  A    between atoms: C2_2  and  N1_4 
REMARK    2  A    between atoms: C2_2  and  C11_33 
REMARK    3  A    between atoms: N1_4  and  C4_6 
REMARK    4  A    between atoms: C5_9  and  N3_10 
REMARK    5  A    between atoms: C7_19  and  N8_20 
REMARK    6  A    between atoms: C10_27  and  N11_28 
ROOT
HETATM    1  C4  UNL     1       4.743 -34.217 -19.043  1.00  0.00     0.682 A 
HETATM    2  N2  UNL     1       5.271 -32.997 -18.697  1.00  0.00    -0.174 N 
ATOM      3  H2  UNL     1       6.276 -32.853 -18.790  1.00  0.00     0.186 HD
HETATM    4  C5  UNL     1       4.517 -31.991 -18.241  1.00  0.00     0.155 A 
HETATM    5  C7  UNL     1       3.151 -32.153 -18.103  1.00  0.00     0.130 A 
HETATM    6  C10 UNL     1       2.645 -33.378 -18.455  1.00  0.00     0.146 A 
HETATM    7  N12 UNL     1       3.421 -34.385 -18.914  1.00  0.00    -0.175 N 
ATOM      8  H12 UNL     1       2.997 -35.279 -19.163  1.00  0.00     0.186 HD
ENDROOT
BRANCH   4   9
HETATM    9  N3  UNL     1       5.092 -30.755 -17.894  1.00  0.00    -0.310 N 
HETATM   10  C6  UNL     1       5.675 -30.480 -16.789  1.00  0.00     0.211 C 
HETATM   11  N4  UNL     1       6.272 -29.261 -16.379  1.00  0.00    -0.256 N 
HETATM   12  N7  UNL     1       5.859 -31.366 -15.697  1.00  0.00    -0.256 N 
HETATM   13  N5  UNL     1       7.161 -29.557 -15.346  1.00  0.00    -0.006 NA
ATOM     14  H4  UNL     1       6.084 -28.337 -16.769  1.00  0.00     0.187 HD
HETATM   15  N6  UNL     1       6.692 -30.745 -14.797  1.00  0.00    -0.006 NA
ATOM     16  H7  UNL     1       5.448 -32.294 -15.598  1.00  0.00     0.187 HD
ATOM     17  H3  UNL     1       5.038 -30.010 -18.588  1.00  0.00     0.170 HD
ENDBRANCH   4   9
BRANCH   5  18
HETATM   18  N8  UNL     1       2.265 -31.160 -17.624  1.00  0.00    -0.295 N 
HETATM   19  C8  UNL     1       1.498 -30.327 -18.349  1.00  0.00     0.206 A 
HETATM   20  N9  UNL     1       0.788 -29.523 -17.526  1.00  0.00    -0.295 N 
HETATM   21  N10 UNL     1       1.102 -29.843 -16.299  1.00  0.00    -0.295 N 
ATOM     22  H9  UNL     1       0.127 -28.800 -17.810  1.00  0.00     0.187 HD
HETATM   23  C9  UNL     1       2.004 -30.843 -16.338  1.00  0.00     0.206 A 
ATOM     24  H10 UNL     1       0.727 -29.409 -15.454  1.00  0.00     0.187 HD
ENDBRANCH   5  18
BRANCH   1  25
HETATM   25  N1  UNL     1       5.499 -35.123 -19.459  1.00  0.00    -0.207 N 
ATOM     26  H1  UNL     1       5.573 -35.146 -20.477  1.00  0.00     0.179 HD
BRANCH  25  27
HETATM   27  C2  UNL     1       6.268 -36.118 -18.829  1.00  0.00     0.128 C 
HETATM   28  C1  UNL     1       6.326 -37.451 -19.502  1.00  0.00     0.050 C 
HETATM   29  C3  UNL     1       5.791 -36.364 -17.385  1.00  0.00     0.050 C 
BRANCH  27  30
HETATM   30  C11 UNL     1       7.676 -35.603 -18.672  1.00  0.00     0.202 C 
HETATM   31  O1  UNL     1       7.947 -34.650 -17.890  1.00  0.00    -0.646 OA
HETATM   32  O2  UNL     1       8.731 -36.158 -19.380  1.00  0.00    -0.646 OA
ENDBRANCH  27  30
ENDBRANCH  25  27
ENDBRANCH   1  25
BRANCH   6  33
HETATM   33  N11 UNL     1       1.383 -33.599 -18.351  1.00  0.00    -0.383 N 
ATOM     34 2H11 UNL     1       0.811 -32.874 -17.918  1.00  0.00     0.157 HD
ATOM     35 1H11 UNL     1       0.994 -34.475 -18.698  1.00  0.00     0.157 HD
ENDBRANCH   6  33
TORSDOF 6
ENDMDL
MODEL 5
REMARK VINA RESULT: -6.047003998      1.057      1.483
REMARK  6 active torsions:
REMARK  status: ('A' for Active; 'I' for Inactive)
REMARK    1  A    between atoms: C2_2  and  N1_4 
REMARK    2  A    between atoms: C2_2  and  C11_33 
REMARK    3  A    between atoms: N1_4  and  C4_6 
REMARK    4  A    between atoms: C5_9  and  N3_10 
REMARK    5  A    between atoms: C7_19  and  N8_20 
REMARK    6  A    between atoms: C10_27  and  N11_28 
ROOT
HETATM    1  C4  UNL     1       8.069 -26.521 -24.003  1.00  0.00     0.682 A 
HETATM    2  N2  UNL     1       7.240 -27.613 -24.082  1.00  0.00    -0.174 N 
ATOM      3  H2  UNL     1       6.234 -27.472 -23.996  1.00  0.00     0.186 HD
HETATM    4  C5  UNL     1       7.701 -28.854 -24.267  1.00  0.00     0.155 A 
HETATM    5  C7  UNL     1       9.060 -29.080 -24.388  1.00  0.00     0.130 A 
HETATM    6  C10 UNL     1       9.870 -27.976 -24.307  1.00  0.00     0.146 A 
HETATM    7  N12 UNL     1       9.387 -26.728 -24.120  1.00  0.00    -0.175 N 
ATOM      8  H12 UNL     1      10.031 -25.938 -24.067  1.00  0.00     0.186 HD
ENDROOT
BRANCH   4   9
HETATM    9  N3  UNL     1       6.823 -29.949 -24.341  1.00  0.00    -0.310 N 
HETATM   10  C6  UNL     1       6.090 -30.260 -25.343  1.00  0.00     0.211 C 
HETATM   11  N4  UNL     1       5.189 -31.346 -25.481  1.00  0.00    -0.256 N 
HETATM   12  N7  UNL     1       6.020 -29.564 -26.576  1.00  0.00    -0.256 N 
HETATM   13  N5  UNL     1       4.987 -31.552 -26.846  1.00  0.00    -0.006 NA
ATOM     14  H4  UNL     1       4.765 -31.878 -24.722  1.00  0.00     0.187 HD
HETATM   15  N6  UNL     1       5.272 -30.327 -27.440  1.00  0.00    -0.006 NA
ATOM     16  H7  UNL     1       6.447 -28.661 -26.784  1.00  0.00     0.187 HD
ATOM     17  H3  UNL     1       6.764 -30.552 -23.521  1.00  0.00     0.170 HD
ENDBRANCH   4   9
BRANCH   5  18
HETATM   18  N8  UNL     1       9.653 -30.350 -24.578  1.00  0.00    -0.295 N 
HETATM   19  C8  UNL     1      10.294 -31.101 -23.665  1.00  0.00     0.206 A 
HETATM   20  N9  UNL     1      10.718 -32.252 -24.233  1.00  0.00    -0.295 N 
HETATM   21  N10 UNL     1      10.352 -32.229 -25.486  1.00  0.00    -0.295 N 
ATOM     22  H9  UNL     1      11.230 -33.001 -23.768  1.00  0.00     0.187 HD
HETATM   23  C9  UNL     1       9.699 -31.073 -25.717  1.00  0.00     0.206 A 
ATOM     24  H10 UNL     1      10.530 -32.961 -26.174  1.00  0.00     0.187 HD
ENDBRANCH   5  18
BRANCH   1  25
HETATM   25  N1  UNL     1       7.581 -25.383 -23.824  1.00  0.00    -0.207 N 
ATOM     26  H1  UNL     1       7.316 -24.921 -24.694  1.00  0.00     0.179 HD
BRANCH  25  27
HETATM   27  C2  UNL     1       7.317 -24.603 -22.684  1.00  0.00     0.128 C 
HETATM   28  C1  UNL     1       8.241 -24.778 -21.521  1.00  0.00     0.050 C 
HETATM   29  C3  UNL     1       5.887 -24.840 -22.161  1.00  0.00     0.050 C 
BRANCH  27  30
HETATM   30  C11 UNL     1       7.330 -23.150 -23.086  1.00  0.00     0.202 C 
HETATM   31  O1  UNL     1       7.767 -22.782 -24.212  1.00  0.00    -0.646 OA
HETATM   32  O2  UNL     1       6.860 -22.161 -22.237  1.00  0.00    -0.646 OA
ENDBRANCH  27  30
ENDBRANCH  25  27
ENDBRANCH   1  25
BRANCH   6  33
HETATM   33  N11 UNL     1      11.144 -28.113 -24.411  1.00  0.00    -0.383 N 
ATOM     34 2H11 UNL     1      11.493 -28.942 -24.891  1.00  0.00     0.157 HD
ATOM     35 1H11 UNL     1      11.761 -27.402 -24.019  1.00  0.00     0.157 HD
ENDBRANCH   6  33
TORSDOF 6
ENDMDL
