MODEL 1
REMARK VINA RESULT: -7.897688762      0.000      0.000
REMARK  12 active torsions:
REMARK  status: ('A' for Active; 'I' for Inactive)
REMARK    1  A    between atoms: C2_2  and  N1_3 
REMARK    2  A    between atoms: N1_3  and  C3_4 
REMARK    3  A    between atoms: N1_3  and  C5_6 
REMARK    4  A    between atoms: C5_6  and  C6_7 
REMARK    5  A    between atoms: C6_7  and  N2_8 
REMARK    6  A    between atoms: N2_8  and  C7_10 
REMARK    7  A    between atoms: N5_21  and  C13_22 
REMARK    8  A    between atoms: C17_26  and  N6_27 
REMARK    9  A    between atoms: N6_27  and  C19_29 
REMARK   10  A    between atoms: C22_32  and  N7_33 
REMARK   11  A    between atoms: N7_33  and  C23_35 
REMARK   12  A    between atoms: C26_38  and  N8_39 
ROOT
HETATM    1  C13 UNL     1      44.893  13.383   0.930  1.00  0.00     0.111 C 
HETATM    2  C14 UNL     1      46.290  13.799   1.409  1.00  0.00     0.026 C 
HETATM    3  C15 UNL     1      46.873  12.821   2.364  1.00  0.00     0.004 C 
HETATM    4  C16 UNL     1      46.052  11.591   2.419  1.00  0.00     0.025 C 
HETATM    5  C17 UNL     1      45.681  10.984   1.106  1.00  0.00     0.085 C 
HETATM    6  C31 UNL     1      44.975  12.054   0.272  1.00  0.00     0.051 C 
ENDROOT
BRANCH   1   7
HETATM    7  N5  UNL     1      44.443  14.457   0.098  1.00  0.00    -0.161 N 
HETATM    8  C7  UNL     1      44.021  15.650   0.593  1.00  0.00     0.682 A 
HETATM    9  N3  UNL     1      43.675  16.435  -0.427  1.00  0.00    -0.188 N 
HETATM   10  C8  UNL     1      43.871  15.756  -1.578  1.00  0.00     0.095 A 
ATOM     11  H3  UNL     1      43.321  17.389  -0.351  1.00  0.00     0.184 HD
HETATM   12  C9  UNL     1      43.663  16.146  -2.907  1.00  0.00     0.054 A 
HETATM   13  C12 UNL     1      44.352  14.521  -1.231  1.00  0.00     0.151 A 
HETATM   14  C10 UNL     1      43.962  15.231  -3.882  1.00  0.00     0.028 A 
HETATM   15 BR1  UNL     1      43.717  15.650  -5.750  1.00  0.00    -0.050 Br
HETATM   16  C11 UNL     1      44.439  14.013  -3.481  1.00  0.00     0.109 A 
HETATM   17  N4  UNL     1      44.638  13.642  -2.212  1.00  0.00    -0.349 N 
ATOM     18  H4  UNL     1      44.998  12.714  -1.991  1.00  0.00     0.167 HD
BRANCH   8  19
HETATM   19  N2  UNL     1      43.967  16.006   1.853  1.00  0.00    -0.224 N 
ATOM     20  H2  UNL     1      43.535  15.406   2.556  1.00  0.00     0.177 HD
BRANCH  19  21
HETATM   21  C6  UNL     1      44.548  17.287   2.206  1.00  0.00     0.168 C 
BRANCH  21  22
HETATM   22  C5  UNL     1      45.920  17.181   2.775  1.00  0.00     0.292 C 
BRANCH  22  23
HETATM   23  N1  UNL     1      45.946  17.604   4.135  1.00  0.00     0.089 N 
BRANCH  23  24
HETATM   24  C2  UNL     1      45.048  16.837   4.933  1.00  0.00     0.268 C 
HETATM   25  C1  UNL     1      45.573  15.427   5.181  1.00  0.00     0.037 C 
ENDBRANCH  23  24
BRANCH  23  26
HETATM   26  C3  UNL     1      47.331  17.480   4.587  1.00  0.00     0.268 C 
HETATM   27  C4  UNL     1      48.194  16.805   3.526  1.00  0.00     0.037 C 
ENDBRANCH  23  26
ENDBRANCH  22  23
ENDBRANCH  21  22
ENDBRANCH  19  21
ENDBRANCH   8  19
ENDBRANCH   1   7
BRANCH   5  28
HETATM   28  N6  UNL     1      46.599  10.221   0.399  1.00  0.00    -0.387 N 
HETATM   29  C18 UNL     1      46.865  10.401  -0.967  1.00  0.00     0.149 C 
BRANCH  28  30
HETATM   30  C19 UNL     1      47.647   9.521   1.016  1.00  0.00    -0.015 C 
HETATM   31  C20 UNL     1      49.013   9.587   0.369  1.00  0.00     0.058 C 
HETATM   32  C21 UNL     1      49.916   8.795   1.371  1.00  0.00     0.057 C 
HETATM   33  C22 UNL     1      49.659   7.371   1.072  1.00  0.00    -0.017 C 
HETATM   34  C29 UNL     1      48.168   7.046   0.985  1.00  0.00     0.057 C 
HETATM   35  C30 UNL     1      47.342   8.155   1.569  1.00  0.00     0.058 C 
BRANCH  33  36
HETATM   36  N7  UNL     1      50.341   6.340   1.673  1.00  0.00    -0.392 N 
ATOM     37  H7  UNL     1      50.606   5.576   1.051  1.00  0.00     0.159 HD
BRANCH  36  38
HETATM   38  C23 UNL     1      50.717   6.183   2.978  1.00  0.00     0.081 C 
HETATM   39  C24 UNL     1      52.182   5.948   3.191  1.00  0.00     0.027 C 
HETATM   40  C25 UNL     1      52.499   6.210   4.660  1.00  0.00     0.035 C 
HETATM   41  C26 UNL     1      51.741   5.176   5.461  1.00  0.00     0.183 C 
HETATM   42  C27 UNL     1      50.283   5.105   5.128  1.00  0.00     0.035 C 
HETATM   43  C28 UNL     1      50.012   4.974   3.640  1.00  0.00     0.027 C 
BRANCH  41  44
HETATM   44  N8  UNL     1      52.399   3.916   5.282  1.00  0.00    -0.075 N 
ATOM     45  H83 UNL     1      53.416   3.991   5.321  1.00  0.00     0.274 HD
ATOM     46  H82 UNL     1      52.278   3.291   6.079  1.00  0.00     0.274 HD
ATOM     47  H81 UNL     1      52.065   3.513   4.407  1.00  0.00     0.274 HD
ENDBRANCH  41  44
ENDBRANCH  36  38
ENDBRANCH  33  36
ENDBRANCH  28  30
ENDBRANCH   5  28
TORSDOF 12
ENDMDL
MODEL 2
REMARK VINA RESULT: -7.889202798      1.404      2.567
REMARK  12 active torsions:
REMARK  status: ('A' for Active; 'I' for Inactive)
REMARK    1  A    between atoms: C2_2  and  N1_3 
REMARK    2  A    between atoms: N1_3  and  C3_4 
REMARK    3  A    between atoms: N1_3  and  C5_6 
REMARK    4  A    between atoms: C5_6  and  C6_7 
REMARK    5  A    between atoms: C6_7  and  N2_8 
REMARK    6  A    between atoms: N2_8  and  C7_10 
REMARK    7  A    between atoms: N5_21  and  C13_22 
REMARK    8  A    between atoms: C17_26  and  N6_27 
REMARK    9  A    between atoms: N6_27  and  C19_29 
REMARK   10  A    between atoms: C22_32  and  N7_33 
REMARK   11  A    between atoms: N7_33  and  C23_35 
REMARK   12  A    between atoms: C26_38  and  N8_39 
ROOT
HETATM    1  C13 UNL     1      45.522  11.626  -0.714  1.00  0.00     0.111 C 
HETATM    2  C14 UNL     1      44.587  10.705   0.080  1.00  0.00     0.026 C 
HETATM    3  C15 UNL     1      44.945   9.270  -0.072  1.00  0.00     0.004 C 
HETATM    4  C16 UNL     1      46.248   9.127  -0.761  1.00  0.00     0.025 C 
HETATM    5  C17 UNL     1      47.368   9.962  -0.235  1.00  0.00     0.085 C 
HETATM    6  C31 UNL     1      46.919  11.424  -0.253  1.00  0.00     0.051 C 
ENDROOT
BRANCH   1   7
HETATM    7  N5  UNL     1      44.997  12.945  -0.533  1.00  0.00    -0.161 N 
HETATM    8  C7  UNL     1      45.005  13.588   0.664  1.00  0.00     0.682 A 
HETATM    9  N3  UNL     1      44.453  14.791   0.504  1.00  0.00    -0.188 N 
HETATM   10  C8  UNL     1      44.090  14.929  -0.790  1.00  0.00     0.095 A 
ATOM     11  H3  UNL     1      44.327  15.491   1.236  1.00  0.00     0.184 HD
HETATM   12  C9  UNL     1      43.482  16.003  -1.451  1.00  0.00     0.054 A 
HETATM   13  C12 UNL     1      44.438  13.765  -1.424  1.00  0.00     0.151 A 
HETATM   14  C10 UNL     1      43.235  15.856  -2.790  1.00  0.00     0.028 A 
HETATM   15 BR1  UNL     1      42.401  17.265  -3.811  1.00  0.00    -0.050 Br
HETATM   16  C11 UNL     1      43.601  14.674  -3.374  1.00  0.00     0.109 A 
HETATM   17  N4  UNL     1      44.182  13.649  -2.742  1.00  0.00    -0.349 N 
ATOM     18  H4  UNL     1      44.428  12.798  -3.247  1.00  0.00     0.167 HD
BRANCH   8  19
HETATM   19  N2  UNL     1      45.480  13.136   1.798  1.00  0.00    -0.224 N 
ATOM     20  H2  UNL     1      45.046  12.349   2.280  1.00  0.00     0.177 HD
BRANCH  19  21
HETATM   21  C6  UNL     1      46.651  13.801   2.338  1.00  0.00     0.168 C 
BRANCH  21  22
HETATM   22  C5  UNL     1      46.336  14.768   3.426  1.00  0.00     0.292 C 
BRANCH  22  23
HETATM   23  N1  UNL     1      46.486  16.112   2.977  1.00  0.00     0.089 N 
BRANCH  23  24
HETATM   24  C2  UNL     1      45.451  16.948   3.487  1.00  0.00     0.268 C 
HETATM   25  C1  UNL     1      44.778  17.756   2.384  1.00  0.00     0.037 C 
ENDBRANCH  23  24
BRANCH  23  26
HETATM   26  C3  UNL     1      47.813  16.552   3.405  1.00  0.00     0.268 C 
HETATM   27  C4  UNL     1      47.723  17.434   4.645  1.00  0.00     0.037 C 
ENDBRANCH  23  26
ENDBRANCH  22  23
ENDBRANCH  21  22
ENDBRANCH  19  21
ENDBRANCH   8  19
ENDBRANCH   1   7
BRANCH   5  28
HETATM   28  N6  UNL     1      48.047   9.586   0.916  1.00  0.00    -0.387 N 
HETATM   29  C18 UNL     1      47.748  10.091   2.190  1.00  0.00     0.149 C 
BRANCH  28  30
HETATM   30  C19 UNL     1      48.768   8.387   1.020  1.00  0.00    -0.015 C 
HETATM   31  C20 UNL     1      48.202   7.299   1.905  1.00  0.00     0.058 C 
HETATM   32  C21 UNL     1      49.199   6.114   1.690  1.00  0.00     0.057 C 
HETATM   33  C22 UNL     1      50.362   6.435   2.544  1.00  0.00    -0.017 C 
HETATM   34  C29 UNL     1      50.850   7.872   2.360  1.00  0.00     0.057 C 
HETATM   35  C30 UNL     1      50.267   8.482   1.120  1.00  0.00     0.058 C 
BRANCH  33  36
HETATM   36  N7  UNL     1      51.427   5.584   2.718  1.00  0.00    -0.392 N 
ATOM     37  H7  UNL     1      52.122   5.603   1.972  1.00  0.00     0.159 HD
BRANCH  36  38
HETATM   38  C23 UNL     1      51.695   4.714   3.739  1.00  0.00     0.081 C 
HETATM   39  C24 UNL     1      50.536   4.425   4.644  1.00  0.00     0.027 C 
HETATM   40  C25 UNL     1      50.856   3.164   5.442  1.00  0.00     0.035 C 
HETATM   41  C26 UNL     1      52.052   3.488   6.306  1.00  0.00     0.183 C 
HETATM   42  C27 UNL     1      53.204   4.070   5.549  1.00  0.00     0.035 C 
HETATM   43  C28 UNL     1      52.814   5.244   4.668  1.00  0.00     0.027 C 
BRANCH  41  44
HETATM   44  N8  UNL     1      51.608   4.348   7.363  1.00  0.00    -0.075 N 
ATOM     45  H83 UNL     1      50.692   4.086   7.728  1.00  0.00     0.274 HD
ATOM     46  H82 UNL     1      52.139   4.222   8.224  1.00  0.00     0.274 HD
ATOM     47  H81 UNL     1      51.636   5.306   7.015  1.00  0.00     0.274 HD
ENDBRANCH  41  44
ENDBRANCH  36  38
ENDBRANCH  33  36
ENDBRANCH  28  30
ENDBRANCH   5  28
TORSDOF 12
ENDMDL
MODEL 3
REMARK VINA RESULT: -7.637553763      3.314     11.014
REMARK  12 active torsions:
REMARK  status: ('A' for Active; 'I' for Inactive)
REMARK    1  A    between atoms: C2_2  and  N1_3 
REMARK    2  A    between atoms: N1_3  and  C3_4 
REMARK    3  A    between atoms: N1_3  and  C5_6 
REMARK    4  A    between atoms: C5_6  and  C6_7 
REMARK    5  A    between atoms: C6_7  and  N2_8 
REMARK    6  A    between atoms: N2_8  and  C7_10 
REMARK    7  A    between atoms: N5_21  and  C13_22 
REMARK    8  A    between atoms: C17_26  and  N6_27 
REMARK    9  A    between atoms: N6_27  and  C19_29 
REMARK   10  A    between atoms: C22_32  and  N7_33 
REMARK   11  A    between atoms: N7_33  and  C23_35 
REMARK   12  A    between atoms: C26_38  and  N8_39 
ROOT
HETATM    1  C13 UNL     1      49.864   6.909   2.011  1.00  0.00     0.111 C 
HETATM    2  C14 UNL     1      48.667   6.419   2.835  1.00  0.00     0.026 C 
HETATM    3  C15 UNL     1      48.009   7.521   3.584  1.00  0.00     0.004 C 
HETATM    4  C16 UNL     1      48.539   8.835   3.154  1.00  0.00     0.025 C 
HETATM    5  C17 UNL     1      48.596   9.074   1.682  1.00  0.00     0.085 C 
HETATM    6  C31 UNL     1      49.408   7.944   1.048  1.00  0.00     0.051 C 
ENDROOT
BRANCH   1   7
HETATM    7  N5  UNL     1      50.430   5.730   1.429  1.00  0.00    -0.161 N 
HETATM    8  C7  UNL     1      51.665   5.265   1.751  1.00  0.00     0.682 A 
HETATM    9  N3  UNL     1      51.899   4.157   1.047  1.00  0.00    -0.188 N 
HETATM   10  C8  UNL     1      50.821   3.904   0.273  1.00  0.00     0.095 A 
ATOM     11  H3  UNL     1      52.749   3.594   1.088  1.00  0.00     0.184 HD
HETATM   12  C9  UNL     1      50.581   2.863  -0.631  1.00  0.00     0.054 A 
HETATM   13  C12 UNL     1      49.913   4.898   0.524  1.00  0.00     0.151 A 
HETATM   14  C10 UNL     1      49.373   2.863  -1.280  1.00  0.00     0.028 A 
HETATM   15 BR1  UNL     1      48.924   1.482  -2.550  1.00  0.00    -0.050 Br
HETATM   16  C11 UNL     1      48.503   3.878  -0.993  1.00  0.00     0.109 A 
HETATM   17  N4  UNL     1      48.734   4.872  -0.128  1.00  0.00    -0.349 N 
ATOM     18  H4  UNL     1      48.033   5.595   0.034  1.00  0.00     0.167 HD
BRANCH   8  19
HETATM   19  N2  UNL     1      52.503   5.785   2.614  1.00  0.00    -0.224 N 
ATOM     20  H2  UNL     1      53.041   6.622   2.394  1.00  0.00     0.177 HD
BRANCH  19  21
HETATM   21  C6  UNL     1      52.630   5.119   3.897  1.00  0.00     0.168 C 
BRANCH  21  22
HETATM   22  C5  UNL     1      51.690   5.635   4.931  1.00  0.00     0.292 C 
BRANCH  22  23
HETATM   23  N1  UNL     1      51.028   4.567   5.602  1.00  0.00     0.089 N 
BRANCH  23  24
HETATM   24  C2  UNL     1      50.972   3.399   4.786  1.00  0.00     0.268 C 
HETATM   25  C1  UNL     1      49.575   3.168   4.223  1.00  0.00     0.037 C 
ENDBRANCH  23  24
BRANCH  23  26
HETATM   26  C3  UNL     1      51.759   4.337   6.847  1.00  0.00     0.268 C 
HETATM   27  C4  UNL     1      51.319   3.034   7.507  1.00  0.00     0.037 C 
ENDBRANCH  23  26
ENDBRANCH  22  23
ENDBRANCH  21  22
ENDBRANCH  19  21
ENDBRANCH   8  19
ENDBRANCH   1   7
BRANCH   5  28
HETATM   28  N6  UNL     1      47.450   9.419   0.979  1.00  0.00    -0.387 N 
HETATM   29  C18 UNL     1      46.837   8.576   0.039  1.00  0.00     0.149 C 
BRANCH  28  30
HETATM   30  C19 UNL     1      46.550  10.400   1.420  1.00  0.00    -0.015 C 
HETATM   31  C20 UNL     1      45.425  10.793   0.488  1.00  0.00     0.058 C 
HETATM   32  C21 UNL     1      44.595  11.805   1.344  1.00  0.00     0.057 C 
HETATM   33  C22 UNL     1      45.337  13.079   1.254  1.00  0.00    -0.017 C 
HETATM   34  C29 UNL     1      46.831  12.911   1.528  1.00  0.00     0.057 C 
HETATM   35  C30 UNL     1      47.115  11.581   2.162  1.00  0.00     0.058 C 
BRANCH  33  36
HETATM   36  N7  UNL     1      44.879  14.258   1.793  1.00  0.00    -0.392 N 
ATOM     37  H7  UNL     1      43.869  14.309   1.926  1.00  0.00     0.159 HD
BRANCH  36  38
HETATM   38  C23 UNL     1      45.573  15.372   2.177  1.00  0.00     0.081 C 
HETATM   39  C24 UNL     1      46.515  15.166   3.324  1.00  0.00     0.027 C 
HETATM   40  C25 UNL     1      47.490  16.339   3.358  1.00  0.00     0.035 C 
HETATM   41  C26 UNL     1      46.673  17.577   3.644  1.00  0.00     0.183 C 
HETATM   42  C27 UNL     1      45.500  17.751   2.730  1.00  0.00     0.035 C 
HETATM   43  C28 UNL     1      44.628  16.512   2.628  1.00  0.00     0.027 C 
BRANCH  41  44
HETATM   44  N8  UNL     1      46.283  17.534   5.022  1.00  0.00    -0.075 N 
ATOM     45  H83 UNL     1      45.472  16.937   5.186  1.00  0.00     0.274 HD
ATOM     46  H82 UNL     1      46.947  17.025   5.606  1.00  0.00     0.274 HD
ATOM     47  H81 UNL     1      46.136  18.494   5.333  1.00  0.00     0.274 HD
ENDBRANCH  41  44
ENDBRANCH  36  38
ENDBRANCH  33  36
ENDBRANCH  28  30
ENDBRANCH   5  28
TORSDOF 12
ENDMDL
MODEL 4
REMARK VINA RESULT: -7.623579373      3.718     11.993
REMARK  12 active torsions:
REMARK  status: ('A' for Active; 'I' for Inactive)
REMARK    1  A    between atoms: C2_2  and  N1_3 
REMARK    2  A    between atoms: N1_3  and  C3_4 
REMARK    3  A    between atoms: N1_3  and  C5_6 
REMARK    4  A    between atoms: C5_6  and  C6_7 
REMARK    5  A    between atoms: C6_7  and  N2_8 
REMARK    6  A    between atoms: N2_8  and  C7_10 
REMARK    7  A    between atoms: N5_21  and  C13_22 
REMARK    8  A    between atoms: C17_26  and  N6_27 
REMARK    9  A    between atoms: N6_27  and  C19_29 
REMARK   10  A    between atoms: C22_32  and  N7_33 
REMARK   11  A    between atoms: N7_33  and  C23_35 
REMARK   12  A    between atoms: C26_38  and  N8_39 
ROOT
HETATM    1  C13 UNL     1      50.477   6.231   2.947  1.00  0.00     0.111 C 
HETATM    2  C14 UNL     1      49.780   5.520   1.779  1.00  0.00     0.026 C 
HETATM    3  C15 UNL     1      48.380   5.984   1.591  1.00  0.00     0.004 C 
HETATM    4  C16 UNL     1      48.106   7.172   2.431  1.00  0.00     0.025 C 
HETATM    5  C17 UNL     1      49.108   8.277   2.359  1.00  0.00     0.085 C 
HETATM    6  C31 UNL     1      50.480   7.695   2.700  1.00  0.00     0.051 C 
ENDROOT
BRANCH   1   7
HETATM    7  N5  UNL     1      51.766   5.617   3.047  1.00  0.00    -0.161 N 
HETATM    8  C7  UNL     1      52.317   5.241   4.230  1.00  0.00     0.682 A 
HETATM    9  N3  UNL     1      53.512   4.701   3.991  1.00  0.00    -0.188 N 
HETATM   10  C8  UNL     1      53.735   4.726   2.659  1.00  0.00     0.095 A 
ATOM     11  H3  UNL     1      54.150   4.330   4.695  1.00  0.00     0.184 HD
HETATM   12  C9  UNL     1      54.833   4.276   1.916  1.00  0.00     0.054 A 
HETATM   13  C12 UNL     1      52.633   5.303   2.084  1.00  0.00     0.151 A 
HETATM   14  C10 UNL     1      54.776   4.432   0.556  1.00  0.00     0.028 A 
HETATM   15 BR1  UNL     1      56.227   3.851  -0.576  1.00  0.00    -0.050 Br
HETATM   16  C11 UNL     1      53.653   5.013   0.034  1.00  0.00     0.109 A 
HETATM   17  N4  UNL     1      52.605   5.443   0.744  1.00  0.00    -0.349 N 
ATOM     18  H4  UNL     1      51.801   5.866   0.282  1.00  0.00     0.167 HD
BRANCH   8  19
HETATM   19  N2  UNL     1      51.783   5.359   5.421  1.00  0.00    -0.224 N 
ATOM     20  H2  UNL     1      51.911   6.203   5.979  1.00  0.00     0.177 HD
BRANCH  19  21
HETATM   21  C6  UNL     1      51.002   4.240   5.912  1.00  0.00     0.168 C 
BRANCH  21  22
HETATM   22  C5  UNL     1      51.535   3.649   7.171  1.00  0.00     0.292 C 
BRANCH  22  23
HETATM   23  N1  UNL     1      51.378   2.233   7.180  1.00  0.00     0.089 N 
BRANCH  23  24
HETATM   24  C2  UNL     1      50.341   1.822   6.293  1.00  0.00     0.268 C 
HETATM   25  C1  UNL     1      49.115   1.320   7.048  1.00  0.00     0.037 C 
ENDBRANCH  23  24
BRANCH  23  26
HETATM   26  C3  UNL     1      52.674   1.664   6.816  1.00  0.00     0.268 C 
HETATM   27  C4  UNL     1      52.542   0.716   5.630  1.00  0.00     0.037 C 
ENDBRANCH  23  26
ENDBRANCH  22  23
ENDBRANCH  21  22
ENDBRANCH  19  21
ENDBRANCH   8  19
ENDBRANCH   1   7
BRANCH   5  28
HETATM   28  N6  UNL     1      49.110   9.158   1.287  1.00  0.00    -0.387 N 
HETATM   29  C18 UNL     1      49.854   8.949   0.116  1.00  0.00     0.149 C 
BRANCH  28  30
HETATM   30  C19 UNL     1      48.079  10.082   1.056  1.00  0.00    -0.015 C 
HETATM   31  C20 UNL     1      48.400  11.297   0.214  1.00  0.00     0.058 C 
HETATM   32  C21 UNL     1      47.017  12.017   0.094  1.00  0.00     0.057 C 
HETATM   33  C22 UNL     1      46.852  12.740   1.372  1.00  0.00    -0.017 C 
HETATM   34  C29 UNL     1      47.138  11.859   2.589  1.00  0.00     0.057 C 
HETATM   35  C30 UNL     1      47.166  10.409   2.207  1.00  0.00     0.058 C 
BRANCH  33  36
HETATM   36  N7  UNL     1      45.799  13.587   1.629  1.00  0.00    -0.392 N 
ATOM     37  H7  UNL     1      44.876  13.155   1.584  1.00  0.00     0.159 HD
BRANCH  36  38
HETATM   38  C23 UNL     1      45.803  14.920   1.933  1.00  0.00     0.081 C 
HETATM   39  C24 UNL     1      46.571  15.284   3.168  1.00  0.00     0.027 C 
HETATM   40  C25 UNL     1      46.833  16.787   3.142  1.00  0.00     0.035 C 
HETATM   41  C26 UNL     1      45.485  17.466   3.214  1.00  0.00     0.183 C 
HETATM   42  C27 UNL     1      44.506  16.974   2.195  1.00  0.00     0.035 C 
HETATM   43  C28 UNL     1      44.373  15.461   2.170  1.00  0.00     0.027 C 
BRANCH  41  44
HETATM   44  N8  UNL     1      44.994  17.321   4.552  1.00  0.00    -0.075 N 
ATOM     45  H83 UNL     1      45.730  17.395   5.255  1.00  0.00     0.274 HD
ATOM     46  H82 UNL     1      44.435  18.117   4.857  1.00  0.00     0.274 HD
ATOM     47  H81 UNL     1      44.487  16.437   4.602  1.00  0.00     0.274 HD
ENDBRANCH  41  44
ENDBRANCH  36  38
ENDBRANCH  33  36
ENDBRANCH  28  30
ENDBRANCH   5  28
TORSDOF 12
ENDMDL
MODEL 5
REMARK VINA RESULT: -7.608926606      2.352      4.597
REMARK  12 active torsions:
REMARK  status: ('A' for Active; 'I' for Inactive)
REMARK    1  A    between atoms: C2_2  and  N1_3 
REMARK    2  A    between atoms: N1_3  and  C3_4 
REMARK    3  A    between atoms: N1_3  and  C5_6 
REMARK    4  A    between atoms: C5_6  and  C6_7 
REMARK    5  A    between atoms: C6_7  and  N2_8 
REMARK    6  A    between atoms: N2_8  and  C7_10 
REMARK    7  A    between atoms: N5_21  and  C13_22 
REMARK    8  A    between atoms: C17_26  and  N6_27 
REMARK    9  A    between atoms: N6_27  and  C19_29 
REMARK   10  A    between atoms: C22_32  and  N7_33 
REMARK   11  A    between atoms: N7_33  and  C23_35 
REMARK   12  A    between atoms: C26_38  and  N8_39 
ROOT
HETATM    1  C13 UNL     1      45.019  12.757  -0.172  1.00  0.00     0.111 C 
HETATM    2  C14 UNL     1      44.573  11.777   0.921  1.00  0.00     0.026 C 
HETATM    3  C15 UNL     1      44.613  10.364   0.463  1.00  0.00     0.004 C 
HETATM    4  C16 UNL     1      45.293  10.259  -0.848  1.00  0.00     0.025 C 
HETATM    5  C17 UNL     1      46.608  10.955  -0.968  1.00  0.00     0.085 C 
HETATM    6  C31 UNL     1      46.403  12.424  -0.595  1.00  0.00     0.051 C 
ENDROOT
BRANCH   1   7
HETATM    7  N5  UNL     1      44.842  14.060   0.394  1.00  0.00    -0.161 N 
HETATM    8  C7  UNL     1      44.119  15.038  -0.212  1.00  0.00     0.682 A 
HETATM    9  N3  UNL     1      44.140  16.123   0.562  1.00  0.00    -0.188 N 
HETATM   10  C8  UNL     1      44.872  15.851   1.664  1.00  0.00     0.095 A 
ATOM     11  H3  UNL     1      43.679  17.010   0.357  1.00  0.00     0.184 HD
HETATM   12  C9  UNL     1      45.182  16.656   2.767  1.00  0.00     0.054 A 
HETATM   13  C12 UNL     1      45.303  14.557   1.542  1.00  0.00     0.151 A 
HETATM   14  C10 UNL     1      45.953  16.098   3.753  1.00  0.00     0.028 A 
HETATM   15 BR1  UNL     1      46.448  17.107   5.321  1.00  0.00    -0.050 Br
HETATM   16  C11 UNL     1      46.357  14.803   3.581  1.00  0.00     0.109 A 
HETATM   17  N4  UNL     1      46.060  14.035   2.528  1.00  0.00    -0.349 N 
ATOM     18  H4  UNL     1      46.399  13.074   2.472  1.00  0.00     0.167 HD
BRANCH   8  19
HETATM   19  N2  UNL     1      43.483  14.955  -1.355  1.00  0.00    -0.224 N 
ATOM     20  H2  UNL     1      43.481  14.093  -1.900  1.00  0.00     0.177 HD
BRANCH  19  21
HETATM   21  C6  UNL     1      42.782  16.140  -1.811  1.00  0.00     0.168 C 
BRANCH  21  22
HETATM   22  C5  UNL     1      43.296  16.674  -3.103  1.00  0.00     0.292 C 
BRANCH  22  23
HETATM   23  N1  UNL     1      44.636  17.138  -2.969  1.00  0.00     0.089 N 
BRANCH  23  24
HETATM   24  C2  UNL     1      45.454  16.677  -4.042  1.00  0.00     0.268 C 
HETATM   25  C1  UNL     1      46.077  15.320  -3.736  1.00  0.00     0.037 C 
ENDBRANCH  23  24
BRANCH  23  26
HETATM   26  C3  UNL     1      44.570  18.598  -2.913  1.00  0.00     0.268 C 
HETATM   27  C4  UNL     1      43.788  19.156  -4.097  1.00  0.00     0.037 C 
ENDBRANCH  23  26
ENDBRANCH  22  23
ENDBRANCH  21  22
ENDBRANCH  19  21
ENDBRANCH   8  19
ENDBRANCH   1   7
BRANCH   5  28
HETATM   28  N6  UNL     1      47.758  10.386  -0.437  1.00  0.00    -0.387 N 
HETATM   29  C18 UNL     1      49.008  11.023  -0.438  1.00  0.00     0.149 C 
BRANCH  28  30
HETATM   30  C19 UNL     1      47.730   9.360   0.520  1.00  0.00    -0.015 C 
HETATM   31  C20 UNL     1      47.989   9.737   1.962  1.00  0.00     0.058 C 
HETATM   32  C21 UNL     1      47.778   8.386   2.722  1.00  0.00     0.057 C 
HETATM   33  C22 UNL     1      49.034   7.634   2.519  1.00  0.00    -0.017 C 
HETATM   34  C29 UNL     1      49.477   7.612   1.056  1.00  0.00     0.057 C 
HETATM   35  C30 UNL     1      48.363   8.046   0.150  1.00  0.00     0.058 C 
BRANCH  33  36
HETATM   36  N7  UNL     1      49.293   6.424   3.118  1.00  0.00    -0.392 N 
ATOM     37  H7  UNL     1      48.671   5.664   2.843  1.00  0.00     0.159 HD
BRANCH  36  38
HETATM   38  C23 UNL     1      50.258   6.086   4.026  1.00  0.00     0.081 C 
HETATM   39  C24 UNL     1      51.608   5.806   3.440  1.00  0.00     0.027 C 
HETATM   40  C25 UNL     1      52.638   5.862   4.564  1.00  0.00     0.035 C 
HETATM   41  C26 UNL     1      52.303   4.738   5.518  1.00  0.00     0.183 C 
HETATM   42  C27 UNL     1      50.874   4.731   5.964  1.00  0.00     0.035 C 
HETATM   43  C28 UNL     1      49.885   4.807   4.814  1.00  0.00     0.027 C 
BRANCH  41  44
HETATM   44  N8  UNL     1      52.681   3.507   4.891  1.00  0.00    -0.075 N 
ATOM     45  H83 UNL     1      51.915   3.073   4.375  1.00  0.00     0.274 HD
ATOM     46  H82 UNL     1      53.315   3.641   4.104  1.00  0.00     0.274 HD
ATOM     47  H81 UNL     1      53.067   2.897   5.612  1.00  0.00     0.274 HD
ENDBRANCH  41  44
ENDBRANCH  36  38
ENDBRANCH  33  36
ENDBRANCH  28  30
ENDBRANCH   5  28
TORSDOF 12
ENDMDL
