MODEL 1
REMARK VINA RESULT: -9.669113826      0.000      0.000
REMARK  7 active torsions:
REMARK  status: ('A' for Active; 'I' for Inactive)
REMARK    1  A    between atoms: C4_4  and  C5_5 
REMARK    2  A    between atoms: C8_8  and  C9_9 
REMARK    3  A    between atoms: C9_9  and  C10_10 
REMARK    4  A    between atoms: C9_9  and  C19_29 
REMARK    5  A    between atoms: C10_10  and  N1_11 
REMARK    6  A    between atoms: N1_11  and  C11_13 
REMARK    7  A    between atoms: C13_15  and  C14_16 
ROOT
HETATM    1  C19 UNL     1      46.161   8.874   0.003  1.00  0.00    -0.048 A 
HETATM    2  C20 UNL     1      44.860   8.711   0.433  1.00  0.00     0.009 A 
HETATM    3  C21 UNL     1      43.841   8.394  -0.442  1.00  0.00     0.023 A 
HETATM    4  C22 UNL     1      44.075   8.222  -1.800  1.00  0.00     0.044 A 
HETATM    5  C23 UNL     1      43.020   7.894  -2.709  1.00  0.00     0.099 C 
HETATM    6  N5  UNL     1      42.154   7.634  -3.431  1.00  0.00    -0.191 NA
HETATM    7  C24 UNL     1      45.378   8.387  -2.216  1.00  0.00     0.023 A 
HETATM    8  C25 UNL     1      46.397   8.704  -1.345  1.00  0.00     0.009 A 
ENDROOT
BRANCH   1   9
HETATM    9  C9  UNL     1      47.264   9.213   0.931  1.00  0.00     0.069 C 
BRANCH   9  10
HETATM   10  C8  UNL     1      47.749   8.052   1.713  1.00  0.00    -0.048 A 
HETATM   11  C7  UNL     1      48.621   7.140   1.153  1.00  0.00     0.009 A 
HETATM   12  C6  UNL     1      49.037   6.080   1.928  1.00  0.00     0.013 A 
HETATM   13  C5  UNL     1      48.650   5.852   3.228  1.00  0.00    -0.023 A 
HETATM   14  C27 UNL     1      47.777   6.775   3.774  1.00  0.00     0.013 A 
HETATM   15  C26 UNL     1      47.333   7.852   3.037  1.00  0.00     0.009 A 
BRANCH  13  16
HETATM   16  C4  UNL     1      49.132   4.700   3.998  1.00  0.00     0.006 A 
HETATM   17  C3  UNL     1      49.982   4.636   5.057  1.00  0.00     0.047 A 
HETATM   18  C2  UNL     1      50.094   3.312   5.395  1.00  0.00     0.050 A 
HETATM   19  C1  UNL     1      50.921   2.753   6.501  1.00  0.00     0.076 C 
HETATM   20  O2  UNL     1      49.352   2.633   4.583  1.00  0.00    -0.319 OA
HETATM   21  C28 UNL     1      48.742   3.397   3.715  1.00  0.00     0.060 A 
HETATM   22  C29 UNL     1      47.834   2.900   2.669  1.00  0.00     0.077 C 
ENDBRANCH  13  16
ENDBRANCH   9  10
BRANCH   9  23
HETATM   23  C10 UNL     1      46.972  10.426   1.763  1.00  0.00     0.134 C 
BRANCH  23  24
HETATM   24  N1  UNL     1      47.109  11.654   1.031  1.00  0.00    -0.388 N 
ATOM     25  H1  UNL     1      47.789  11.695   0.272  1.00  0.00     0.159 HD
BRANCH  24  26
HETATM   26  C11 UNL     1      46.350  12.800   1.313  1.00  0.00     0.051 A 
HETATM   27  C12 UNL     1      46.781  13.689   2.268  1.00  0.00     0.046 A 
HETATM   28  C13 UNL     1      46.035  14.833   2.556  1.00  0.00     0.012 A 
HETATM   29  C16 UNL     1      44.853  15.092   1.890  1.00  0.00     0.017 A 
HETATM   30  C17 UNL     1      44.426  14.200   0.937  1.00  0.00     0.027 A 
HETATM   31  C18 UNL     1      45.170  13.076   0.661  1.00  0.00     0.060 A 
HETATM   32 CL1  UNL     1      44.583  11.958  -0.572  1.00  0.00    -0.082 Cl
BRANCH  28  33
HETATM   33  C14 UNL     1      46.500  15.772   3.571  1.00  0.00     0.134 A 
HETATM   34  N2  UNL     1      45.780  16.232   4.609  1.00  0.00    -0.281 N 
HETATM   35  N3  UNL     1      46.498  17.062   5.332  1.00  0.00    -0.250 N 
ATOM     36  H2  UNL     1      44.814  15.973   4.809  1.00  0.00     0.188 HD
HETATM   37  C15 UNL     1      47.706  17.139   4.747  1.00  0.00     0.340 A 
ATOM     38  H3  UNL     1      46.196  17.553   6.174  1.00  0.00     0.192 HD
HETATM   39  O1  UNL     1      48.679  17.843   5.152  1.00  0.00    -0.245 OA
HETATM   40  N4  UNL     1      47.718  16.351   3.666  1.00  0.00    -0.292 N 
ATOM     41  H4  UNL     1      48.503  16.213   3.029  1.00  0.00     0.172 HD
ENDBRANCH  28  33
ENDBRANCH  24  26
ENDBRANCH  23  24
ENDBRANCH   9  23
ENDBRANCH   1   9
TORSDOF 7
ENDMDL
MODEL 2
REMARK VINA RESULT: -9.550505714      1.070      1.478
REMARK  7 active torsions:
REMARK  status: ('A' for Active; 'I' for Inactive)
REMARK    1  A    between atoms: C4_4  and  C5_5 
REMARK    2  A    between atoms: C8_8  and  C9_9 
REMARK    3  A    between atoms: C9_9  and  C10_10 
REMARK    4  A    between atoms: C9_9  and  C19_29 
REMARK    5  A    between atoms: C10_10  and  N1_11 
REMARK    6  A    between atoms: N1_11  and  C11_13 
REMARK    7  A    between atoms: C13_15  and  C14_16 
ROOT
HETATM    1  C19 UNL     1      46.513   9.226  -0.261  1.00  0.00    -0.048 A 
HETATM    2  C20 UNL     1      45.435   8.808   0.494  1.00  0.00     0.009 A 
HETATM    3  C21 UNL     1      44.251   8.408  -0.090  1.00  0.00     0.023 A 
HETATM    4  C22 UNL     1      44.083   8.407  -1.468  1.00  0.00     0.044 A 
HETATM    5  C23 UNL     1      42.856   7.994  -2.076  1.00  0.00     0.099 C 
HETATM    6  N5  UNL     1      41.854   7.662  -2.551  1.00  0.00    -0.191 NA
HETATM    7  C24 UNL     1      45.166   8.826  -2.211  1.00  0.00     0.023 A 
HETATM    8  C25 UNL     1      46.349   9.226  -1.630  1.00  0.00     0.009 A 
ENDROOT
BRANCH   1   9
HETATM    9  C9  UNL     1      47.790   9.656   0.353  1.00  0.00     0.069 C 
BRANCH   9  10
HETATM   10  C8  UNL     1      48.358   8.654   1.283  1.00  0.00    -0.048 A 
HETATM   11  C7  UNL     1      48.931   7.494   0.806  1.00  0.00     0.009 A 
HETATM   12  C6  UNL     1      49.443   6.599   1.719  1.00  0.00     0.013 A 
HETATM   13  C5  UNL     1      49.429   6.768   3.084  1.00  0.00    -0.023 A 
HETATM   14  C27 UNL     1      48.850   7.936   3.547  1.00  0.00     0.013 A 
HETATM   15  C26 UNL     1      48.326   8.861   2.670  1.00  0.00     0.009 A 
BRANCH  13  16
HETATM   16  C4  UNL     1      49.992   5.772   4.003  1.00  0.00     0.006 A 
HETATM   17  C3  UNL     1      49.469   4.609   4.476  1.00  0.00     0.047 A 
HETATM   18  C2  UNL     1      50.413   4.059   5.304  1.00  0.00     0.050 A 
HETATM   19  C1  UNL     1      50.287   2.778   6.054  1.00  0.00     0.076 C 
HETATM   20  O2  UNL     1      51.434   4.851   5.320  1.00  0.00    -0.319 OA
HETATM   21  C28 UNL     1      51.256   5.903   4.562  1.00  0.00     0.060 A 
HETATM   22  C29 UNL     1      52.250   6.974   4.387  1.00  0.00     0.077 C 
ENDBRANCH  13  16
ENDBRANCH   9  10
BRANCH   9  23
HETATM   23  C10 UNL     1      47.725  11.044   0.918  1.00  0.00     0.134 C 
BRANCH  23  24
HETATM   24  N1  UNL     1      46.438  11.367   1.466  1.00  0.00    -0.388 N 
ATOM     25  H1  UNL     1      45.859  10.608   1.829  1.00  0.00     0.159 HD
BRANCH  24  26
HETATM   26  C11 UNL     1      45.939  12.677   1.526  1.00  0.00     0.051 A 
HETATM   27  C12 UNL     1      46.419  13.549   2.473  1.00  0.00     0.046 A 
HETATM   28  C13 UNL     1      45.932  14.855   2.543  1.00  0.00     0.012 A 
HETATM   29  C16 UNL     1      44.961  15.295   1.664  1.00  0.00     0.017 A 
HETATM   30  C17 UNL     1      44.484  14.419   0.719  1.00  0.00     0.027 A 
HETATM   31  C18 UNL     1      44.973  13.134   0.660  1.00  0.00     0.060 A 
HETATM   32 CL1  UNL     1      44.332  12.044  -0.571  1.00  0.00    -0.082 Cl
BRANCH  28  33
HETATM   33  C14 UNL     1      46.447  15.774   3.552  1.00  0.00     0.134 A 
HETATM   34  N2  UNL     1      45.768  16.240   4.615  1.00  0.00    -0.281 N 
HETATM   35  N3  UNL     1      46.524  17.048   5.323  1.00  0.00    -0.250 N 
ATOM     36  H2  UNL     1      44.802  16.000   4.840  1.00  0.00     0.188 HD
HETATM   37  C15 UNL     1      47.716  17.105   4.703  1.00  0.00     0.340 A 
ATOM     38  H3  UNL     1      46.258  17.537   6.178  1.00  0.00     0.192 HD
HETATM   39  O1  UNL     1      48.716  17.784   5.085  1.00  0.00    -0.245 OA
HETATM   40  N4  UNL     1      47.679  16.327   3.615  1.00  0.00    -0.292 N 
ATOM     41  H4  UNL     1      48.442  16.177   2.955  1.00  0.00     0.172 HD
ENDBRANCH  28  33
ENDBRANCH  24  26
ENDBRANCH  23  24
ENDBRANCH   9  23
ENDBRANCH   1   9
TORSDOF 7
ENDMDL
MODEL 3
REMARK VINA RESULT: -9.539468402      1.070      1.818
REMARK  7 active torsions:
REMARK  status: ('A' for Active; 'I' for Inactive)
REMARK    1  A    between atoms: C4_4  and  C5_5 
REMARK    2  A    between atoms: C8_8  and  C9_9 
REMARK    3  A    between atoms: C9_9  and  C10_10 
REMARK    4  A    between atoms: C9_9  and  C19_29 
REMARK    5  A    between atoms: C10_10  and  N1_11 
REMARK    6  A    between atoms: N1_11  and  C11_13 
REMARK    7  A    between atoms: C13_15  and  C14_16 
ROOT
HETATM    1  C19 UNL     1      46.542   9.225  -0.321  1.00  0.00    -0.048 A 
HETATM    2  C20 UNL     1      46.344   9.229  -1.688  1.00  0.00     0.009 A 
HETATM    3  C21 UNL     1      45.148   8.832  -2.248  1.00  0.00     0.023 A 
HETATM    4  C22 UNL     1      44.082   8.407  -1.466  1.00  0.00     0.044 A 
HETATM    5  C23 UNL     1      42.841   7.994  -2.045  1.00  0.00     0.099 C 
HETATM    6  N5  UNL     1      41.846   7.657  -2.531  1.00  0.00    -0.191 NA
HETATM    7  C24 UNL     1      44.292   8.408  -0.104  1.00  0.00     0.023 A 
HETATM    8  C25 UNL     1      45.486   8.804   0.458  1.00  0.00     0.009 A 
ENDROOT
BRANCH   1   9
HETATM    9  C9  UNL     1      47.820   9.650   0.294  1.00  0.00     0.069 C 
BRANCH   9  10
HETATM   10  C8  UNL     1      48.372   8.656   1.243  1.00  0.00    -0.048 A 
HETATM   11  C7  UNL     1      48.298   8.865   2.605  1.00  0.00     0.009 A 
HETATM   12  C6  UNL     1      48.829   7.906   3.439  1.00  0.00     0.013 A 
HETATM   13  C5  UNL     1      49.436   6.744   3.021  1.00  0.00    -0.023 A 
HETATM   14  C27 UNL     1      49.502   6.550   1.653  1.00  0.00     0.013 A 
HETATM   15  C26 UNL     1      48.984   7.482   0.780  1.00  0.00     0.009 A 
BRANCH  13  16
HETATM   16  C4  UNL     1      49.983   5.764   3.965  1.00  0.00     0.006 A 
HETATM   17  C3  UNL     1      49.459   4.601   4.437  1.00  0.00     0.047 A 
HETATM   18  C2  UNL     1      50.385   4.070   5.296  1.00  0.00     0.050 A 
HETATM   19  C1  UNL     1      50.251   2.795   6.056  1.00  0.00     0.076 C 
HETATM   20  O2  UNL     1      51.398   4.871   5.331  1.00  0.00    -0.319 OA
HETATM   21  C28 UNL     1      51.231   5.913   4.556  1.00  0.00     0.060 A 
HETATM   22  C29 UNL     1      52.219   6.991   4.396  1.00  0.00     0.077 C 
ENDBRANCH  13  16
ENDBRANCH   9  10
BRANCH   9  23
HETATM   23  C10 UNL     1      47.766  11.046   0.839  1.00  0.00     0.134 C 
BRANCH  23  24
HETATM   24  N1  UNL     1      46.514  11.354   1.470  1.00  0.00    -0.388 N 
ATOM     25  H1  UNL     1      45.979  10.592   1.888  1.00  0.00     0.159 HD
BRANCH  24  26
HETATM   26  C11 UNL     1      45.992  12.655   1.540  1.00  0.00     0.051 A 
HETATM   27  C12 UNL     1      46.465  13.532   2.486  1.00  0.00     0.046 A 
HETATM   28  C13 UNL     1      45.955  14.829   2.565  1.00  0.00     0.012 A 
HETATM   29  C16 UNL     1      44.968  15.254   1.696  1.00  0.00     0.017 A 
HETATM   30  C17 UNL     1      44.498  14.373   0.752  1.00  0.00     0.027 A 
HETATM   31  C18 UNL     1      45.010  13.097   0.685  1.00  0.00     0.060 A 
HETATM   32 CL1  UNL     1      44.377  12.000  -0.545  1.00  0.00    -0.082 Cl
BRANCH  28  33
HETATM   33  C14 UNL     1      46.461  15.754   3.571  1.00  0.00     0.134 A 
HETATM   34  N2  UNL     1      45.778  16.218   4.633  1.00  0.00    -0.281 N 
HETATM   35  N3  UNL     1      46.528  17.032   5.340  1.00  0.00    -0.250 N 
ATOM     36  H2  UNL     1      44.814  15.972   4.857  1.00  0.00     0.188 HD
HETATM   37  C15 UNL     1      47.720  17.096   4.722  1.00  0.00     0.340 A 
ATOM     38  H3  UNL     1      46.258  17.522   6.193  1.00  0.00     0.192 HD
HETATM   39  O1  UNL     1      48.715  17.783   5.104  1.00  0.00    -0.245 OA
HETATM   40  N4  UNL     1      47.690  16.315   3.636  1.00  0.00    -0.292 N 
ATOM     41  H4  UNL     1      48.455  16.169   2.977  1.00  0.00     0.172 HD
ENDBRANCH  28  33
ENDBRANCH  24  26
ENDBRANCH  23  24
ENDBRANCH   9  23
ENDBRANCH   1   9
TORSDOF 7
ENDMDL
MODEL 4
REMARK VINA RESULT: -9.185908945      3.316      8.233
REMARK  7 active torsions:
REMARK  status: ('A' for Active; 'I' for Inactive)
REMARK    1  A    between atoms: C4_4  and  C5_5 
REMARK    2  A    between atoms: C8_8  and  C9_9 
REMARK    3  A    between atoms: C9_9  and  C10_10 
REMARK    4  A    between atoms: C9_9  and  C19_29 
REMARK    5  A    between atoms: C10_10  and  N1_11 
REMARK    6  A    between atoms: N1_11  and  C11_13 
REMARK    7  A    between atoms: C13_15  and  C14_16 
ROOT
HETATM    1  C19 UNL     1      45.427  14.873   2.081  1.00  0.00    -0.048 A 
HETATM    2  C20 UNL     1      45.170  16.226   2.179  1.00  0.00     0.009 A 
HETATM    3  C21 UNL     1      45.926  17.051   2.984  1.00  0.00     0.023 A 
HETATM    4  C22 UNL     1      46.985  16.563   3.738  1.00  0.00     0.044 A 
HETATM    5  C23 UNL     1      47.771  17.417   4.574  1.00  0.00     0.099 C 
HETATM    6  N5  UNL     1      48.392  18.121   5.250  1.00  0.00    -0.191 NA
HETATM    7  C24 UNL     1      47.232  15.212   3.631  1.00  0.00     0.023 A 
HETATM    8  C25 UNL     1      46.478  14.385   2.828  1.00  0.00     0.009 A 
ENDROOT
BRANCH   1   9
HETATM    9  C9  UNL     1      44.624  13.976   1.219  1.00  0.00     0.069 C 
BRANCH   9  10
HETATM   10  C8  UNL     1      45.227  12.634   1.049  1.00  0.00    -0.048 A 
HETATM   11  C7  UNL     1      44.468  11.493   1.215  1.00  0.00     0.009 A 
HETATM   12  C6  UNL     1      45.084  10.273   1.044  1.00  0.00     0.013 A 
HETATM   13  C5  UNL     1      46.409  10.096   0.719  1.00  0.00    -0.023 A 
HETATM   14  C27 UNL     1      47.156  11.248   0.557  1.00  0.00     0.013 A 
HETATM   15  C26 UNL     1      46.583  12.491   0.717  1.00  0.00     0.009 A 
BRANCH  13  16
HETATM   16  C4  UNL     1      47.003   8.764   0.553  1.00  0.00     0.006 A 
HETATM   17  C3  UNL     1      47.675   7.979   1.436  1.00  0.00     0.047 A 
HETATM   18  C2  UNL     1      48.013   6.831   0.767  1.00  0.00     0.050 A 
HETATM   19  C1  UNL     1      48.762   5.672   1.330  1.00  0.00     0.076 C 
HETATM   20  O2  UNL     1      47.568   6.933  -0.442  1.00  0.00    -0.319 OA
HETATM   21  C28 UNL     1      46.948   8.067  -0.647  1.00  0.00     0.060 A 
HETATM   22  C29 UNL     1      46.338   8.457  -1.928  1.00  0.00     0.077 C 
ENDBRANCH  13  16
ENDBRANCH   9  10
BRANCH   9  23
HETATM   23  C10 UNL     1      44.209  14.624  -0.068  1.00  0.00     0.134 C 
BRANCH  23  24
HETATM   24  N1  UNL     1      44.802  14.008  -1.222  1.00  0.00    -0.388 N 
ATOM     25  H1  UNL     1      45.818  14.020  -1.313  1.00  0.00     0.159 HD
BRANCH  24  26
HETATM   26  C11 UNL     1      44.047  13.391  -2.231  1.00  0.00     0.051 A 
HETATM   27  C12 UNL     1      43.965  12.021  -2.284  1.00  0.00     0.046 A 
HETATM   28  C13 UNL     1      43.217  11.395  -3.282  1.00  0.00     0.012 A 
HETATM   29  C16 UNL     1      42.547  12.139  -4.234  1.00  0.00     0.017 A 
HETATM   30  C17 UNL     1      42.632  13.509  -4.178  1.00  0.00     0.027 A 
HETATM   31  C18 UNL     1      43.373  14.114  -3.188  1.00  0.00     0.060 A 
HETATM   32 CL1  UNL     1      43.453  15.877  -3.154  1.00  0.00    -0.082 Cl
BRANCH  28  33
HETATM   33  C14 UNL     1      43.135   9.940  -3.331  1.00  0.00     0.134 A 
HETATM   34  N2  UNL     1      43.581   9.157  -4.328  1.00  0.00    -0.281 N 
HETATM   35  N3  UNL     1      43.352   7.892  -4.056  1.00  0.00    -0.250 N 
ATOM     36  H2  UNL     1      44.034   9.497  -5.177  1.00  0.00     0.188 HD
HETATM   37  C15 UNL     1      42.744   7.859  -2.858  1.00  0.00     0.340 A 
ATOM     38  H3  UNL     1      43.589   7.091  -4.642  1.00  0.00     0.192 HD
HETATM   39  O1  UNL     1      42.363   6.813  -2.252  1.00  0.00    -0.245 OA
HETATM   40  N4  UNL     1      42.606   9.110  -2.403  1.00  0.00    -0.292 N 
ATOM     41  H4  UNL     1      42.181   9.387  -1.519  1.00  0.00     0.172 HD
ENDBRANCH  28  33
ENDBRANCH  24  26
ENDBRANCH  23  24
ENDBRANCH   9  23
ENDBRANCH   1   9
TORSDOF 7
ENDMDL
MODEL 5
REMARK VINA RESULT: -9.161195720      1.679      2.551
REMARK  7 active torsions:
REMARK  status: ('A' for Active; 'I' for Inactive)
REMARK    1  A    between atoms: C4_4  and  C5_5 
REMARK    2  A    between atoms: C8_8  and  C9_9 
REMARK    3  A    between atoms: C9_9  and  C10_10 
REMARK    4  A    between atoms: C9_9  and  C19_29 
REMARK    5  A    between atoms: C10_10  and  N1_11 
REMARK    6  A    between atoms: N1_11  and  C11_13 
REMARK    7  A    between atoms: C13_15  and  C14_16 
ROOT
HETATM    1  C19 UNL     1      44.915   9.752  -1.025  1.00  0.00    -0.048 A 
HETATM    2  C20 UNL     1      45.063   9.754  -2.397  1.00  0.00     0.009 A 
HETATM    3  C21 UNL     1      44.204   9.055  -3.220  1.00  0.00     0.023 A 
HETATM    4  C22 UNL     1      43.148   8.313  -2.709  1.00  0.00     0.044 A 
HETATM    5  C23 UNL     1      42.257   7.586  -3.560  1.00  0.00     0.099 C 
HETATM    6  N5  UNL     1      41.549   7.000  -4.262  1.00  0.00    -0.191 NA
HETATM    7  C24 UNL     1      43.011   8.319  -1.337  1.00  0.00     0.023 A 
HETATM    8  C25 UNL     1      43.867   9.016  -0.513  1.00  0.00     0.009 A 
ENDROOT
BRANCH   1   9
HETATM    9  C9  UNL     1      45.828  10.499  -0.130  1.00  0.00     0.069 C 
BRANCH   9  10
HETATM   10  C8  UNL     1      46.690   9.620   0.693  1.00  0.00    -0.048 A 
HETATM   11  C7  UNL     1      47.258  10.085   1.862  1.00  0.00     0.009 A 
HETATM   12  C6  UNL     1      48.051   9.222   2.586  1.00  0.00     0.013 A 
HETATM   13  C5  UNL     1      48.328   7.921   2.235  1.00  0.00    -0.023 A 
HETATM   14  C27 UNL     1      47.752   7.471   1.061  1.00  0.00     0.013 A 
HETATM   15  C26 UNL     1      46.951   8.298   0.304  1.00  0.00     0.009 A 
BRANCH  13  16
HETATM   16  C4  UNL     1      49.184   7.055   3.053  1.00  0.00     0.006 A 
HETATM   17  C3  UNL     1      48.877   6.233   4.092  1.00  0.00     0.047 A 
HETATM   18  C2  UNL     1      50.051   5.653   4.498  1.00  0.00     0.050 A 
HETATM   19  C1  UNL     1      50.210   4.675   5.611  1.00  0.00     0.076 C 
HETATM   20  O2  UNL     1      50.998   6.106   3.744  1.00  0.00    -0.319 OA
HETATM   21  C28 UNL     1      50.555   6.953   2.850  1.00  0.00     0.060 A 
HETATM   22  C29 UNL     1      51.405   7.629   1.858  1.00  0.00     0.077 C 
ENDBRANCH  13  16
ENDBRANCH   9  10
BRANCH   9  23
HETATM   23  C10 UNL     1      45.127  11.570   0.653  1.00  0.00     0.134 C 
BRANCH  23  24
HETATM   24  N1  UNL     1      44.640  12.639  -0.172  1.00  0.00    -0.388 N 
ATOM     25  H1  UNL     1      44.330  12.421  -1.119  1.00  0.00     0.159 HD
BRANCH  24  26
HETATM   26  C11 UNL     1      44.570  13.970   0.266  1.00  0.00     0.051 A 
HETATM   27  C12 UNL     1      45.098  14.319   1.485  1.00  0.00     0.046 A 
HETATM   28  C13 UNL     1      45.035  15.640   1.932  1.00  0.00     0.012 A 
HETATM   29  C16 UNL     1      44.442  16.619   1.158  1.00  0.00     0.017 A 
HETATM   30  C17 UNL     1      43.916  16.266  -0.060  1.00  0.00     0.027 A 
HETATM   31  C18 UNL     1      43.984  14.960  -0.489  1.00  0.00     0.060 A 
HETATM   32 CL1  UNL     1      43.295  14.552  -2.062  1.00  0.00    -0.082 Cl
BRANCH  28  33
HETATM   33  C14 UNL     1      45.598  16.001   3.228  1.00  0.00     0.134 A 
HETATM   34  N2  UNL     1      45.269  15.454   4.411  1.00  0.00    -0.281 N 
HETATM   35  N3  UNL     1      45.962  16.007   5.380  1.00  0.00    -0.250 N 
ATOM     36  H2  UNL     1      44.580  14.713   4.539  1.00  0.00     0.188 HD
HETATM   37  C15 UNL     1      46.754  16.932   4.809  1.00  0.00     0.340 A 
ATOM     38  H3  UNL     1      45.910  15.779   6.373  1.00  0.00     0.192 HD
HETATM   39  O1  UNL     1      47.575  17.680   5.420  1.00  0.00    -0.245 OA
HETATM   40  N4  UNL     1      46.539  16.936   3.489  1.00  0.00    -0.292 N 
ATOM     41  H4  UNL     1      47.000  17.535   2.805  1.00  0.00     0.172 HD
ENDBRANCH  28  33
ENDBRANCH  24  26
ENDBRANCH  23  24
ENDBRANCH   9  23
ENDBRANCH   1   9
TORSDOF 7
ENDMDL
