MODEL 1
REMARK VINA RESULT: -8.233401989      0.000      0.000
REMARK  11 active torsions:
REMARK  status: ('A' for Active; 'I' for Inactive)
REMARK    1  A    between atoms: C2_2  and  O1_5 
REMARK    2  A    between atoms: O1_5  and  C5_6 
REMARK    3  A    between atoms: C5_6  and  C6_10 
REMARK    4  A    between atoms: C7_14  and  O2_15 
REMARK    5  A    between atoms: O2_15  and  C8_16 
REMARK    6  A    between atoms: C8_16  and  C9_17 
REMARK    7  A    between atoms: C11_22  and  C12_23 
REMARK    8  A    between atoms: C12_23  and  O3_24 
REMARK    9  A    between atoms: O3_24  and  C13_25 
REMARK   10  A    between atoms: C15_30  and  C16_31 
REMARK   11  A    between atoms: C16_31  and  O4_32 
ROOT
HETATM    1  C9  UNL     1     -22.842  37.757  -0.345  1.00  0.00     0.345 C 
HETATM    2  N3  UNL     1     -22.446  36.384  -0.543  1.00  0.00    -0.044 N 
ATOM      3  H31 UNL     1     -23.149  35.686  -0.302  1.00  0.00     0.280 HD
ATOM      4  H32 UNL     1     -21.744  36.032   0.108  1.00  0.00     0.280 HD
HETATM    5  C10 UNL     1     -22.041  36.409  -1.955  1.00  0.00     0.269 C 
HETATM    6  C11 UNL     1     -23.105  37.307  -2.534  1.00  0.00     0.174 C 
HETATM    7  O6  UNL     1     -23.365  38.222  -1.548  1.00  0.00    -0.348 OA
ENDROOT
BRANCH   1   8
HETATM    8  C8  UNL     1     -21.625  38.536   0.084  1.00  0.00     0.234 C 
BRANCH   8   9
HETATM    9  O2  UNL     1     -21.121  37.976   1.238  1.00  0.00    -0.335 OA
BRANCH   9  10
HETATM   10  C7  UNL     1     -19.846  38.352   1.576  1.00  0.00     0.475 C 
HETATM   11  N2  UNL     1     -19.764  39.797   1.804  1.00  0.00     0.009 N 
HETATM   12  C6  UNL     1     -20.080  39.421   3.182  1.00  0.00     0.405 C 
ATOM     13  H22 UNL     1     -20.311  40.475   1.273  1.00  0.00     0.286 HD
ATOM     14  H21 UNL     1     -18.948  40.354   1.552  1.00  0.00     0.286 HD
HETATM   15  O7  UNL     1     -19.508  38.179   2.922  1.00  0.00    -0.298 OA
BRANCH  12  16
HETATM   16  C5  UNL     1     -19.303  40.265   4.140  1.00  0.00     0.170 C 
HETATM   17  N1  UNL     1     -18.686  39.754   5.153  1.00  0.00    -0.380 N 
ATOM     18  H12 UNL     1     -18.155  40.329   5.806  1.00  0.00     0.158 HD
ATOM     19  H11 UNL     1     -18.757  38.742   5.265  1.00  0.00     0.158 HD
BRANCH  16  20
HETATM   20  O1  UNL     1     -19.206  41.641   3.986  1.00  0.00    -0.326 OA
BRANCH  20  21
HETATM   21  C2  UNL     1     -18.002  42.286   3.687  1.00  0.00     0.058 C 
HETATM   22  C1  UNL     1     -17.524  43.201   4.774  1.00  0.00     0.045 C 
HETATM   23  C3  UNL     1     -16.891  41.357   3.305  1.00  0.00     0.045 C 
HETATM   24  C4  UNL     1     -18.274  43.168   2.460  1.00  0.00     0.045 C 
ENDBRANCH  20  21
ENDBRANCH  16  20
ENDBRANCH  12  16
ENDBRANCH   9  10
ENDBRANCH   8   9
ENDBRANCH   1   8
BRANCH   6  25
HETATM   25  C12 UNL     1     -22.656  37.946  -3.828  1.00  0.00     0.206 C 
BRANCH  25  26
HETATM   26  O3  UNL     1     -23.670  38.178  -4.726  1.00  0.00    -0.337 OA
BRANCH  26  27
HETATM   27  C13 UNL     1     -23.566  39.313  -5.482  1.00  0.00     0.469 C 
HETATM   28  N4  UNL     1     -24.074  39.057  -6.825  1.00  0.00    -0.022 N 
HETATM   29  C14 UNL     1     -25.080  40.074  -7.072  1.00  0.00     0.272 C 
ATOM     30  H42 UNL     1     -23.344  39.024  -7.536  1.00  0.00     0.283 HD
ATOM     31  H41 UNL     1     -24.417  38.106  -6.955  1.00  0.00     0.283 HD
HETATM   32  C15 UNL     1     -24.679  41.146  -6.086  1.00  0.00     0.175 C 
HETATM   33  O5  UNL     1     -24.309  40.379  -4.979  1.00  0.00    -0.330 OA
BRANCH  32  34
HETATM   34  C16 UNL     1     -25.839  42.052  -5.737  1.00  0.00     0.197 C 
BRANCH  34  35
HETATM   35  O4  UNL     1     -25.557  43.322  -6.231  1.00  0.00    -0.398 OA
ATOM     36  H4  UNL     1     -26.180  43.514  -6.922  1.00  0.00     0.209 HD
ENDBRANCH  34  35
ENDBRANCH  32  34
ENDBRANCH  26  27
ENDBRANCH  25  26
ENDBRANCH   6  25
TORSDOF 11
ENDMDL
MODEL 2
REMARK VINA RESULT: -8.189682989      1.197      1.664
REMARK  11 active torsions:
REMARK  status: ('A' for Active; 'I' for Inactive)
REMARK    1  A    between atoms: C2_2  and  O1_5 
REMARK    2  A    between atoms: O1_5  and  C5_6 
REMARK    3  A    between atoms: C5_6  and  C6_10 
REMARK    4  A    between atoms: C7_14  and  O2_15 
REMARK    5  A    between atoms: O2_15  and  C8_16 
REMARK    6  A    between atoms: C8_16  and  C9_17 
REMARK    7  A    between atoms: C11_22  and  C12_23 
REMARK    8  A    between atoms: C12_23  and  O3_24 
REMARK    9  A    between atoms: O3_24  and  C13_25 
REMARK   10  A    between atoms: C15_30  and  C16_31 
REMARK   11  A    between atoms: C16_31  and  O4_32 
ROOT
HETATM    1  C9  UNL     1     -22.495  37.724  -0.302  1.00  0.00     0.345 C 
HETATM    2  N3  UNL     1     -22.670  36.324  -0.601  1.00  0.00    -0.044 N 
ATOM      3  H31 UNL     1     -23.547  35.914  -0.282  1.00  0.00     0.280 HD
ATOM      4  H32 UNL     1     -22.076  35.686  -0.072  1.00  0.00     0.280 HD
HETATM    5  C10 UNL     1     -22.463  36.318  -2.055  1.00  0.00     0.269 C 
HETATM    6  C11 UNL     1     -23.176  37.588  -2.442  1.00  0.00     0.174 C 
HETATM    7  O6  UNL     1     -22.951  38.448  -1.400  1.00  0.00    -0.348 OA
ENDROOT
BRANCH   1   8
HETATM    8  C8  UNL     1     -21.032  37.964  -0.031  1.00  0.00     0.234 C 
BRANCH   8   9
HETATM    9  O2  UNL     1     -20.907  39.040   0.821  1.00  0.00    -0.335 OA
BRANCH   9  10
HETATM   10  C7  UNL     1     -20.675  38.735   2.138  1.00  0.00     0.475 C 
HETATM   11  N2  UNL     1     -19.240  38.707   2.429  1.00  0.00     0.009 N 
HETATM   12  C6  UNL     1     -19.451  40.122   2.735  1.00  0.00     0.405 C 
ATOM     13  H22 UNL     1     -18.543  38.381   1.760  1.00  0.00     0.286 HD
ATOM     14  H21 UNL     1     -18.819  38.052   3.088  1.00  0.00     0.286 HD
HETATM   15  O7  UNL     1     -20.775  39.809   3.028  1.00  0.00    -0.298 OA
BRANCH  12  16
HETATM   16  C5  UNL     1     -18.639  40.521   3.924  1.00  0.00     0.170 C 
HETATM   17  N1  UNL     1     -19.018  41.463   4.723  1.00  0.00    -0.380 N 
ATOM     18  H12 UNL     1     -18.464  41.736   5.535  1.00  0.00     0.158 HD
ATOM     19  H11 UNL     1     -19.902  41.920   4.500  1.00  0.00     0.158 HD
BRANCH  16  20
HETATM   20  O1  UNL     1     -17.436  39.899   4.227  1.00  0.00    -0.326 OA
BRANCH  20  21
HETATM   21  C2  UNL     1     -16.214  40.313   3.687  1.00  0.00     0.058 C 
HETATM   22  C1  UNL     1     -15.676  39.386   2.638  1.00  0.00     0.045 C 
HETATM   23  C3  UNL     1     -16.228  41.709   3.146  1.00  0.00     0.045 C 
HETATM   24  C4  UNL     1     -15.202  40.302   4.841  1.00  0.00     0.045 C 
ENDBRANCH  20  21
ENDBRANCH  16  20
ENDBRANCH  12  16
ENDBRANCH   9  10
ENDBRANCH   8   9
ENDBRANCH   1   8
BRANCH   6  25
HETATM   25  C12 UNL     1     -22.684  38.126  -3.767  1.00  0.00     0.206 C 
BRANCH  25  26
HETATM   26  O3  UNL     1     -23.660  38.248  -4.727  1.00  0.00    -0.337 OA
BRANCH  26  27
HETATM   27  C13 UNL     1     -23.596  39.356  -5.525  1.00  0.00     0.469 C 
HETATM   28  N4  UNL     1     -24.164  39.053  -6.833  1.00  0.00    -0.022 N 
HETATM   29  C14 UNL     1     -25.183  40.059  -7.068  1.00  0.00     0.272 C 
ATOM     30  H42 UNL     1     -23.469  38.997  -7.576  1.00  0.00     0.283 HD
ATOM     31  H41 UNL     1     -24.510  38.098  -6.914  1.00  0.00     0.283 HD
HETATM   32  C15 UNL     1     -24.741  41.165  -6.138  1.00  0.00     0.175 C 
HETATM   33  O5  UNL     1     -24.317  40.438  -5.025  1.00  0.00    -0.330 OA
BRANCH  32  34
HETATM   34  C16 UNL     1     -25.885  42.081  -5.767  1.00  0.00     0.197 C 
BRANCH  34  35
HETATM   35  O4  UNL     1     -25.581  43.359  -6.228  1.00  0.00    -0.398 OA
ATOM     36  H4  UNL     1     -26.344  43.697  -6.683  1.00  0.00     0.209 HD
ENDBRANCH  34  35
ENDBRANCH  32  34
ENDBRANCH  26  27
ENDBRANCH  25  26
ENDBRANCH   6  25
TORSDOF 11
ENDMDL
MODEL 3
REMARK VINA RESULT: -8.182524807      1.963      2.841
REMARK  11 active torsions:
REMARK  status: ('A' for Active; 'I' for Inactive)
REMARK    1  A    between atoms: C2_2  and  O1_5 
REMARK    2  A    between atoms: O1_5  and  C5_6 
REMARK    3  A    between atoms: C5_6  and  C6_10 
REMARK    4  A    between atoms: C7_14  and  O2_15 
REMARK    5  A    between atoms: O2_15  and  C8_16 
REMARK    6  A    between atoms: C8_16  and  C9_17 
REMARK    7  A    between atoms: C11_22  and  C12_23 
REMARK    8  A    between atoms: C12_23  and  O3_24 
REMARK    9  A    between atoms: O3_24  and  C13_25 
REMARK   10  A    between atoms: C15_30  and  C16_31 
REMARK   11  A    between atoms: C16_31  and  O4_32 
ROOT
HETATM    1  C9  UNL     1     -21.206  36.968  -3.438  1.00  0.00     0.345 C 
HETATM    2  N3  UNL     1     -20.066  36.877  -4.318  1.00  0.00    -0.044 N 
ATOM      3  H31 UNL     1     -19.549  35.999  -4.276  1.00  0.00     0.280 HD
ATOM      4  H32 UNL     1     -19.269  37.462  -4.063  1.00  0.00     0.280 HD
HETATM    5  C10 UNL     1     -20.685  37.184  -5.614  1.00  0.00     0.269 C 
HETATM    6  C11 UNL     1     -21.990  36.443  -5.481  1.00  0.00     0.174 C 
HETATM    7  O6  UNL     1     -22.325  36.557  -4.158  1.00  0.00    -0.348 OA
ENDROOT
BRANCH   1   8
HETATM    8  C8  UNL     1     -21.323  38.396  -2.973  1.00  0.00     0.234 C 
BRANCH   8   9
HETATM    9  O2  UNL     1     -20.563  38.559  -1.835  1.00  0.00    -0.335 OA
BRANCH   9  10
HETATM   10  C7  UNL     1     -20.788  37.652  -0.831  1.00  0.00     0.475 C 
HETATM   11  N2  UNL     1     -19.781  37.774   0.226  1.00  0.00     0.009 N 
HETATM   12  C6  UNL     1     -20.743  38.722   0.790  1.00  0.00     0.405 C 
ATOM     13  H22 UNL     1     -18.807  38.014   0.042  1.00  0.00     0.286 HD
ATOM     14  H21 UNL     1     -19.420  36.974   0.745  1.00  0.00     0.286 HD
HETATM   15  O7  UNL     1     -21.745  38.030   0.115  1.00  0.00    -0.298 OA
BRANCH  12  16
HETATM   16  C5  UNL     1     -20.798  38.581   2.277  1.00  0.00     0.170 C 
HETATM   17  N1  UNL     1     -21.917  38.595   2.922  1.00  0.00    -0.380 N 
ATOM     18  H12 UNL     1     -21.954  38.498   3.937  1.00  0.00     0.158 HD
ATOM     19  H11 UNL     1     -22.762  38.707   2.363  1.00  0.00     0.158 HD
BRANCH  16  20
HETATM   20  O1  UNL     1     -19.647  38.428   3.038  1.00  0.00    -0.326 OA
BRANCH  20  21
HETATM   21  C2  UNL     1     -18.893  39.515   3.493  1.00  0.00     0.058 C 
HETATM   22  C1  UNL     1     -19.322  40.829   2.911  1.00  0.00     0.045 C 
HETATM   23  C3  UNL     1     -18.835  39.635   4.984  1.00  0.00     0.045 C 
HETATM   24  C4  UNL     1     -17.453  39.275   3.018  1.00  0.00     0.045 C 
ENDBRANCH  20  21
ENDBRANCH  16  20
ENDBRANCH  12  16
ENDBRANCH   9  10
ENDBRANCH   8   9
ENDBRANCH   1   8
BRANCH   6  25
HETATM   25  C12 UNL     1     -23.048  37.001  -6.406  1.00  0.00     0.206 C 
BRANCH  25  26
HETATM   26  O3  UNL     1     -23.851  37.959  -5.835  1.00  0.00    -0.337 OA
BRANCH  26  27
HETATM   27  C13 UNL     1     -23.761  39.220  -6.357  1.00  0.00     0.469 C 
HETATM   28  N4  UNL     1     -24.592  39.317  -7.551  1.00  0.00    -0.022 N 
HETATM   29  C14 UNL     1     -25.471  40.451  -7.333  1.00  0.00     0.272 C 
ATOM     30  H42 UNL     1     -24.056  39.378  -8.416  1.00  0.00     0.283 HD
ATOM     31  H41 UNL     1     -25.089  38.455  -7.773  1.00  0.00     0.283 HD
HETATM   32  C15 UNL     1     -24.708  41.235  -6.291  1.00  0.00     0.175 C 
HETATM   33  O5  UNL     1     -24.209  40.210  -5.485  1.00  0.00    -0.330 OA
BRANCH  32  34
HETATM   34  C16 UNL     1     -25.615  42.142  -5.491  1.00  0.00     0.197 C 
BRANCH  34  35
HETATM   35  O4  UNL     1     -25.726  43.351  -6.173  1.00  0.00    -0.398 OA
ATOM     36  H4  UNL     1     -26.251  43.939  -5.645  1.00  0.00     0.209 HD
ENDBRANCH  34  35
ENDBRANCH  32  34
ENDBRANCH  26  27
ENDBRANCH  25  26
ENDBRANCH   6  25
TORSDOF 11
ENDMDL
MODEL 4
REMARK VINA RESULT: -8.118627092      1.291      1.685
REMARK  11 active torsions:
REMARK  status: ('A' for Active; 'I' for Inactive)
REMARK    1  A    between atoms: C2_2  and  O1_5 
REMARK    2  A    between atoms: O1_5  and  C5_6 
REMARK    3  A    between atoms: C5_6  and  C6_10 
REMARK    4  A    between atoms: C7_14  and  O2_15 
REMARK    5  A    between atoms: O2_15  and  C8_16 
REMARK    6  A    between atoms: C8_16  and  C9_17 
REMARK    7  A    between atoms: C11_22  and  C12_23 
REMARK    8  A    between atoms: C12_23  and  O3_24 
REMARK    9  A    between atoms: O3_24  and  C13_25 
REMARK   10  A    between atoms: C15_30  and  C16_31 
REMARK   11  A    between atoms: C16_31  and  O4_32 
ROOT
HETATM    1  C9  UNL     1     -22.570  37.627  -0.086  1.00  0.00     0.345 C 
HETATM    2  N3  UNL     1     -22.696  36.282  -0.592  1.00  0.00    -0.044 N 
ATOM      3  H31 UNL     1     -23.556  35.796  -0.336  1.00  0.00     0.280 HD
ATOM      4  H32 UNL     1     -22.076  35.594  -0.164  1.00  0.00     0.280 HD
HETATM    5  C10 UNL     1     -22.499  36.502  -2.031  1.00  0.00     0.269 C 
HETATM    6  C11 UNL     1     -23.260  37.788  -2.222  1.00  0.00     0.174 C 
HETATM    7  O6  UNL     1     -23.059  38.490  -1.063  1.00  0.00    -0.348 OA
ENDROOT
BRANCH   1   8
HETATM    8  C8  UNL     1     -21.116  37.877   0.216  1.00  0.00     0.234 C 
BRANCH   8   9
HETATM    9  O2  UNL     1     -20.983  39.137   0.759  1.00  0.00    -0.335 OA
BRANCH   9  10
HETATM   10  C7  UNL     1     -20.240  39.217   1.909  1.00  0.00     0.475 C 
HETATM   11  N2  UNL     1     -18.832  39.490   1.611  1.00  0.00     0.009 N 
HETATM   12  C6  UNL     1     -19.260  40.885   1.723  1.00  0.00     0.405 C 
ATOM     13  H22 UNL     1     -18.355  39.119   0.789  1.00  0.00     0.286 HD
ATOM     14  H21 UNL     1     -18.063  39.099   2.154  1.00  0.00     0.286 HD
HETATM   15  O7  UNL     1     -20.281  40.452   2.564  1.00  0.00    -0.298 OA
BRANCH  12  16
HETATM   16  C5  UNL     1     -18.207  41.696   2.406  1.00  0.00     0.170 C 
HETATM   17  N1  UNL     1     -18.144  42.980   2.275  1.00  0.00    -0.380 N 
ATOM     18  H12 UNL     1     -17.426  43.534   2.741  1.00  0.00     0.158 HD
ATOM     19  H11 UNL     1     -18.851  43.411   1.680  1.00  0.00     0.158 HD
BRANCH  16  20
HETATM   20  O1  UNL     1     -17.245  41.109   3.215  1.00  0.00    -0.326 OA
BRANCH  20  21
HETATM   21  C2  UNL     1     -17.337  41.095   4.611  1.00  0.00     0.058 C 
HETATM   22  C1  UNL     1     -17.551  42.453   5.212  1.00  0.00     0.045 C 
HETATM   23  C3  UNL     1     -18.372  40.154   5.145  1.00  0.00     0.045 C 
HETATM   24  C4  UNL     1     -15.982  40.596   5.131  1.00  0.00     0.045 C 
ENDBRANCH  20  21
ENDBRANCH  16  20
ENDBRANCH  12  16
ENDBRANCH   9  10
ENDBRANCH   8   9
ENDBRANCH   1   8
BRANCH   6  25
HETATM   25  C12 UNL     1     -22.797  38.536  -3.451  1.00  0.00     0.206 C 
BRANCH  25  26
HETATM   26  O3  UNL     1     -23.648  38.440  -4.527  1.00  0.00    -0.337 OA
BRANCH  26  27
HETATM   27  C13 UNL     1     -23.610  39.469  -5.427  1.00  0.00     0.469 C 
HETATM   28  N4  UNL     1     -24.204  39.040  -6.688  1.00  0.00    -0.022 N 
HETATM   29  C14 UNL     1     -25.236  40.013  -6.994  1.00  0.00     0.272 C 
ATOM     30  H42 UNL     1     -23.523  38.918  -7.437  1.00  0.00     0.283 HD
ATOM     31  H41 UNL     1     -24.543  38.078  -6.671  1.00  0.00     0.283 HD
HETATM   32  C15 UNL     1     -24.783  41.204  -6.184  1.00  0.00     0.175 C 
HETATM   33  O5  UNL     1     -24.330  40.588  -5.016  1.00  0.00    -0.330 OA
BRANCH  32  34
HETATM   34  C16 UNL     1     -25.927  42.144  -5.875  1.00  0.00     0.197 C 
BRANCH  34  35
HETATM   35  O4  UNL     1     -25.520  43.437  -6.191  1.00  0.00    -0.398 OA
ATOM     36  H4  UNL     1     -26.297  43.973  -6.294  1.00  0.00     0.209 HD
ENDBRANCH  34  35
ENDBRANCH  32  34
ENDBRANCH  26  27
ENDBRANCH  25  26
ENDBRANCH   6  25
TORSDOF 11
ENDMDL
MODEL 5
REMARK VINA RESULT: -8.055147117      1.446      1.904
REMARK  11 active torsions:
REMARK  status: ('A' for Active; 'I' for Inactive)
REMARK    1  A    between atoms: C2_2  and  O1_5 
REMARK    2  A    between atoms: O1_5  and  C5_6 
REMARK    3  A    between atoms: C5_6  and  C6_10 
REMARK    4  A    between atoms: C7_14  and  O2_15 
REMARK    5  A    between atoms: O2_15  and  C8_16 
REMARK    6  A    between atoms: C8_16  and  C9_17 
REMARK    7  A    between atoms: C11_22  and  C12_23 
REMARK    8  A    between atoms: C12_23  and  O3_24 
REMARK    9  A    between atoms: O3_24  and  C13_25 
REMARK   10  A    between atoms: C15_30  and  C16_31 
REMARK   11  A    between atoms: C16_31  and  O4_32 
ROOT
HETATM    1  C9  UNL     1     -22.800  37.518  -0.089  1.00  0.00     0.345 C 
HETATM    2  N3  UNL     1     -22.724  36.184  -0.632  1.00  0.00    -0.044 N 
ATOM      3  H31 UNL     1     -23.541  35.596  -0.466  1.00  0.00     0.280 HD
ATOM      4  H32 UNL     1     -22.068  35.558  -0.166  1.00  0.00     0.280 HD
HETATM    5  C10 UNL     1     -22.429  36.470  -2.042  1.00  0.00     0.269 C 
HETATM    6  C11 UNL     1     -23.315  37.666  -2.275  1.00  0.00     0.174 C 
HETATM    7  O6  UNL     1     -23.299  38.350  -1.087  1.00  0.00    -0.348 OA
ENDROOT
BRANCH   1   8
HETATM    8  C8  UNL     1     -21.417  37.923   0.349  1.00  0.00     0.234 C 
BRANCH   8   9
HETATM    9  O2  UNL     1     -21.499  38.533   1.582  1.00  0.00    -0.335 OA
BRANCH   9  10
HETATM   10  C7  UNL     1     -20.326  38.614   2.288  1.00  0.00     0.475 C 
HETATM   11  N2  UNL     1     -19.277  39.260   1.495  1.00  0.00     0.009 N 
HETATM   12  C6  UNL     1     -19.801  40.477   2.115  1.00  0.00     0.405 C 
ATOM     13  H22 UNL     1     -19.191  39.143   0.485  1.00  0.00     0.286 HD
ATOM     14  H21 UNL     1     -18.295  38.988   1.545  1.00  0.00     0.286 HD
HETATM   15  O7  UNL     1     -20.236  39.690   3.177  1.00  0.00    -0.298 OA
BRANCH  12  16
HETATM   16  C5  UNL     1     -18.681  41.405   2.460  1.00  0.00     0.170 C 
HETATM   17  N1  UNL     1     -18.572  41.934   3.633  1.00  0.00    -0.380 N 
ATOM     18  H12 UNL     1     -17.807  42.567   3.869  1.00  0.00     0.158 HD
ATOM     19  H11 UNL     1     -19.290  41.686   4.313  1.00  0.00     0.158 HD
BRANCH  16  20
HETATM   20  O1  UNL     1     -17.703  41.744   1.534  1.00  0.00    -0.326 OA
BRANCH  20  21
HETATM   21  C2  UNL     1     -17.961  42.560   0.428  1.00  0.00     0.058 C 
HETATM   22  C1  UNL     1     -18.059  41.806  -0.864  1.00  0.00     0.045 C 
HETATM   23  C3  UNL     1     -19.170  43.430   0.580  1.00  0.00     0.045 C 
HETATM   24  C4  UNL     1     -16.758  43.504   0.294  1.00  0.00     0.045 C 
ENDBRANCH  20  21
ENDBRANCH  16  20
ENDBRANCH  12  16
ENDBRANCH   9  10
ENDBRANCH   8   9
ENDBRANCH   1   8
BRANCH   6  25
HETATM   25  C12 UNL     1     -22.836  38.501  -3.441  1.00  0.00     0.206 C 
BRANCH  25  26
HETATM   26  O3  UNL     1     -23.616  38.399  -4.568  1.00  0.00    -0.337 OA
BRANCH  26  27
HETATM   27  C13 UNL     1     -23.576  39.456  -5.435  1.00  0.00     0.469 C 
HETATM   28  N4  UNL     1     -24.139  39.059  -6.720  1.00  0.00    -0.022 N 
HETATM   29  C14 UNL     1     -25.179  40.026  -7.016  1.00  0.00     0.272 C 
ATOM     30  H42 UNL     1     -23.442  38.971  -7.459  1.00  0.00     0.283 HD
ATOM     31  H41 UNL     1     -24.464  38.093  -6.741  1.00  0.00     0.283 HD
HETATM   32  C15 UNL     1     -24.760  41.198  -6.159  1.00  0.00     0.175 C 
HETATM   33  O5  UNL     1     -24.320  40.551  -5.002  1.00  0.00    -0.330 OA
BRANCH  32  34
HETATM   34  C16 UNL     1     -25.924  42.110  -5.844  1.00  0.00     0.197 C 
BRANCH  34  35
HETATM   35  O4  UNL     1     -25.564  43.406  -6.202  1.00  0.00    -0.398 OA
ATOM     36  H4  UNL     1     -26.168  44.006  -5.782  1.00  0.00     0.209 HD
ENDBRANCH  34  35
ENDBRANCH  32  34
ENDBRANCH  26  27
ENDBRANCH  25  26
ENDBRANCH   6  25
TORSDOF 11
ENDMDL
