MODEL 1
REMARK VINA RESULT: -7.038739900      0.000      0.000
REMARK  4 active torsions:
REMARK  status: ('A' for Active; 'I' for Inactive)
REMARK    1  A    between atoms: C2_2  and  O2_4 
REMARK    2  A    between atoms: O2_4  and  C3_5 
REMARK    3  A    between atoms: C4_6  and  C5_7 
REMARK    4  A    between atoms: C13_18  and  O6_19 
ROOT
HETATM    1  C3  UNL     1       3.792  33.896  25.434  1.00  0.00     0.145 C 
HETATM    2  C4  UNL     1       4.560  35.140  25.798  1.00  0.00     0.036 C 
HETATM    3  C8  UNL     1       3.732  36.318  25.388  1.00  0.00     0.039 C 
HETATM    4  C9  UNL     1       4.059  36.855  24.058  1.00  0.00     0.025 C 
HETATM    5  C10 UNL     1       3.793  37.484  26.312  1.00  0.00     0.212 C 
HETATM    6  O3  UNL     1       4.629  37.687  27.197  1.00  0.00    -0.288 OA
HETATM    7  C11 UNL     1       2.715  38.445  26.086  1.00  0.00     0.266 C 
HETATM    8  O4  UNL     1       2.840  39.635  26.499  1.00  0.00    -0.280 OA
HETATM    9  C12 UNL     1       1.485  38.009  25.371  1.00  0.00     0.231 C 
HETATM   10  O5  UNL     1       0.631  38.879  25.016  1.00  0.00    -0.286 OA
HETATM   11  C13 UNL     1       1.229  36.578  25.061  1.00  0.00     0.202 C 
HETATM   12  C14 UNL     1       2.328  35.773  25.574  1.00  0.00     0.049 C 
HETATM   13  C15 UNL     1       2.346  34.313  25.347  1.00  0.00    -0.013 C 
HETATM   14  C16 UNL     1       1.579  33.552  26.432  1.00  0.00     0.018 C 
HETATM   15  C17 UNL     1       1.637  33.833  24.119  1.00  0.00     0.018 C 
ENDROOT
BRANCH   1  16
HETATM   16  O2  UNL     1       4.265  33.060  24.482  1.00  0.00    -0.315 OA
BRANCH  16  17
HETATM   17  C2  UNL     1       4.626  31.790  24.354  1.00  0.00     0.255 C 
HETATM   18  C1  UNL     1       6.001  31.250  24.229  1.00  0.00     0.126 C 
HETATM   19  O1  UNL     1       3.672  31.015  24.346  1.00  0.00    -0.266 OA
ENDBRANCH  16  17
ENDBRANCH   1  16
BRANCH   2  20
HETATM   20  C5  UNL     1       5.965  35.072  25.393  1.00  0.00    -0.015 C 
HETATM   21  C6  UNL     1       6.694  34.193  26.395  1.00  0.00     0.010 C 
HETATM   22  C7  UNL     1       6.749  36.311  25.228  1.00  0.00     0.010 C 
ENDBRANCH   2  20
BRANCH  11  23
HETATM   23  O6  UNL     1       0.879  36.484  23.744  1.00  0.00    -0.387 OA
ATOM     24  H6  UNL     1       0.553  35.605  23.586  1.00  0.00     0.210 HD
ENDBRANCH  11  23
TORSDOF 4
ENDMDL
MODEL 2
REMARK VINA RESULT: -6.872218833      2.131      4.517
REMARK  4 active torsions:
REMARK  status: ('A' for Active; 'I' for Inactive)
REMARK    1  A    between atoms: C2_2  and  O2_4 
REMARK    2  A    between atoms: O2_4  and  C3_5 
REMARK    3  A    between atoms: C4_6  and  C5_7 
REMARK    4  A    between atoms: C13_18  and  O6_19 
ROOT
HETATM    1  C3  UNL     1       4.247  37.200  25.965  1.00  0.00     0.145 C 
HETATM    2  C4  UNL     1       3.629  36.280  24.945  1.00  0.00     0.036 C 
HETATM    3  C8  UNL     1       2.422  36.967  24.388  1.00  0.00     0.039 C 
HETATM    4  C9  UNL     1       1.159  36.605  25.051  1.00  0.00     0.025 C 
HETATM    5  C10 UNL     1       2.184  36.743  22.935  1.00  0.00     0.212 C 
HETATM    6  O3  UNL     1       2.689  35.870  22.225  1.00  0.00    -0.288 OA
HETATM    7  C11 UNL     1       1.240  37.701  22.360  1.00  0.00     0.266 C 
HETATM    8  O4  UNL     1       0.647  37.423  21.277  1.00  0.00    -0.280 OA
HETATM    9  C12 UNL     1       0.991  38.991  23.060  1.00  0.00     0.231 C 
HETATM   10  O5  UNL     1       0.045  39.740  22.663  1.00  0.00    -0.286 OA
HETATM   11  C13 UNL     1       1.821  39.426  24.213  1.00  0.00     0.202 C 
HETATM   12  C14 UNL     1       2.842  38.422  24.474  1.00  0.00     0.049 C 
HETATM   13  C15 UNL     1       3.770  38.587  25.612  1.00  0.00    -0.013 C 
HETATM   14  C16 UNL     1       5.001  39.417  25.236  1.00  0.00     0.018 C 
HETATM   15  C17 UNL     1       3.248  39.375  26.772  1.00  0.00     0.018 C 
ENDROOT
BRANCH   1  16
HETATM   16  O2  UNL     1       4.261  36.854  27.272  1.00  0.00    -0.315 OA
BRANCH  16  17
HETATM   17  C2  UNL     1       5.141  36.525  28.210  1.00  0.00     0.255 C 
HETATM   18  C1  UNL     1       6.504  35.975  28.018  1.00  0.00     0.126 C 
HETATM   19  O1  UNL     1       4.725  36.718  29.350  1.00  0.00    -0.266 OA
ENDBRANCH  16  17
ENDBRANCH   1  16
BRANCH   2  20
HETATM   20  C5  UNL     1       3.515  34.902  25.428  1.00  0.00    -0.015 C 
HETATM   21  C6  UNL     1       4.842  34.209  25.169  1.00  0.00     0.010 C 
HETATM   22  C7  UNL     1       2.443  34.026  24.920  1.00  0.00     0.010 C 
ENDBRANCH   2  20
BRANCH  11  23
HETATM   23  O6  UNL     1       0.982  39.814  25.219  1.00  0.00    -0.387 OA
ATOM     24  H6  UNL     1       0.154  39.361  25.106  1.00  0.00     0.210 HD
ENDBRANCH  11  23
TORSDOF 4
ENDMDL
MODEL 3
REMARK VINA RESULT: -6.767416267      1.256      1.436
REMARK  4 active torsions:
REMARK  status: ('A' for Active; 'I' for Inactive)
REMARK    1  A    between atoms: C2_2  and  O2_4 
REMARK    2  A    between atoms: O2_4  and  C3_5 
REMARK    3  A    between atoms: C4_6  and  C5_7 
REMARK    4  A    between atoms: C13_18  and  O6_19 
ROOT
HETATM    1  C3  UNL     1       4.744  34.621  25.779  1.00  0.00     0.145 C 
HETATM    2  C4  UNL     1       5.163  35.952  26.346  1.00  0.00     0.036 C 
HETATM    3  C8  UNL     1       4.264  36.996  25.761  1.00  0.00     0.039 C 
HETATM    4  C9  UNL     1       4.808  37.662  24.567  1.00  0.00     0.025 C 
HETATM    5  C10 UNL     1       3.887  38.096  26.690  1.00  0.00     0.212 C 
HETATM    6  O3  UNL     1       4.429  38.383  27.761  1.00  0.00    -0.288 OA
HETATM    7  C11 UNL     1       2.744  38.875  26.215  1.00  0.00     0.266 C 
HETATM    8  O4  UNL     1       2.548  40.040  26.667  1.00  0.00    -0.280 OA
HETATM    9  C12 UNL     1       1.826  38.282  25.205  1.00  0.00     0.231 C 
HETATM   10  O5  UNL     1       0.944  39.016  24.660  1.00  0.00    -0.286 OA
HETATM   11  C13 UNL     1       1.914  36.850  24.815  1.00  0.00     0.202 C 
HETATM   12  C14 UNL     1       2.979  36.212  25.575  1.00  0.00     0.049 C 
HETATM   13  C15 UNL     1       3.313  34.793  25.335  1.00  0.00    -0.013 C 
HETATM   14  C16 UNL     1       2.451  33.848  26.177  1.00  0.00     0.018 C 
HETATM   15  C17 UNL     1       3.026  34.278  23.960  1.00  0.00     0.018 C 
ENDROOT
BRANCH   1  16
HETATM   16  O2  UNL     1       5.578  33.938  24.962  1.00  0.00    -0.315 OA
BRANCH  16  17
HETATM   17  C2  UNL     1       6.216  32.775  24.930  1.00  0.00     0.255 C 
HETATM   18  C1  UNL     1       5.731  31.494  24.363  1.00  0.00     0.126 C 
HETATM   19  O1  UNL     1       7.332  32.822  25.442  1.00  0.00    -0.266 OA
ENDBRANCH  16  17
ENDBRANCH   1  16
BRANCH   2  20
HETATM   20  C5  UNL     1       6.613  36.147  26.310  1.00  0.00    -0.015 C 
HETATM   21  C6  UNL     1       7.178  35.676  27.639  1.00  0.00     0.010 C 
HETATM   22  C7  UNL     1       7.174  37.483  26.030  1.00  0.00     0.010 C 
ENDBRANCH   2  20
BRANCH  11  23
HETATM   23  O6  UNL     1       1.922  36.780  23.451  1.00  0.00    -0.387 OA
ATOM     24  H6  UNL     1       1.455  35.995  23.192  1.00  0.00     0.210 HD
ENDBRANCH  11  23
TORSDOF 4
ENDMDL
MODEL 4
REMARK VINA RESULT: -6.682824646      2.410      4.720
REMARK  4 active torsions:
REMARK  status: ('A' for Active; 'I' for Inactive)
REMARK    1  A    between atoms: C2_2  and  O2_4 
REMARK    2  A    between atoms: O2_4  and  C3_5 
REMARK    3  A    between atoms: C4_6  and  C5_7 
REMARK    4  A    between atoms: C13_18  and  O6_19 
ROOT
HETATM    1  C3  UNL     1       4.206  37.432  26.003  1.00  0.00     0.145 C 
HETATM    2  C4  UNL     1       3.303  36.813  24.968  1.00  0.00     0.036 C 
HETATM    3  C8  UNL     1       2.265  37.828  24.608  1.00  0.00     0.039 C 
HETATM    4  C9  UNL     1       1.007  37.701  25.361  1.00  0.00     0.025 C 
HETATM    5  C10 UNL     1       1.867  37.842  23.174  1.00  0.00     0.212 C 
HETATM    6  O3  UNL     1       2.085  36.965  22.334  1.00  0.00    -0.288 OA
HETATM    7  C11 UNL     1       1.149  39.058  22.795  1.00  0.00     0.266 C 
HETATM    8  O4  UNL     1       0.424  39.060  21.757  1.00  0.00    -0.280 OA
HETATM    9  C12 UNL     1       1.281  40.278  23.638  1.00  0.00     0.231 C 
HETATM   10  O5  UNL     1       0.523  41.272  23.415  1.00  0.00    -0.286 OA
HETATM   11  C13 UNL     1       2.279  40.362  24.736  1.00  0.00     0.202 C 
HETATM   12  C14 UNL     1       3.037  39.121  24.791  1.00  0.00     0.049 C 
HETATM   13  C15 UNL     1       4.062  38.925  25.837  1.00  0.00    -0.013 C 
HETATM   14  C16 UNL     1       5.427  39.477  25.417  1.00  0.00     0.018 C 
HETATM   15  C17 UNL     1       3.843  39.670  27.115  1.00  0.00     0.018 C 
ENDROOT
BRANCH   1  16
HETATM   16  O2  UNL     1       4.236  36.940  27.262  1.00  0.00    -0.315 OA
BRANCH  16  17
HETATM   17  C2  UNL     1       5.126  36.522  28.153  1.00  0.00     0.255 C 
HETATM   18  C1  UNL     1       6.460  35.931  27.888  1.00  0.00     0.126 C 
HETATM   19  O1  UNL     1       4.751  36.664  29.314  1.00  0.00    -0.266 OA
ENDBRANCH  16  17
ENDBRANCH   1  16
BRANCH   2  20
HETATM   20  C5  UNL     1       2.890  35.455  25.325  1.00  0.00    -0.015 C 
HETATM   21  C6  UNL     1       4.065  34.529  25.067  1.00  0.00     0.010 C 
HETATM   22  C7  UNL     1       1.698  34.854  24.696  1.00  0.00     0.010 C 
ENDBRANCH   2  20
BRANCH  11  23
HETATM   23  O6  UNL     1       1.642  40.816  25.856  1.00  0.00    -0.387 OA
ATOM     24  H6  UNL     1       2.302  41.117  26.470  1.00  0.00     0.210 HD
ENDBRANCH  11  23
TORSDOF 4
ENDMDL
MODEL 5
REMARK VINA RESULT: -6.533467610      2.756      5.375
REMARK  4 active torsions:
REMARK  status: ('A' for Active; 'I' for Inactive)
REMARK    1  A    between atoms: C2_2  and  O2_4 
REMARK    2  A    between atoms: O2_4  and  C3_5 
REMARK    3  A    between atoms: C4_6  and  C5_7 
REMARK    4  A    between atoms: C13_18  and  O6_19 
ROOT
HETATM    1  C3  UNL     1       3.518  37.803  22.562  1.00  0.00     0.145 C 
HETATM    2  C4  UNL     1       3.431  36.823  23.703  1.00  0.00     0.036 C 
HETATM    3  C8  UNL     1       2.009  36.364  23.798  1.00  0.00     0.039 C 
HETATM    4  C9  UNL     1       1.194  37.117  24.765  1.00  0.00     0.025 C 
HETATM    5  C10 UNL     1       1.832  34.932  24.162  1.00  0.00     0.212 C 
HETATM    6  O3  UNL     1       2.681  34.177  24.644  1.00  0.00    -0.288 OA
HETATM    7  C11 UNL     1       0.483  34.439  23.887  1.00  0.00     0.266 C 
HETATM    8  O4  UNL     1       0.064  33.400  24.477  1.00  0.00    -0.280 OA
HETATM    9  C12 UNL     1      -0.378  35.168  22.917  1.00  0.00     0.231 C 
HETATM   10  O5  UNL     1      -1.603  34.850  22.813  1.00  0.00    -0.286 OA
HETATM   11  C13 UNL     1       0.160  36.260  22.065  1.00  0.00     0.202 C 
HETATM   12  C14 UNL     1       1.577  36.434  22.346  1.00  0.00     0.049 C 
HETATM   13  C15 UNL     1       2.342  37.501  21.667  1.00  0.00    -0.013 C 
HETATM   14  C16 UNL     1       2.896  37.042  20.316  1.00  0.00     0.018 C 
HETATM   15  C17 UNL     1       1.557  38.704  21.251  1.00  0.00     0.018 C 
ENDROOT
BRANCH   1  16
HETATM   16  O2  UNL     1       3.807  39.102  22.803  1.00  0.00    -0.315 OA
BRANCH  16  17
HETATM   17  C2  UNL     1       4.717  40.005  22.458  1.00  0.00     0.255 C 
HETATM   18  C1  UNL     1       6.083  39.759  21.940  1.00  0.00     0.126 C 
HETATM   19  O1  UNL     1       4.328  41.161  22.605  1.00  0.00    -0.266 OA
ENDBRANCH  16  17
ENDBRANCH   1  16
BRANCH   2  20
HETATM   20  C5  UNL     1       4.116  37.299  24.906  1.00  0.00    -0.015 C 
HETATM   21  C6  UNL     1       5.610  37.136  24.684  1.00  0.00     0.010 C 
HETATM   22  C7  UNL     1       3.791  36.718  26.223  1.00  0.00     0.010 C 
ENDBRANCH   2  20
BRANCH  11  23
HETATM   23  O6  UNL     1      -0.685  37.330  22.161  1.00  0.00    -0.387 OA
ATOM     24  H6  UNL     1      -0.569  37.870  21.388  1.00  0.00     0.210 HD
ENDBRANCH  11  23
TORSDOF 4
ENDMDL
