MODEL 1
REMARK VINA RESULT: -8.495304020      0.000      0.000
REMARK  14 active torsions:
REMARK  status: ('A' for Active; 'I' for Inactive)
REMARK    1  A    between atoms: C2_2  and  C4_4 
REMARK    2  A    between atoms: N2_14  and  C13_15 
REMARK    3  A    between atoms: C13_15  and  C14_16 
REMARK    4  A    between atoms: C14_16  and  C15_17 
REMARK    5  A    between atoms: C15_17  and  C16_18 
REMARK    6  A    between atoms: C16_18  and  C17_19 
REMARK    7  A    between atoms: C17_19  and  N3_20 
REMARK    8  A    between atoms: N4_23  and  C20_24 
REMARK    9  A    between atoms: C20_24  and  C21_25 
REMARK   10  A    between atoms: C21_25  and  O1_26 
REMARK   11  A    between atoms: C21_25  and  C22_28 
REMARK   12  A    between atoms: C22_28  and  N5_29 
REMARK   13  A    between atoms: N5_29  and  S1_31 
REMARK   14  A    between atoms: C23_35  and  C24_36 
ROOT
HETATM    1  N3  UNL     1      18.361  30.873  14.028  1.00  0.00    -0.348 N 
HETATM    2  C18 UNL     1      19.603  30.609  14.770  1.00  0.00     0.156 C 
HETATM    3  C19 UNL     1      19.875  29.133  14.642  1.00  0.00     0.293 C 
HETATM    4  N4  UNL     1      20.073  28.768  13.272  1.00  0.00     0.115 N 
HETATM    5  C23 UNL     1      18.922  28.990  12.443  1.00  0.00     0.420 C 
HETATM    6  C25 UNL     1      18.033  30.052  12.907  1.00  0.00     0.262 C 
HETATM    7  O5  UNL     1      16.939  30.275  12.327  1.00  0.00    -0.271 OA
ENDROOT
BRANCH   1   8
HETATM    8  C17 UNL     1      17.498  31.939  14.415  1.00  0.00     0.126 C 
BRANCH   8   9
HETATM    9  C16 UNL     1      17.226  32.030  15.899  1.00  0.00     0.020 C 
BRANCH   9  10
HETATM   10  C15 UNL     1      16.328  33.187  16.256  1.00  0.00     0.003 C 
BRANCH  10  11
HETATM   11  C14 UNL     1      16.942  33.894  17.456  1.00  0.00     0.030 C 
BRANCH  11  12
HETATM   12  C13 UNL     1      18.442  33.882  17.432  1.00  0.00     0.273 C 
BRANCH  12  13
HETATM   13  N2  UNL     1      19.016  35.071  16.831  1.00  0.00     0.097 N 
HETATM   14  C4  UNL     1      19.900  35.693  17.778  1.00  0.00     0.243 C 
HETATM   15  C5  UNL     1      21.009  34.773  18.103  1.00  0.00     0.153 C 
HETATM   16  N1  UNL     1      21.678  34.141  17.024  1.00  0.00    -0.404 N 
HETATM   17  C6  UNL     1      22.463  33.064  17.533  1.00  0.00     0.117 C 
HETATM   18  C11 UNL     1      20.957  33.918  15.842  1.00  0.00     0.107 C 
HETATM   19  C7  UNL     1      22.925  32.049  16.552  1.00  0.00     0.019 C 
HETATM   20  C8  UNL     1      23.607  32.616  15.351  1.00  0.00     0.002 C 
HETATM   21  C9  UNL     1      22.643  32.991  14.249  1.00  0.00     0.002 C 
HETATM   22  C10 UNL     1      21.886  34.219  14.655  1.00  0.00     0.027 C 
HETATM   23  C12 UNL     1      19.737  34.756  15.634  1.00  0.00     0.297 C 
BRANCH  14  24
HETATM   24  C2  UNL     1      20.343  37.069  17.344  1.00  0.00     0.012 C 
HETATM   25  C1  UNL     1      21.662  37.443  17.977  1.00  0.00     0.012 C 
HETATM   26  C3  UNL     1      19.312  38.090  17.777  1.00  0.00     0.012 C 
ENDBRANCH  14  24
ENDBRANCH  12  13
ENDBRANCH  11  12
ENDBRANCH  10  11
ENDBRANCH   9  10
ENDBRANCH   8   9
ENDBRANCH   1   8
BRANCH   5  27
HETATM   27  C24 UNL     1      18.229  27.680  12.209  1.00  0.00     0.427 C 
HETATM   28  F1  UNL     1      17.508  27.667  11.031  1.00  0.00    -0.168 F 
HETATM   29  F2  UNL     1      19.121  26.629  12.131  1.00  0.00    -0.168 F 
HETATM   30  F3  UNL     1      17.337  27.367  13.217  1.00  0.00    -0.168 F 
ENDBRANCH   5  27
BRANCH   4  31
HETATM   31  C20 UNL     1      21.292  29.239  12.679  1.00  0.00     0.307 C 
BRANCH  31  32
HETATM   32  C21 UNL     1      22.496  28.528  13.254  1.00  0.00     0.165 C 
BRANCH  32  33
HETATM   33  O1  UNL     1      23.052  29.327  14.275  1.00  0.00    -0.392 OA
ATOM     34  H1  UNL     1      23.472  28.762  14.913  1.00  0.00     0.210 HD
ENDBRANCH  32  33
BRANCH  32  35
HETATM   35  C22 UNL     1      23.577  28.378  12.177  1.00  0.00     0.168 C 
BRANCH  35  36
HETATM   36  N5  UNL     1      22.896  27.739  11.044  1.00  0.00    -0.298 N 
ATOM     37  H5  UNL     1      22.333  28.208  10.335  1.00  0.00     0.174 HD
BRANCH  36  38
HETATM   38  S1  UNL     1      23.225  26.051  11.135  1.00  0.00     0.204 S 
HETATM   39  O2  UNL     1      22.089  25.325  11.798  1.00  0.00    -0.578 OA
HETATM   40  O3  UNL     1      23.364  25.499   9.742  1.00  0.00    -0.578 OA
HETATM   41  O4  UNL     1      24.674  25.827  11.989  1.00  0.00    -0.578 OA
ENDBRANCH  36  38
ENDBRANCH  35  36
ENDBRANCH  32  35
ENDBRANCH  31  32
ENDBRANCH   4  31
TORSDOF 14
ENDMDL
MODEL 2
REMARK VINA RESULT: -8.485855424      4.714      9.169
REMARK  14 active torsions:
REMARK  status: ('A' for Active; 'I' for Inactive)
REMARK    1  A    between atoms: C2_2  and  C4_4 
REMARK    2  A    between atoms: N2_14  and  C13_15 
REMARK    3  A    between atoms: C13_15  and  C14_16 
REMARK    4  A    between atoms: C14_16  and  C15_17 
REMARK    5  A    between atoms: C15_17  and  C16_18 
REMARK    6  A    between atoms: C16_18  and  C17_19 
REMARK    7  A    between atoms: C17_19  and  N3_20 
REMARK    8  A    between atoms: N4_23  and  C20_24 
REMARK    9  A    between atoms: C20_24  and  C21_25 
REMARK   10  A    between atoms: C21_25  and  O1_26 
REMARK   11  A    between atoms: C21_25  and  C22_28 
REMARK   12  A    between atoms: C22_28  and  N5_29 
REMARK   13  A    between atoms: N5_29  and  S1_31 
REMARK   14  A    between atoms: C23_35  and  C24_36 
ROOT
HETATM    1  N3  UNL     1      20.217  33.940  16.942  1.00  0.00    -0.348 N 
HETATM    2  C18 UNL     1      19.844  35.338  17.205  1.00  0.00     0.156 C 
HETATM    3  C19 UNL     1      18.480  35.540  16.599  1.00  0.00     0.293 C 
HETATM    4  N4  UNL     1      17.514  34.685  17.218  1.00  0.00     0.115 N 
HETATM    5  C23 UNL     1      17.781  33.285  17.034  1.00  0.00     0.420 C 
HETATM    6  C25 UNL     1      19.189  32.955  16.835  1.00  0.00     0.262 C 
HETATM    7  O5  UNL     1      19.542  31.778  16.561  1.00  0.00    -0.271 OA
ENDROOT
BRANCH   1   8
HETATM    8  C17 UNL     1      21.586  33.568  16.802  1.00  0.00     0.126 C 
BRANCH   8   9
HETATM    9  C16 UNL     1      22.156  33.753  15.416  1.00  0.00     0.020 C 
BRANCH   9  10
HETATM   10  C15 UNL     1      23.604  33.342  15.322  1.00  0.00     0.003 C 
BRANCH  10  11
HETATM   11  C14 UNL     1      23.680  32.120  14.419  1.00  0.00     0.030 C 
BRANCH  11  12
HETATM   12  C13 UNL     1      22.332  31.679  13.925  1.00  0.00     0.273 C 
BRANCH  12  13
HETATM   13  N2  UNL     1      22.400  30.831  12.751  1.00  0.00     0.097 N 
HETATM   14  C4  UNL     1      22.831  29.518  13.147  1.00  0.00     0.243 C 
HETATM   15  C5  UNL     1      21.842  28.928  14.073  1.00  0.00     0.153 C 
HETATM   16  N1  UNL     1      20.474  28.996  13.705  1.00  0.00    -0.404 N 
HETATM   17  C6  UNL     1      19.673  28.691  14.845  1.00  0.00     0.117 C 
HETATM   18  C11 UNL     1      20.064  30.058  12.887  1.00  0.00     0.107 C 
HETATM   19  C7  UNL     1      18.241  29.080  14.782  1.00  0.00     0.019 C 
HETATM   20  C8  UNL     1      17.528  28.615  13.555  1.00  0.00     0.002 C 
HETATM   21  C9  UNL     1      17.662  29.576  12.397  1.00  0.00     0.002 C 
HETATM   22  C10 UNL     1      19.061  29.508  11.861  1.00  0.00     0.027 C 
HETATM   23  C12 UNL     1      21.130  30.743  12.095  1.00  0.00     0.297 C 
BRANCH  14  24
HETATM   24  C2  UNL     1      23.180  28.640  11.970  1.00  0.00     0.012 C 
HETATM   25  C1  UNL     1      22.602  27.255  12.131  1.00  0.00     0.012 C 
HETATM   26  C3  UNL     1      24.685  28.509  11.868  1.00  0.00     0.012 C 
ENDBRANCH  14  24
ENDBRANCH  12  13
ENDBRANCH  11  12
ENDBRANCH  10  11
ENDBRANCH   9  10
ENDBRANCH   8   9
ENDBRANCH   1   8
BRANCH   5  27
HETATM   27  C24 UNL     1      16.877  32.755  15.959  1.00  0.00     0.427 C 
HETATM   28  F1  UNL     1      16.409  31.486  16.242  1.00  0.00    -0.168 F 
HETATM   29  F2  UNL     1      15.763  33.550  15.780  1.00  0.00    -0.168 F 
HETATM   30  F3  UNL     1      17.508  32.674  14.732  1.00  0.00    -0.168 F 
ENDBRANCH   5  27
BRANCH   4  31
HETATM   31  C20 UNL     1      17.174  35.018  18.572  1.00  0.00     0.307 C 
BRANCH  31  32
HETATM   32  C21 UNL     1      15.715  35.399  18.696  1.00  0.00     0.165 C 
BRANCH  32  33
HETATM   33  O1  UNL     1      14.928  34.237  18.544  1.00  0.00    -0.392 OA
ATOM     34  H1  UNL     1      14.933  33.755  19.363  1.00  0.00     0.210 HD
ENDBRANCH  32  33
BRANCH  32  35
HETATM   35  C22 UNL     1      15.324  36.345  17.555  1.00  0.00     0.168 C 
BRANCH  35  36
HETATM   36  N5  UNL     1      14.912  37.588  18.218  1.00  0.00    -0.298 N 
ATOM     37  H5  UNL     1      14.036  37.745  18.717  1.00  0.00     0.174 HD
BRANCH  36  38
HETATM   38  S1  UNL     1      16.181  38.731  17.999  1.00  0.00     0.204 S 
HETATM   39  O2  UNL     1      16.790  38.590  16.632  1.00  0.00    -0.578 OA
HETATM   40  O3  UNL     1      15.617  40.122  18.103  1.00  0.00    -0.578 OA
HETATM   41  O4  UNL     1      17.343  38.490  19.212  1.00  0.00    -0.578 OA
ENDBRANCH  36  38
ENDBRANCH  35  36
ENDBRANCH  32  35
ENDBRANCH  31  32
ENDBRANCH   4  31
TORSDOF 14
ENDMDL
MODEL 3
REMARK VINA RESULT: -8.431856299      4.282      8.892
REMARK  14 active torsions:
REMARK  status: ('A' for Active; 'I' for Inactive)
REMARK    1  A    between atoms: C2_2  and  C4_4 
REMARK    2  A    between atoms: N2_14  and  C13_15 
REMARK    3  A    between atoms: C13_15  and  C14_16 
REMARK    4  A    between atoms: C14_16  and  C15_17 
REMARK    5  A    between atoms: C15_17  and  C16_18 
REMARK    6  A    between atoms: C16_18  and  C17_19 
REMARK    7  A    between atoms: C17_19  and  N3_20 
REMARK    8  A    between atoms: N4_23  and  C20_24 
REMARK    9  A    between atoms: C20_24  and  C21_25 
REMARK   10  A    between atoms: C21_25  and  O1_26 
REMARK   11  A    between atoms: C21_25  and  C22_28 
REMARK   12  A    between atoms: C22_28  and  N5_29 
REMARK   13  A    between atoms: N5_29  and  S1_31 
REMARK   14  A    between atoms: C23_35  and  C24_36 
ROOT
HETATM    1  N3  UNL     1      21.685  33.557  16.963  1.00  0.00    -0.348 N 
HETATM    2  C18 UNL     1      21.728  34.963  17.392  1.00  0.00     0.156 C 
HETATM    3  C19 UNL     1      20.623  35.671  16.653  1.00  0.00     0.293 C 
HETATM    4  N4  UNL     1      19.346  35.126  16.999  1.00  0.00     0.115 N 
HETATM    5  C23 UNL     1      19.189  33.746  16.635  1.00  0.00     0.420 C 
HETATM    6  C25 UNL     1      20.436  32.988  16.571  1.00  0.00     0.262 C 
HETATM    7  O5  UNL     1      20.445  31.797  16.164  1.00  0.00    -0.271 OA
ENDROOT
BRANCH   1   8
HETATM    8  C17 UNL     1      22.871  32.768  16.947  1.00  0.00     0.126 C 
BRANCH   8   9
HETATM    9  C16 UNL     1      23.949  33.261  16.009  1.00  0.00     0.020 C 
BRANCH   9  10
HETATM   10  C15 UNL     1      23.518  33.241  14.564  1.00  0.00     0.003 C 
BRANCH  10  11
HETATM   11  C14 UNL     1      23.279  31.790  14.174  1.00  0.00     0.030 C 
BRANCH  11  12
HETATM   12  C13 UNL     1      22.070  31.615  13.301  1.00  0.00     0.273 C 
BRANCH  12  13
HETATM   13  N2  UNL     1      22.240  30.597  12.282  1.00  0.00     0.097 N 
HETATM   14  C4  UNL     1      22.741  29.399  12.898  1.00  0.00     0.243 C 
HETATM   15  C5  UNL     1      21.760  28.895  13.880  1.00  0.00     0.153 C 
HETATM   16  N1  UNL     1      20.405  28.804  13.470  1.00  0.00    -0.404 N 
HETATM   17  C6  UNL     1      19.583  28.630  14.622  1.00  0.00     0.117 C 
HETATM   18  C11 UNL     1      19.956  29.689  12.479  1.00  0.00     0.107 C 
HETATM   19  C7  UNL     1      18.132  28.899  14.458  1.00  0.00     0.019 C 
HETATM   20  C8  UNL     1      17.499  28.192  13.304  1.00  0.00     0.002 C 
HETATM   21  C9  UNL     1      17.613  28.962  12.009  1.00  0.00     0.002 C 
HETATM   22  C10 UNL     1      19.033  28.910  11.529  1.00  0.00     0.027 C 
HETATM   23  C12 UNL     1      21.004  30.314  11.615  1.00  0.00     0.297 C 
BRANCH  14  24
HETATM   24  C2  UNL     1      23.194  28.371  11.890  1.00  0.00     0.012 C 
HETATM   25  C1  UNL     1      22.617  27.011  12.200  1.00  0.00     0.012 C 
HETATM   26  C3  UNL     1      24.703  28.258  11.928  1.00  0.00     0.012 C 
ENDBRANCH  14  24
ENDBRANCH  12  13
ENDBRANCH  11  12
ENDBRANCH  10  11
ENDBRANCH   9  10
ENDBRANCH   8   9
ENDBRANCH   1   8
BRANCH   5  27
HETATM   27  C24 UNL     1      18.367  33.663  15.382  1.00  0.00     0.427 C 
HETATM   28  F1  UNL     1      17.648  34.819  15.145  1.00  0.00    -0.168 F 
HETATM   29  F2  UNL     1      19.147  33.454  14.263  1.00  0.00    -0.168 F 
HETATM   30  F3  UNL     1      17.446  32.633  15.421  1.00  0.00    -0.168 F 
ENDBRANCH   5  27
BRANCH   4  31
HETATM   31  C20 UNL     1      18.896  35.409  18.333  1.00  0.00     0.307 C 
BRANCH  31  32
HETATM   32  C21 UNL     1      18.672  36.890  18.537  1.00  0.00     0.165 C 
BRANCH  32  33
HETATM   33  O1  UNL     1      19.341  37.293  19.712  1.00  0.00    -0.392 OA
ATOM     34  H1  UNL     1      18.698  37.604  20.338  1.00  0.00     0.210 HD
ENDBRANCH  32  33
BRANCH  32  35
HETATM   35  C22 UNL     1      17.181  37.166  18.764  1.00  0.00     0.168 C 
BRANCH  35  36
HETATM   36  N5  UNL     1      16.541  36.871  17.476  1.00  0.00    -0.298 N 
ATOM     37  H5  UNL     1      16.808  37.250  16.568  1.00  0.00     0.174 HD
BRANCH  36  38
HETATM   38  S1  UNL     1      15.255  35.768  17.784  1.00  0.00     0.204 S 
HETATM   39  O2  UNL     1      13.939  36.492  17.838  1.00  0.00    -0.578 OA
HETATM   40  O3  UNL     1      15.179  34.772  16.660  1.00  0.00    -0.578 OA
HETATM   41  O4  UNL     1      15.570  34.965  19.245  1.00  0.00    -0.578 OA
ENDBRANCH  36  38
ENDBRANCH  35  36
ENDBRANCH  32  35
ENDBRANCH  31  32
ENDBRANCH   4  31
TORSDOF 14
ENDMDL
MODEL 4
REMARK VINA RESULT: -8.314282584      2.170      4.268
REMARK  14 active torsions:
REMARK  status: ('A' for Active; 'I' for Inactive)
REMARK    1  A    between atoms: C2_2  and  C4_4 
REMARK    2  A    between atoms: N2_14  and  C13_15 
REMARK    3  A    between atoms: C13_15  and  C14_16 
REMARK    4  A    between atoms: C14_16  and  C15_17 
REMARK    5  A    between atoms: C15_17  and  C16_18 
REMARK    6  A    between atoms: C16_18  and  C17_19 
REMARK    7  A    between atoms: C17_19  and  N3_20 
REMARK    8  A    between atoms: N4_23  and  C20_24 
REMARK    9  A    between atoms: C20_24  and  C21_25 
REMARK   10  A    between atoms: C21_25  and  O1_26 
REMARK   11  A    between atoms: C21_25  and  C22_28 
REMARK   12  A    between atoms: C22_28  and  N5_29 
REMARK   13  A    between atoms: N5_29  and  S1_31 
REMARK   14  A    between atoms: C23_35  and  C24_36 
ROOT
HETATM    1  N3  UNL     1      20.828  32.574  15.089  1.00  0.00    -0.348 N 
HETATM    2  C18 UNL     1      21.305  31.608  16.091  1.00  0.00     0.156 C 
HETATM    3  C19 UNL     1      20.273  30.513  16.156  1.00  0.00     0.293 C 
HETATM    4  N4  UNL     1      20.156  29.846  14.895  1.00  0.00     0.115 N 
HETATM    5  C23 UNL     1      19.704  30.697  13.831  1.00  0.00     0.420 C 
HETATM    6  C25 UNL     1      20.023  32.112  14.005  1.00  0.00     0.262 C 
HETATM    7  O5  UNL     1      19.593  32.973  13.195  1.00  0.00    -0.271 OA
ENDROOT
BRANCH   1   8
HETATM    8  C17 UNL     1      21.171  33.954  15.193  1.00  0.00     0.126 C 
BRANCH   8   9
HETATM    9  C16 UNL     1      20.501  34.691  16.329  1.00  0.00     0.020 C 
BRANCH   9  10
HETATM   10  C15 UNL     1      21.402  35.720  16.966  1.00  0.00     0.003 C 
BRANCH  10  11
HETATM   11  C14 UNL     1      20.678  36.277  18.183  1.00  0.00     0.030 C 
BRANCH  11  12
HETATM   12  C13 UNL     1      19.732  37.390  17.838  1.00  0.00     0.273 C 
BRANCH  12  13
HETATM   13  N2  UNL     1      18.672  37.566  18.812  1.00  0.00     0.097 N 
HETATM   14  C4  UNL     1      17.747  38.552  18.323  1.00  0.00     0.243 C 
HETATM   15  C5  UNL     1      17.131  38.078  17.067  1.00  0.00     0.153 C 
HETATM   16  N1  UNL     1      16.623  36.753  17.042  1.00  0.00    -0.404 N 
HETATM   17  C6  UNL     1      16.387  36.375  15.688  1.00  0.00     0.117 C 
HETATM   18  C11 UNL     1      17.215  35.805  17.889  1.00  0.00     0.107 C 
HETATM   19  C7  UNL     1      16.229  34.923  15.415  1.00  0.00     0.019 C 
HETATM   20  C8  UNL     1      15.231  34.236  16.288  1.00  0.00     0.002 C 
HETATM   21  C9  UNL     1      15.824  33.751  17.591  1.00  0.00     0.002 C 
HETATM   22  C10 UNL     1      16.096  34.930  18.476  1.00  0.00     0.027 C 
HETATM   23  C12 UNL     1      17.979  36.337  19.059  1.00  0.00     0.297 C 
BRANCH  14  24
HETATM   24  C2  UNL     1      16.756  38.991  19.373  1.00  0.00     0.012 C 
HETATM   25  C1  UNL     1      15.514  39.574  18.742  1.00  0.00     0.012 C 
HETATM   26  C3  UNL     1      17.383  40.061  20.242  1.00  0.00     0.012 C 
ENDBRANCH  14  24
ENDBRANCH  12  13
ENDBRANCH  11  12
ENDBRANCH  10  11
ENDBRANCH   9  10
ENDBRANCH   8   9
ENDBRANCH   1   8
BRANCH   5  27
HETATM   27  C24 UNL     1      18.247  30.432  13.581  1.00  0.00     0.427 C 
HETATM   28  F1  UNL     1      17.952  30.336  12.236  1.00  0.00    -0.168 F 
HETATM   29  F2  UNL     1      17.830  29.249  14.157  1.00  0.00    -0.168 F 
HETATM   30  F3  UNL     1      17.435  31.428  14.089  1.00  0.00    -0.168 F 
ENDBRANCH   5  27
BRANCH   4  31
HETATM   31  C20 UNL     1      21.278  29.031  14.524  1.00  0.00     0.307 C 
BRANCH  31  32
HETATM   32  C21 UNL     1      21.218  28.643  13.063  1.00  0.00     0.165 C 
BRANCH  32  33
HETATM   33  O1  UNL     1      20.276  27.605  12.906  1.00  0.00    -0.392 OA
ATOM     34  H1  UNL     1      20.699  26.776  13.096  1.00  0.00     0.210 HD
ENDBRANCH  32  33
BRANCH  32  35
HETATM   35  C22 UNL     1      22.572  28.078  12.618  1.00  0.00     0.168 C 
BRANCH  35  36
HETATM   36  N5  UNL     1      22.356  27.617  11.241  1.00  0.00    -0.298 N 
ATOM     37  H5  UNL     1      22.014  28.180  10.462  1.00  0.00     0.174 HD
BRANCH  36  38
HETATM   38  S1  UNL     1      22.786  25.951  11.185  1.00  0.00     0.204 S 
HETATM   39  O2  UNL     1      21.761  25.116  11.900  1.00  0.00    -0.578 OA
HETATM   40  O3  UNL     1      22.819  25.497   9.751  1.00  0.00    -0.578 OA
HETATM   41  O4  UNL     1      24.321  25.764  11.882  1.00  0.00    -0.578 OA
ENDBRANCH  36  38
ENDBRANCH  35  36
ENDBRANCH  32  35
ENDBRANCH  31  32
ENDBRANCH   4  31
TORSDOF 14
ENDMDL
MODEL 5
REMARK VINA RESULT: -8.297625540      4.625      8.943
REMARK  14 active torsions:
REMARK  status: ('A' for Active; 'I' for Inactive)
REMARK    1  A    between atoms: C2_2  and  C4_4 
REMARK    2  A    between atoms: N2_14  and  C13_15 
REMARK    3  A    between atoms: C13_15  and  C14_16 
REMARK    4  A    between atoms: C14_16  and  C15_17 
REMARK    5  A    between atoms: C15_17  and  C16_18 
REMARK    6  A    between atoms: C16_18  and  C17_19 
REMARK    7  A    between atoms: C17_19  and  N3_20 
REMARK    8  A    between atoms: N4_23  and  C20_24 
REMARK    9  A    between atoms: C20_24  and  C21_25 
REMARK   10  A    between atoms: C21_25  and  O1_26 
REMARK   11  A    between atoms: C21_25  and  C22_28 
REMARK   12  A    between atoms: C22_28  and  N5_29 
REMARK   13  A    between atoms: N5_29  and  S1_31 
REMARK   14  A    between atoms: C23_35  and  C24_36 
ROOT
HETATM    1  N3  UNL     1      21.156  33.250  16.950  1.00  0.00    -0.348 N 
HETATM    2  C18 UNL     1      21.069  34.681  17.279  1.00  0.00     0.156 C 
HETATM    3  C19 UNL     1      19.959  35.249  16.434  1.00  0.00     0.293 C 
HETATM    4  N4  UNL     1      18.708  34.630  16.751  1.00  0.00     0.115 N 
HETATM    5  C23 UNL     1      18.676  33.220  16.478  1.00  0.00     0.420 C 
HETATM    6  C25 UNL     1      19.977  32.560  16.534  1.00  0.00     0.262 C 
HETATM    7  O5  UNL     1      20.099  31.349  16.214  1.00  0.00    -0.271 OA
ENDROOT
BRANCH   1   8
HETATM    8  C17 UNL     1      22.397  32.557  17.051  1.00  0.00     0.126 C 
BRANCH   8   9
HETATM    9  C16 UNL     1      23.543  33.192  16.300  1.00  0.00     0.020 C 
BRANCH   9  10
HETATM   10  C15 UNL     1      23.288  33.283  14.816  1.00  0.00     0.003 C 
BRANCH  10  11
HETATM   11  C14 UNL     1      23.246  31.864  14.268  1.00  0.00     0.030 C 
BRANCH  11  12
HETATM   12  C13 UNL     1      21.996  31.581  13.485  1.00  0.00     0.273 C 
BRANCH  12  13
HETATM   13  N2  UNL     1      22.196  30.627  12.411  1.00  0.00     0.097 N 
HETATM   14  C4  UNL     1      22.687  29.395  12.965  1.00  0.00     0.243 C 
HETATM   15  C5  UNL     1      21.683  28.829  13.890  1.00  0.00     0.153 C 
HETATM   16  N1  UNL     1      20.339  28.760  13.440  1.00  0.00    -0.404 N 
HETATM   17  C6  UNL     1      19.490  28.514  14.558  1.00  0.00     0.117 C 
HETATM   18  C11 UNL     1      19.912  29.704  12.494  1.00  0.00     0.107 C 
HETATM   19  C7  UNL     1      18.042  28.789  14.374  1.00  0.00     0.019 C 
HETATM   20  C8  UNL     1      17.441  28.153  13.164  1.00  0.00     0.002 C 
HETATM   21  C9  UNL     1      17.584  29.001  11.921  1.00  0.00     0.002 C 
HETATM   22  C10 UNL     1      19.015  28.982  11.475  1.00  0.00     0.027 C 
HETATM   23  C12 UNL     1      20.979  30.382  11.697  1.00  0.00     0.297 C 
BRANCH  14  24
HETATM   24  C2  UNL     1      23.168  28.432  11.907  1.00  0.00     0.012 C 
HETATM   25  C1  UNL     1      22.667  27.033  12.174  1.00  0.00     0.012 C 
HETATM   26  C3  UNL     1      24.682  28.395  11.911  1.00  0.00     0.012 C 
ENDBRANCH  14  24
ENDBRANCH  12  13
ENDBRANCH  11  12
ENDBRANCH  10  11
ENDBRANCH   9  10
ENDBRANCH   8   9
ENDBRANCH   1   8
BRANCH   5  27
HETATM   27  C24 UNL     1      17.936  32.990  15.192  1.00  0.00     0.427 C 
HETATM   28  F1  UNL     1      18.786  32.806  14.120  1.00  0.00    -0.168 F 
HETATM   29  F2  UNL     1      17.133  31.869  15.251  1.00  0.00    -0.168 F 
HETATM   30  F3  UNL     1      17.112  34.050  14.860  1.00  0.00    -0.168 F 
ENDBRANCH   5  27
BRANCH   4  31
HETATM   31  C20 UNL     1      18.162  34.965  18.035  1.00  0.00     0.307 C 
BRANCH  31  32
HETATM   32  C21 UNL     1      17.065  36.000  17.916  1.00  0.00     0.165 C 
BRANCH  32  33
HETATM   33  O1  UNL     1      17.160  36.619  16.651  1.00  0.00    -0.392 OA
ATOM     34  H1  UNL     1      16.676  37.436  16.674  1.00  0.00     0.210 HD
ENDBRANCH  32  33
BRANCH  32  35
HETATM   35  C22 UNL     1      17.273  37.103  18.960  1.00  0.00     0.168 C 
BRANCH  35  36
HETATM   36  N5  UNL     1      18.669  36.959  19.391  1.00  0.00    -0.298 N 
ATOM     37  H5  UNL     1      19.080  36.143  19.844  1.00  0.00     0.174 HD
BRANCH  36  38
HETATM   38  S1  UNL     1      19.481  38.423  18.990  1.00  0.00     0.204 S 
HETATM   39  O2  UNL     1      18.971  39.559  19.830  1.00  0.00    -0.578 OA
HETATM   40  O3  UNL     1      20.949  38.268  19.280  1.00  0.00    -0.578 OA
HETATM   41  O4  UNL     1      19.252  38.734  17.338  1.00  0.00    -0.578 OA
ENDBRANCH  36  38
ENDBRANCH  35  36
ENDBRANCH  32  35
ENDBRANCH  31  32
ENDBRANCH   4  31
TORSDOF 14
ENDMDL
