MODEL 1
REMARK VINA RESULT: -9.298415012      0.000      0.000
REMARK  16 active torsions:
REMARK  status: ('A' for Active; 'I' for Inactive)
REMARK    1  A    between atoms: C1_2  and  C2_3 
REMARK       I    between atoms: C1_2  and  N2_17 
REMARK    2  A    between atoms: C2_3  and  C3_4 
REMARK    3  A    between atoms: C3_4  and  C4_5 
REMARK    4  A    between atoms: C4_5  and  C5_6 
REMARK    5  A    between atoms: C5_6  and  N1_7 
REMARK    6  A    between atoms: N2_17  and  C13_19 
REMARK    7  A    between atoms: C13_19  and  C14_20 
REMARK    8  A    between atoms: C14_20  and  C15_21 
REMARK    9  A    between atoms: C15_21  and  C16_22 
REMARK   10  A    between atoms: C16_22  and  C17_23 
REMARK   11  A    between atoms: C20_26  and  C21_27 
REMARK   12  A    between atoms: C21_27  and  O4_28 
REMARK   13  A    between atoms: C21_27  and  C22_30 
REMARK   14  A    between atoms: C21_27  and  C23_34 
REMARK   15  A    between atoms: C24_38  and  C25_39 
REMARK   16  A    between atoms: C26_40  and  C27_41 
ROOT
HETATM    1  C17 UNL     1      21.490  31.918  13.642  1.00  0.00    -0.057 A 
HETATM    2  C18 UNL     1      20.133  31.843  13.546  1.00  0.00     0.008 A 
HETATM    3  C19 UNL     1      19.451  30.696  13.178  1.00  0.00     0.013 A 
HETATM    4  C20 UNL     1      20.141  29.555  12.889  1.00  0.00     0.013 A 
HETATM    5  C24 UNL     1      21.550  29.571  12.966  1.00  0.00     0.028 A 
HETATM    6  C30 UNL     1      22.174  30.739  13.339  1.00  0.00     0.028 A 
ENDROOT
BRANCH   1   7
HETATM    7  C16 UNL     1      22.232  33.141  14.024  1.00  0.00     0.038 C 
BRANCH   7   8
HETATM    8  C15 UNL     1      23.344  32.851  14.992  1.00  0.00     0.006 C 
BRANCH   8   9
HETATM    9  C14 UNL     1      23.004  33.208  16.398  1.00  0.00     0.020 C 
BRANCH   9  10
HETATM   10  C13 UNL     1      22.233  32.085  17.055  1.00  0.00     0.122 C 
BRANCH  10  11
HETATM   11  N2  UNL     1      20.833  32.440  17.185  1.00  0.00    -0.361 N 
HETATM   12  C1  UNL     1      19.854  31.454  16.933  1.00  0.00     0.217 C 
HETATM   13  O1  UNL     1      20.200  30.306  16.604  1.00  0.00    -0.274 OA
ATOM     14  H2  UNL     1      20.561  33.385  17.454  1.00  0.00     0.162 HD
BRANCH  12  15
HETATM   15  C2  UNL     1      18.440  31.829  17.072  1.00  0.00     0.103 C 
BRANCH  15  16
HETATM   16  C3  UNL     1      17.511  31.286  16.054  1.00  0.00     0.011 C 
BRANCH  16  17
HETATM   17  C4  UNL     1      16.580  32.268  15.411  1.00  0.00     0.020 C 
BRANCH  17  18
HETATM   18  C5  UNL     1      15.569  32.804  16.438  1.00  0.00     0.117 C 
BRANCH  18  19
HETATM   19  N1  UNL     1      15.516  34.216  16.432  1.00  0.00    -0.412 N 
HETATM   20  C6  UNL     1      14.860  34.875  17.492  1.00  0.00     0.122 C 
HETATM   21  C7  UNL     1      15.749  34.973  18.703  1.00  0.00     0.088 C 
HETATM   22  C8  UNL     1      17.118  35.463  18.437  1.00  0.00     0.167 C 
HETATM   23  C9  UNL     1      17.594  35.420  17.037  1.00  0.00     0.088 C 
HETATM   24  O2  UNL     1      17.336  36.724  19.038  1.00  0.00    -0.353 OA
HETATM   25  O3  UNL     1      18.000  34.674  19.215  1.00  0.00    -0.353 OA
HETATM   26  C10 UNL     1      16.663  34.924  16.003  1.00  0.00     0.122 C 
HETATM   27  C11 UNL     1      18.717  36.855  19.135  1.00  0.00     0.197 C 
HETATM   28  C12 UNL     1      19.169  35.422  19.314  1.00  0.00     0.197 C 
ENDBRANCH  18  19
ENDBRANCH  17  18
ENDBRANCH  16  17
ENDBRANCH  15  16
ENDBRANCH  12  15
ENDBRANCH  10  11
ENDBRANCH   9  10
ENDBRANCH   8   9
ENDBRANCH   7   8
ENDBRANCH   1   7
BRANCH   5  29
HETATM   29  C25 UNL     1      22.369  28.459  12.557  1.00  0.00    -0.066 C 
HETATM   30  C26 UNL     1      23.105  27.530  12.230  1.00  0.00    -0.096 C 
BRANCH  30  31
HETATM   31  C27 UNL     1      23.999  26.444  11.835  1.00  0.00     0.065 A 
HETATM   32  C28 UNL     1      25.455  26.845  11.716  1.00  0.00     0.018 A 
HETATM   33  C29 UNL     1      24.666  26.496  10.512  1.00  0.00     0.018 A 
ENDBRANCH  30  31
ENDBRANCH   5  29
BRANCH   4  34
HETATM   34  C21 UNL     1      19.523  28.269  12.589  1.00  0.00     0.283 C 
BRANCH  34  35
HETATM   35  O4  UNL     1      20.471  27.222  12.507  1.00  0.00    -0.370 OA
ATOM     36  H4  UNL     1      20.423  26.632  13.249  1.00  0.00     0.211 HD
ENDBRANCH  34  35
BRANCH  34  37
HETATM   37  C22 UNL     1      18.319  27.910  13.371  1.00  0.00     0.431 C 
HETATM   38  F1  UNL     1      17.242  28.754  13.097  1.00  0.00    -0.167 F 
HETATM   39  F2  UNL     1      18.631  28.125  14.747  1.00  0.00    -0.167 F 
HETATM   40  F3  UNL     1      17.848  26.643  13.345  1.00  0.00    -0.167 F 
ENDBRANCH  34  37
BRANCH  34  41
HETATM   41  C23 UNL     1      19.085  28.325  11.076  1.00  0.00     0.431 C 
HETATM   42  F4  UNL     1      20.227  28.284  10.348  1.00  0.00    -0.167 F 
HETATM   43  F5  UNL     1      18.497  27.041  10.905  1.00  0.00    -0.167 F 
HETATM   44  F6  UNL     1      18.224  29.283  10.776  1.00  0.00    -0.167 F 
ENDBRANCH  34  41
ENDBRANCH   4  34
TORSDOF 16
ENDMDL
MODEL 2
REMARK VINA RESULT: -9.100224421      1.337      2.888
REMARK  16 active torsions:
REMARK  status: ('A' for Active; 'I' for Inactive)
REMARK    1  A    between atoms: C1_2  and  C2_3 
REMARK       I    between atoms: C1_2  and  N2_17 
REMARK    2  A    between atoms: C2_3  and  C3_4 
REMARK    3  A    between atoms: C3_4  and  C4_5 
REMARK    4  A    between atoms: C4_5  and  C5_6 
REMARK    5  A    between atoms: C5_6  and  N1_7 
REMARK    6  A    between atoms: N2_17  and  C13_19 
REMARK    7  A    between atoms: C13_19  and  C14_20 
REMARK    8  A    between atoms: C14_20  and  C15_21 
REMARK    9  A    between atoms: C15_21  and  C16_22 
REMARK   10  A    between atoms: C16_22  and  C17_23 
REMARK   11  A    between atoms: C20_26  and  C21_27 
REMARK   12  A    between atoms: C21_27  and  O4_28 
REMARK   13  A    between atoms: C21_27  and  C22_30 
REMARK   14  A    between atoms: C21_27  and  C23_34 
REMARK   15  A    between atoms: C24_38  and  C25_39 
REMARK   16  A    between atoms: C26_40  and  C27_41 
ROOT
HETATM    1  C17 UNL     1      21.842  31.980  14.065  1.00  0.00    -0.057 A 
HETATM    2  C18 UNL     1      20.505  31.830  13.849  1.00  0.00     0.008 A 
HETATM    3  C19 UNL     1      19.930  30.667  13.369  1.00  0.00     0.013 A 
HETATM    4  C20 UNL     1      20.712  29.586  13.084  1.00  0.00     0.013 A 
HETATM    5  C24 UNL     1      22.106  29.680  13.282  1.00  0.00     0.028 A 
HETATM    6  C30 UNL     1      22.622  30.861  13.763  1.00  0.00     0.028 A 
ENDROOT
BRANCH   1   7
HETATM    7  C16 UNL     1      22.472  33.222  14.567  1.00  0.00     0.038 C 
BRANCH   7   8
HETATM    8  C15 UNL     1      23.258  32.990  15.827  1.00  0.00     0.006 C 
BRANCH   8   9
HETATM    9  C14 UNL     1      22.404  32.930  17.047  1.00  0.00     0.020 C 
BRANCH   9  10
HETATM   10  C13 UNL     1      21.880  34.307  17.391  1.00  0.00     0.122 C 
BRANCH  10  11
HETATM   11  N2  UNL     1      20.481  34.238  17.763  1.00  0.00    -0.361 N 
HETATM   12  C1  UNL     1      19.973  35.179  18.685  1.00  0.00     0.217 C 
HETATM   13  O1  UNL     1      20.725  36.046  19.163  1.00  0.00    -0.274 OA
ATOM     14  H2  UNL     1      19.874  33.521  17.365  1.00  0.00     0.162 HD
BRANCH  12  15
HETATM   15  C2  UNL     1      18.552  35.097  19.049  1.00  0.00     0.103 C 
BRANCH  15  16
HETATM   16  C3  UNL     1      17.803  36.375  19.074  1.00  0.00     0.011 C 
BRANCH  16  17
HETATM   17  C4  UNL     1      16.451  36.367  18.431  1.00  0.00     0.020 C 
BRANCH  17  18
HETATM   18  C5  UNL     1      16.573  36.609  16.917  1.00  0.00     0.117 C 
BRANCH  18  19
HETATM   19  N1  UNL     1      15.820  35.672  16.176  1.00  0.00    -0.412 N 
HETATM   20  C6  UNL     1      16.219  35.371  14.857  1.00  0.00     0.122 C 
HETATM   21  C7  UNL     1      17.352  34.380  14.845  1.00  0.00     0.088 C 
HETATM   22  C8  UNL     1      17.156  33.195  15.706  1.00  0.00     0.167 C 
HETATM   23  C9  UNL     1      16.116  33.282  16.755  1.00  0.00     0.088 C 
HETATM   24  O2  UNL     1      17.039  32.016  14.934  1.00  0.00    -0.353 OA
HETATM   25  O3  UNL     1      18.392  32.937  16.347  1.00  0.00    -0.353 OA
HETATM   26  C10 UNL     1      15.329  34.528  16.849  1.00  0.00     0.122 C 
HETATM   27  C11 UNL     1      17.334  30.972  15.804  1.00  0.00     0.197 C 
HETATM   28  C12 UNL     1      18.322  31.609  16.756  1.00  0.00     0.197 C 
ENDBRANCH  18  19
ENDBRANCH  17  18
ENDBRANCH  16  17
ENDBRANCH  15  16
ENDBRANCH  12  15
ENDBRANCH  10  11
ENDBRANCH   9  10
ENDBRANCH   8   9
ENDBRANCH   7   8
ENDBRANCH   1   7
BRANCH   5  29
HETATM   29  C25 UNL     1      23.024  28.642  12.891  1.00  0.00    -0.066 C 
HETATM   30  C26 UNL     1      23.843  27.787  12.558  1.00  0.00    -0.096 C 
BRANCH  30  31
HETATM   31  C27 UNL     1      24.829  26.789  12.147  1.00  0.00     0.065 A 
HETATM   32  C28 UNL     1      25.313  26.941  10.720  1.00  0.00     0.018 A 
HETATM   33  C29 UNL     1      24.465  25.792  11.113  1.00  0.00     0.018 A 
ENDBRANCH  30  31
ENDBRANCH   5  29
BRANCH   4  34
HETATM   34  C21 UNL     1      20.203  28.283  12.670  1.00  0.00     0.283 C 
BRANCH  34  35
HETATM   35  O4  UNL     1      21.098  27.232  12.980  1.00  0.00    -0.370 OA
ATOM     36  H4  UNL     1      20.742  26.379  12.763  1.00  0.00     0.211 HD
ENDBRANCH  34  35
BRANCH  34  37
HETATM   37  C22 UNL     1      18.797  27.977  13.015  1.00  0.00     0.431 C 
HETATM   38  F1  UNL     1      17.927  29.002  12.638  1.00  0.00    -0.167 F 
HETATM   39  F2  UNL     1      18.716  27.913  14.438  1.00  0.00    -0.167 F 
HETATM   40  F3  UNL     1      18.239  26.813  12.611  1.00  0.00    -0.167 F 
ENDBRANCH  34  37
BRANCH  34  41
HETATM   41  C23 UNL     1      20.307  28.241  11.099  1.00  0.00     0.431 C 
HETATM   42  F4  UNL     1      21.279  29.123  10.758  1.00  0.00    -0.167 F 
HETATM   43  F5  UNL     1      20.887  26.959  10.888  1.00  0.00    -0.167 F 
HETATM   44  F6  UNL     1      19.157  28.350  10.456  1.00  0.00    -0.167 F 
ENDBRANCH  34  41
ENDBRANCH   4  34
TORSDOF 16
ENDMDL
MODEL 3
REMARK VINA RESULT: -8.943385757      1.964      3.462
REMARK  16 active torsions:
REMARK  status: ('A' for Active; 'I' for Inactive)
REMARK    1  A    between atoms: C1_2  and  C2_3 
REMARK       I    between atoms: C1_2  and  N2_17 
REMARK    2  A    between atoms: C2_3  and  C3_4 
REMARK    3  A    between atoms: C3_4  and  C4_5 
REMARK    4  A    between atoms: C4_5  and  C5_6 
REMARK    5  A    between atoms: C5_6  and  N1_7 
REMARK    6  A    between atoms: N2_17  and  C13_19 
REMARK    7  A    between atoms: C13_19  and  C14_20 
REMARK    8  A    between atoms: C14_20  and  C15_21 
REMARK    9  A    between atoms: C15_21  and  C16_22 
REMARK   10  A    between atoms: C16_22  and  C17_23 
REMARK   11  A    between atoms: C20_26  and  C21_27 
REMARK   12  A    between atoms: C21_27  and  O4_28 
REMARK   13  A    between atoms: C21_27  and  C22_30 
REMARK   14  A    between atoms: C21_27  and  C23_34 
REMARK   15  A    between atoms: C24_38  and  C25_39 
REMARK   16  A    between atoms: C26_40  and  C27_41 
ROOT
HETATM    1  C17 UNL     1      18.998  29.815  12.951  1.00  0.00    -0.057 A 
HETATM    2  C18 UNL     1      17.989  29.442  12.115  1.00  0.00     0.008 A 
HETATM    3  C19 UNL     1      18.081  28.390  11.221  1.00  0.00     0.013 A 
HETATM    4  C20 UNL     1      19.231  27.660  11.142  1.00  0.00     0.013 A 
HETATM    5  C24 UNL     1      20.315  28.001  11.979  1.00  0.00     0.028 A 
HETATM    6  C30 UNL     1      20.165  29.055  12.851  1.00  0.00     0.028 A 
ENDROOT
BRANCH   1   7
HETATM    7  C16 UNL     1      18.916  30.945  13.905  1.00  0.00     0.038 C 
BRANCH   7   8
HETATM    8  C15 UNL     1      17.968  30.664  15.036  1.00  0.00     0.006 C 
BRANCH   8   9
HETATM    9  C14 UNL     1      18.566  30.915  16.378  1.00  0.00     0.020 C 
BRANCH   9  10
HETATM   10  C13 UNL     1      19.969  30.352  16.442  1.00  0.00     0.122 C 
BRANCH  10  11
HETATM   11  N2  UNL     1      20.855  31.278  17.120  1.00  0.00    -0.361 N 
HETATM   12  C1  UNL     1      21.852  31.940  16.371  1.00  0.00     0.217 C 
HETATM   13  O1  UNL     1      21.957  31.723  15.151  1.00  0.00    -0.274 OA
ATOM     14  H2  UNL     1      20.760  31.448  18.121  1.00  0.00     0.162 HD
BRANCH  12  15
HETATM   15  C2  UNL     1      22.740  32.877  17.072  1.00  0.00     0.103 C 
BRANCH  15  16
HETATM   16  C3  UNL     1      22.127  34.143  17.538  1.00  0.00     0.011 C 
BRANCH  16  17
HETATM   17  C4  UNL     1      21.226  34.842  16.569  1.00  0.00     0.020 C 
BRANCH  17  18
HETATM   18  C5  UNL     1      20.134  35.625  17.316  1.00  0.00     0.117 C 
BRANCH  18  19
HETATM   19  N1  UNL     1      19.387  34.789  18.176  1.00  0.00    -0.412 N 
HETATM   20  C6  UNL     1      18.921  35.316  19.399  1.00  0.00     0.122 C 
HETATM   21  C7  UNL     1      17.668  36.127  19.197  1.00  0.00     0.088 C 
HETATM   22  C8  UNL     1      16.625  35.474  18.380  1.00  0.00     0.167 C 
HETATM   23  C9  UNL     1      17.039  34.329  17.538  1.00  0.00     0.088 C 
HETATM   24  O2  UNL     1      15.477  35.182  19.153  1.00  0.00    -0.353 OA
HETATM   25  O3  UNL     1      16.087  36.465  17.523  1.00  0.00    -0.353 OA
HETATM   26  C10 UNL     1      18.451  33.901  17.597  1.00  0.00     0.122 C 
HETATM   27  C11 UNL     1      14.442  35.030  18.238  1.00  0.00     0.197 C 
HETATM   28  C12 UNL     1      14.848  35.972  17.126  1.00  0.00     0.197 C 
ENDBRANCH  18  19
ENDBRANCH  17  18
ENDBRANCH  16  17
ENDBRANCH  15  16
ENDBRANCH  12  15
ENDBRANCH  10  11
ENDBRANCH   9  10
ENDBRANCH   8   9
ENDBRANCH   7   8
ENDBRANCH   1   7
BRANCH   5  29
HETATM   29  C25 UNL     1      21.608  27.374  11.880  1.00  0.00    -0.066 C 
HETATM   30  C26 UNL     1      22.729  26.880  11.778  1.00  0.00    -0.096 C 
BRANCH  30  31
HETATM   31  C27 UNL     1      24.064  26.304  11.631  1.00  0.00     0.065 A 
HETATM   32  C28 UNL     1      25.176  27.149  12.218  1.00  0.00     0.018 A 
HETATM   33  C29 UNL     1      25.052  26.975  10.753  1.00  0.00     0.018 A 
ENDBRANCH  30  31
ENDBRANCH   5  29
BRANCH   4  34
HETATM   34  C21 UNL     1      19.403  26.474  10.311  1.00  0.00     0.283 C 
BRANCH  34  35
HETATM   35  O4  UNL     1      20.614  26.499   9.581  1.00  0.00    -0.370 OA
ATOM     36  H4  UNL     1      20.549  26.031   8.757  1.00  0.00     0.211 HD
ENDBRANCH  34  35
BRANCH  34  37
HETATM   37  C22 UNL     1      19.130  25.168  10.949  1.00  0.00     0.431 C 
HETATM   38  F1  UNL     1      18.395  25.302  12.129  1.00  0.00    -0.167 F 
HETATM   39  F2  UNL     1      20.387  24.621  11.344  1.00  0.00    -0.167 F 
HETATM   40  F3  UNL     1      18.558  24.172  10.236  1.00  0.00    -0.167 F 
ENDBRANCH  34  37
BRANCH  34  41
HETATM   41  C23 UNL     1      18.389  26.618   9.112  1.00  0.00     0.431 C 
HETATM   42  F4  UNL     1      18.491  27.899   8.680  1.00  0.00    -0.167 F 
HETATM   43  F5  UNL     1      19.029  25.841   8.107  1.00  0.00    -0.167 F 
HETATM   44  F6  UNL     1      17.169  26.168   9.352  1.00  0.00    -0.167 F 
ENDBRANCH  34  41
ENDBRANCH   4  34
TORSDOF 16
ENDMDL
MODEL 4
REMARK VINA RESULT: -8.937705447      3.557      9.072
REMARK  16 active torsions:
REMARK  status: ('A' for Active; 'I' for Inactive)
REMARK    1  A    between atoms: C1_2  and  C2_3 
REMARK       I    between atoms: C1_2  and  N2_17 
REMARK    2  A    between atoms: C2_3  and  C3_4 
REMARK    3  A    between atoms: C3_4  and  C4_5 
REMARK    4  A    between atoms: C4_5  and  C5_6 
REMARK    5  A    between atoms: C5_6  and  N1_7 
REMARK    6  A    between atoms: N2_17  and  C13_19 
REMARK    7  A    between atoms: C13_19  and  C14_20 
REMARK    8  A    between atoms: C14_20  and  C15_21 
REMARK    9  A    between atoms: C15_21  and  C16_22 
REMARK   10  A    between atoms: C16_22  and  C17_23 
REMARK   11  A    between atoms: C20_26  and  C21_27 
REMARK   12  A    between atoms: C21_27  and  O4_28 
REMARK   13  A    between atoms: C21_27  and  C22_30 
REMARK   14  A    between atoms: C21_27  and  C23_34 
REMARK   15  A    between atoms: C24_38  and  C25_39 
REMARK   16  A    between atoms: C26_40  and  C27_41 
ROOT
HETATM    1  C17 UNL     1      20.024  32.139  13.359  1.00  0.00    -0.057 A 
HETATM    2  C18 UNL     1      18.735  31.700  13.336  1.00  0.00     0.008 A 
HETATM    3  C19 UNL     1      17.764  32.116  14.230  1.00  0.00     0.013 A 
HETATM    4  C20 UNL     1      18.077  33.019  15.205  1.00  0.00     0.013 A 
HETATM    5  C24 UNL     1      19.398  33.509  15.284  1.00  0.00     0.028 A 
HETATM    6  C30 UNL     1      20.321  33.060  14.366  1.00  0.00     0.028 A 
ENDROOT
BRANCH   1   7
HETATM    7  C16 UNL     1      21.074  31.694  12.415  1.00  0.00     0.038 C 
BRANCH   7   8
HETATM    8  C15 UNL     1      21.350  30.221  12.527  1.00  0.00     0.006 C 
BRANCH   8   9
HETATM    9  C14 UNL     1      21.958  29.837  13.832  1.00  0.00     0.020 C 
BRANCH   9  10
HETATM   10  C13 UNL     1      21.154  28.734  14.484  1.00  0.00     0.122 C 
BRANCH  10  11
HETATM   11  N2  UNL     1      20.280  28.104  13.514  1.00  0.00    -0.361 N 
HETATM   12  C1  UNL     1      18.888  28.105  13.749  1.00  0.00     0.217 C 
HETATM   13  O1  UNL     1      18.433  28.639  14.775  1.00  0.00    -0.274 OA
ATOM     14  H2  UNL     1      20.664  27.668  12.677  1.00  0.00     0.162 HD
BRANCH  12  15
HETATM   15  C2  UNL     1      18.015  27.465  12.755  1.00  0.00     0.103 C 
BRANCH  15  16
HETATM   16  C3  UNL     1      18.501  27.464  11.355  1.00  0.00     0.011 C 
BRANCH  16  17
HETATM   17  C4  UNL     1      18.672  26.123  10.712  1.00  0.00     0.020 C 
BRANCH  17  18
HETATM   18  C5  UNL     1      19.885  26.130   9.766  1.00  0.00     0.117 C 
BRANCH  18  19
HETATM   19  N1  UNL     1      20.875  25.210  10.179  1.00  0.00    -0.412 N 
HETATM   20  C6  UNL     1      21.922  24.895   9.288  1.00  0.00     0.122 C 
HETATM   21  C7  UNL     1      22.988  25.958   9.306  1.00  0.00     0.088 C 
HETATM   22  C8  UNL     1      23.438  26.372  10.652  1.00  0.00     0.167 C 
HETATM   23  C9  UNL     1      22.564  26.027  11.795  1.00  0.00     0.088 C 
HETATM   24  O2  UNL     1      24.784  26.001  10.876  1.00  0.00    -0.353 OA
HETATM   25  O3  UNL     1      23.580  27.780  10.628  1.00  0.00    -0.353 OA
HETATM   26  C10 UNL     1      21.326  25.272  11.518  1.00  0.00     0.122 C 
HETATM   27  C11 UNL     1      25.226  26.819  11.910  1.00  0.00     0.197 C 
HETATM   28  C12 UNL     1      24.419  28.081  11.696  1.00  0.00     0.197 C 
ENDBRANCH  18  19
ENDBRANCH  17  18
ENDBRANCH  16  17
ENDBRANCH  15  16
ENDBRANCH  12  15
ENDBRANCH  10  11
ENDBRANCH   9  10
ENDBRANCH   8   9
ENDBRANCH   7   8
ENDBRANCH   1   7
BRANCH   5  29
HETATM   29  C25 UNL     1      19.854  34.361  16.350  1.00  0.00    -0.066 C 
HETATM   30  C26 UNL     1      20.277  35.107  17.232  1.00  0.00    -0.096 C 
BRANCH  30  31
HETATM   31  C27 UNL     1      20.805  35.987  18.273  1.00  0.00     0.065 A 
HETATM   32  C28 UNL     1      20.856  37.450  17.886  1.00  0.00     0.018 A 
HETATM   33  C29 UNL     1      22.103  36.670  18.056  1.00  0.00     0.018 A 
ENDBRANCH  30  31
ENDBRANCH   5  29
BRANCH   4  34
HETATM   34  C21 UNL     1      17.114  33.600  16.133  1.00  0.00     0.283 C 
BRANCH  34  35
HETATM   35  O4  UNL     1      17.574  33.575  17.471  1.00  0.00    -0.370 OA
ATOM     36  H4  UNL     1      18.233  34.237  17.639  1.00  0.00     0.211 HD
ENDBRANCH  34  35
BRANCH  34  37
HETATM   37  C22 UNL     1      16.511  34.893  15.744  1.00  0.00     0.431 C 
HETATM   38  F1  UNL     1      16.743  35.201  14.402  1.00  0.00    -0.167 F 
HETATM   39  F2  UNL     1      17.180  35.911  16.489  1.00  0.00    -0.167 F 
HETATM   40  F3  UNL     1      15.202  35.130  15.986  1.00  0.00    -0.167 F 
ENDBRANCH  34  37
BRANCH  34  41
HETATM   41  C23 UNL     1      15.933  32.565  16.258  1.00  0.00     0.431 C 
HETATM   42  F4  UNL     1      16.504  31.368  16.540  1.00  0.00    -0.167 F 
HETATM   43  F5  UNL     1      15.325  32.975  17.477  1.00  0.00    -0.167 F 
HETATM   44  F6  UNL     1      15.060  32.585  15.265  1.00  0.00    -0.167 F 
ENDBRANCH  34  41
ENDBRANCH   4  34
TORSDOF 16
ENDMDL
MODEL 5
REMARK VINA RESULT: -8.907436923      1.342      1.617
REMARK  16 active torsions:
REMARK  status: ('A' for Active; 'I' for Inactive)
REMARK    1  A    between atoms: C1_2  and  C2_3 
REMARK       I    between atoms: C1_2  and  N2_17 
REMARK    2  A    between atoms: C2_3  and  C3_4 
REMARK    3  A    between atoms: C3_4  and  C4_5 
REMARK    4  A    between atoms: C4_5  and  C5_6 
REMARK    5  A    between atoms: C5_6  and  N1_7 
REMARK    6  A    between atoms: N2_17  and  C13_19 
REMARK    7  A    between atoms: C13_19  and  C14_20 
REMARK    8  A    between atoms: C14_20  and  C15_21 
REMARK    9  A    between atoms: C15_21  and  C16_22 
REMARK   10  A    between atoms: C16_22  and  C17_23 
REMARK   11  A    between atoms: C20_26  and  C21_27 
REMARK   12  A    between atoms: C21_27  and  O4_28 
REMARK   13  A    between atoms: C21_27  and  C22_30 
REMARK   14  A    between atoms: C21_27  and  C23_34 
REMARK   15  A    between atoms: C24_38  and  C25_39 
REMARK   16  A    between atoms: C26_40  and  C27_41 
ROOT
HETATM    1  C17 UNL     1      21.347  31.945  13.450  1.00  0.00    -0.057 A 
HETATM    2  C18 UNL     1      19.998  31.757  13.491  1.00  0.00     0.008 A 
HETATM    3  C19 UNL     1      19.354  30.685  12.898  1.00  0.00     0.013 A 
HETATM    4  C20 UNL     1      20.075  29.741  12.227  1.00  0.00     0.013 A 
HETATM    5  C24 UNL     1      21.477  29.883  12.145  1.00  0.00     0.028 A 
HETATM    6  C30 UNL     1      22.063  30.968  12.756  1.00  0.00     0.028 A 
ENDROOT
BRANCH   1   7
HETATM    7  C16 UNL     1      22.048  33.093  14.071  1.00  0.00     0.038 C 
BRANCH   7   8
HETATM    8  C15 UNL     1      23.243  32.661  14.872  1.00  0.00     0.006 C 
BRANCH   8   9
HETATM    9  C14 UNL     1      22.904  32.287  16.274  1.00  0.00     0.020 C 
BRANCH   9  10
HETATM   10  C13 UNL     1      22.033  33.351  16.907  1.00  0.00     0.122 C 
BRANCH  10  11
HETATM   11  N2  UNL     1      20.739  32.802  17.259  1.00  0.00    -0.361 N 
HETATM   12  C1  UNL     1      19.574  33.455  16.800  1.00  0.00     0.217 C 
HETATM   13  O1  UNL     1      19.671  34.482  16.108  1.00  0.00    -0.274 OA
ATOM     14  H2  UNL     1      20.671  31.958  17.828  1.00  0.00     0.162 HD
BRANCH  12  15
HETATM   15  C2  UNL     1      18.270  32.883  17.164  1.00  0.00     0.103 C 
BRANCH  15  16
HETATM   16  C3  UNL     1      17.462  32.326  16.054  1.00  0.00     0.011 C 
BRANCH  16  17
HETATM   17  C4  UNL     1      16.235  33.094  15.674  1.00  0.00     0.020 C 
BRANCH  17  18
HETATM   18  C5  UNL     1      15.432  33.484  16.926  1.00  0.00     0.117 C 
BRANCH  18  19
HETATM   19  N1  UNL     1      15.119  34.862  16.939  1.00  0.00    -0.412 N 
HETATM   20  C6  UNL     1      14.583  35.426  18.115  1.00  0.00     0.122 C 
HETATM   21  C7  UNL     1      15.667  35.724  19.116  1.00  0.00     0.088 C 
HETATM   22  C8  UNL     1      16.838  36.445  18.575  1.00  0.00     0.167 C 
HETATM   23  C9  UNL     1      17.017  36.444  17.107  1.00  0.00     0.088 C 
HETATM   24  O2  UNL     1      16.937  37.745  19.125  1.00  0.00    -0.353 OA
HETATM   25  O3  UNL     1      17.991  35.857  19.150  1.00  0.00    -0.353 OA
HETATM   26  C10 UNL     1      16.003  35.752  16.285  1.00  0.00     0.122 C 
HETATM   27  C11 UNL     1      18.260  38.128  18.935  1.00  0.00     0.197 C 
HETATM   28  C12 UNL     1      18.996  36.808  19.009  1.00  0.00     0.197 C 
ENDBRANCH  18  19
ENDBRANCH  17  18
ENDBRANCH  16  17
ENDBRANCH  15  16
ENDBRANCH  12  15
ENDBRANCH  10  11
ENDBRANCH   9  10
ENDBRANCH   8   9
ENDBRANCH   7   8
ENDBRANCH   1   7
BRANCH   5  29
HETATM   29  C25 UNL     1      22.307  29.012  11.354  1.00  0.00    -0.066 C 
HETATM   30  C26 UNL     1      23.053  28.281  10.705  1.00  0.00    -0.096 C 
BRANCH  30  31
HETATM   31  C27 UNL     1      23.959  27.431   9.936  1.00  0.00     0.065 A 
HETATM   32  C28 UNL     1      24.026  25.995  10.414  1.00  0.00     0.018 A 
HETATM   33  C29 UNL     1      25.184  26.903  10.582  1.00  0.00     0.018 A 
ENDBRANCH  30  31
ENDBRANCH   5  29
BRANCH   4  34
HETATM   34  C21 UNL     1      19.513  28.524  11.653  1.00  0.00     0.283 C 
BRANCH  34  35
HETATM   35  O4  UNL     1      19.713  28.446  10.255  1.00  0.00    -0.370 OA
ATOM     36  H4  UNL     1      19.160  27.790   9.847  1.00  0.00     0.211 HD
ENDBRANCH  34  35
BRANCH  34  37
HETATM   37  C22 UNL     1      19.805  27.258  12.359  1.00  0.00     0.431 C 
HETATM   38  F1  UNL     1      18.670  26.457  12.497  1.00  0.00    -0.167 F 
HETATM   39  F2  UNL     1      20.196  27.597  13.689  1.00  0.00    -0.167 F 
HETATM   40  F3  UNL     1      20.806  26.457  11.928  1.00  0.00    -0.167 F 
ENDBRANCH  34  37
BRANCH  34  41
HETATM   41  C23 UNL     1      17.947  28.704  11.668  1.00  0.00     0.431 C 
HETATM   42  F4  UNL     1      17.700  29.928  11.141  1.00  0.00    -0.167 F 
HETATM   43  F5  UNL     1      17.547  27.785  10.660  1.00  0.00    -0.167 F 
HETATM   44  F6  UNL     1      17.361  28.426  12.821  1.00  0.00    -0.167 F 
ENDBRANCH  34  41
ENDBRANCH   4  34
TORSDOF 16
ENDMDL
