MODEL 1
REMARK VINA RESULT: -7.312976003      0.000      0.000
REMARK  18 active torsions:
REMARK  status: ('A' for Active; 'I' for Inactive)
REMARK    1  A    between atoms: C2_2  and  C3_3 
REMARK    2  A    between atoms: C3_3  and  C4_4 
REMARK    3  A    between atoms: C4_4  and  C5_5 
REMARK    4  A    between atoms: C5_5  and  C6_6 
REMARK    5  A    between atoms: C6_6  and  C7_7 
REMARK    6  A    between atoms: C7_7  and  C8_8 
REMARK    7  A    between atoms: C8_8  and  C9_9 
REMARK    8  A    between atoms: C9_9  and  C10_10 
REMARK    9  A    between atoms: C10_10  and  C11_11 
REMARK   10  A    between atoms: C12_12  and  C13_13 
REMARK   11  A    between atoms: C13_13  and  O1_14 
REMARK   12  A    between atoms: O1_14  and  C14_15 
REMARK   13  A    between atoms: C16_17  and  C17_18 
REMARK       I    between atoms: C17_18  and  N1_20 
REMARK   14  A    between atoms: C19_22  and  O3_23 
REMARK   15  A    between atoms: C21_26  and  O4_27 
REMARK   16  A    between atoms: C22_30  and  C23_31 
REMARK   17  A    between atoms: C27_35  and  O6_36 
REMARK   18  A    between atoms: C28_38  and  S1_39 
ROOT
HETATM    1  C14 UNL     1      20.203  30.710  13.877  1.00  0.00     0.142 C 
HETATM    2  C15 UNL     1      20.999  31.342  14.954  1.00  0.00     0.075 C 
HETATM    3  C16 UNL     1      20.353  32.530  15.651  1.00  0.00     0.216 C 
HETATM    4  O5  UNL     1      19.255  33.040  15.074  1.00  0.00    -0.368 OA
HETATM    5  C22 UNL     1      18.175  32.323  14.745  1.00  0.00     0.160 C 
HETATM    6  C27 UNL     1      18.089  30.898  15.136  1.00  0.00     0.164 C 
HETATM    7  C28 UNL     1      19.044  29.958  14.483  1.00  0.00     0.107 C 
ENDROOT
BRANCH   1   8
HETATM    8  O1  UNL     1      21.021  29.949  13.100  1.00  0.00    -0.373 OA
BRANCH   8   9
HETATM    9  C13 UNL     1      21.871  29.067  13.657  1.00  0.00     0.261 C 
BRANCH   9  10
HETATM   10  C12 UNL     1      22.767  28.564  12.583  1.00  0.00    -0.081 C 
HETATM   11  C11 UNL     1      23.501  28.182  11.707  1.00  0.00    -0.104 C 
BRANCH  11  12
HETATM   12  C10 UNL     1      24.406  27.741  10.622  1.00  0.00     0.094 C 
BRANCH  12  13
HETATM   13  C9  UNL     1      23.794  28.034   9.271  1.00  0.00     0.012 C 
BRANCH  13  14
HETATM   14  C8  UNL     1      23.764  26.834   8.357  1.00  0.00     0.001 C 
BRANCH  14  15
HETATM   15  C7  UNL     1      24.609  25.694   8.861  1.00  0.00     0.000 C 
BRANCH  15  16
HETATM   16  C6  UNL     1      23.783  24.439   8.961  1.00  0.00     0.000 C 
BRANCH  16  17
HETATM   17  C5  UNL     1      22.338  24.684   9.222  1.00  0.00     0.000 C 
BRANCH  17  18
HETATM   18  C4  UNL     1      22.060  24.736  10.702  1.00  0.00     0.000 C 
BRANCH  18  19
HETATM   19  C3  UNL     1      20.915  25.636  11.011  1.00  0.00    -0.000 C 
BRANCH  19  20
HETATM   20  C2  UNL     1      20.421  26.340   9.738  1.00  0.00    -0.005 C 
HETATM   21  C1  UNL     1      20.126  27.779  10.050  1.00  0.00     0.005 C 
ENDBRANCH  19  20
ENDBRANCH  18  19
ENDBRANCH  17  18
ENDBRANCH  16  17
ENDBRANCH  15  16
ENDBRANCH  14  15
ENDBRANCH  13  14
ENDBRANCH  12  13
ENDBRANCH  11  12
ENDBRANCH   9  10
ENDBRANCH   8   9
ENDBRANCH   1   8
BRANCH   7  22
HETATM   22  S1  UNL     1      18.161  28.981  13.240  1.00  0.00    -0.163 SA
HETATM   23  C29 UNL     1      17.536  29.972  11.894  1.00  0.00     0.090 C 
ENDBRANCH   7  22
BRANCH   3  24
HETATM   24  C17 UNL     1      21.405  33.483  16.073  1.00  0.00     0.251 C 
HETATM   25  O2  UNL     1      22.584  33.180  15.695  1.00  0.00    -0.270 OA
HETATM   26  N1  UNL     1      21.221  34.635  16.816  1.00  0.00    -0.321 N 
HETATM   27  C18 UNL     1      22.316  35.553  17.202  1.00  0.00     0.160 C 
HETATM   28  C21 UNL     1      19.989  35.153  17.350  1.00  0.00     0.225 C 
HETATM   29  C19 UNL     1      21.656  36.855  17.580  1.00  0.00     0.140 C 
HETATM   30  C20 UNL     1      20.366  36.361  18.209  1.00  0.00     0.087 C 
BRANCH  29  31
HETATM   31  O3  UNL     1      22.447  37.553  18.505  1.00  0.00    -0.394 OA
ATOM     32  H3  UNL     1      21.919  38.181  18.984  1.00  0.00     0.210 HD
ENDBRANCH  29  31
BRANCH  28  33
HETATM   33  O4  UNL     1      19.106  35.618  16.374  1.00  0.00    -0.377 OA
ATOM     34  H4  UNL     1      18.475  36.248  16.699  1.00  0.00     0.212 HD
ENDBRANCH  28  33
ENDBRANCH   3  24
BRANCH   6  35
HETATM   35  O6  UNL     1      18.028  30.773  16.533  1.00  0.00    -0.392 OA
ATOM     36  H6  UNL     1      17.833  29.877  16.779  1.00  0.00     0.210 HD
ENDBRANCH   6  35
BRANCH   5  37
HETATM   37  C23 UNL     1      16.924  33.024  15.320  1.00  0.00    -0.023 C 
HETATM   38  C24 UNL     1      17.057  33.341  16.767  1.00  0.00     0.017 C 
HETATM   39  C25 UNL     1      16.666  34.271  14.526  1.00  0.00     0.017 C 
HETATM   40  C26 UNL     1      15.690  32.131  15.128  1.00  0.00     0.017 C 
ENDBRANCH   5  37
TORSDOF 18
ENDMDL
MODEL 2
REMARK VINA RESULT: -7.268956110      2.772      9.009
REMARK  18 active torsions:
REMARK  status: ('A' for Active; 'I' for Inactive)
REMARK    1  A    between atoms: C2_2  and  C3_3 
REMARK    2  A    between atoms: C3_3  and  C4_4 
REMARK    3  A    between atoms: C4_4  and  C5_5 
REMARK    4  A    between atoms: C5_5  and  C6_6 
REMARK    5  A    between atoms: C6_6  and  C7_7 
REMARK    6  A    between atoms: C7_7  and  C8_8 
REMARK    7  A    between atoms: C8_8  and  C9_9 
REMARK    8  A    between atoms: C9_9  and  C10_10 
REMARK    9  A    between atoms: C10_10  and  C11_11 
REMARK   10  A    between atoms: C12_12  and  C13_13 
REMARK   11  A    between atoms: C13_13  and  O1_14 
REMARK   12  A    between atoms: O1_14  and  C14_15 
REMARK   13  A    between atoms: C16_17  and  C17_18 
REMARK       I    between atoms: C17_18  and  N1_20 
REMARK   14  A    between atoms: C19_22  and  O3_23 
REMARK   15  A    between atoms: C21_26  and  O4_27 
REMARK   16  A    between atoms: C22_30  and  C23_31 
REMARK   17  A    between atoms: C27_35  and  O6_36 
REMARK   18  A    between atoms: C28_38  and  S1_39 
ROOT
HETATM    1  C14 UNL     1      19.494  29.773  14.642  1.00  0.00     0.142 C 
HETATM    2  C15 UNL     1      20.755  29.724  13.867  1.00  0.00     0.075 C 
HETATM    3  C16 UNL     1      20.737  28.858  12.618  1.00  0.00     0.216 C 
HETATM    4  O5  UNL     1      19.684  28.040  12.470  1.00  0.00    -0.368 OA
HETATM    5  C22 UNL     1      18.409  28.437  12.520  1.00  0.00     0.160 C 
HETATM    6  C27 UNL     1      18.089  29.879  12.616  1.00  0.00     0.164 C 
HETATM    7  C28 UNL     1      18.466  30.573  13.881  1.00  0.00     0.107 C 
ENDROOT
BRANCH   1   8
HETATM    8  O1  UNL     1      19.752  30.240  15.894  1.00  0.00    -0.373 OA
BRANCH   8   9
HETATM    9  C13 UNL     1      20.737  31.131  16.104  1.00  0.00     0.261 C 
BRANCH   9  10
HETATM   10  C12 UNL     1      20.105  32.458  16.330  1.00  0.00    -0.081 C 
HETATM   11  C11 UNL     1      19.591  33.528  16.540  1.00  0.00    -0.104 C 
BRANCH  11  12
HETATM   12  C10 UNL     1      18.953  34.832  16.825  1.00  0.00     0.094 C 
BRANCH  12  13
HETATM   13  C9  UNL     1      19.593  35.481  18.032  1.00  0.00     0.012 C 
BRANCH  13  14
HETATM   14  C8  UNL     1      20.347  36.745  17.700  1.00  0.00     0.001 C 
BRANCH  14  15
HETATM   15  C7  UNL     1      21.818  36.508  17.480  1.00  0.00     0.000 C 
BRANCH  15  16
HETATM   16  C6  UNL     1      22.298  35.378  18.352  1.00  0.00     0.000 C 
BRANCH  16  17
HETATM   17  C5  UNL     1      23.087  34.346  17.624  1.00  0.00     0.000 C 
BRANCH  17  18
HETATM   18  C4  UNL     1      23.243  34.713  16.171  1.00  0.00     0.000 C 
BRANCH  18  19
HETATM   19  C3  UNL     1      24.302  33.899  15.514  1.00  0.00    -0.000 C 
BRANCH  19  20
HETATM   20  C2  UNL     1      23.676  32.828  14.608  1.00  0.00    -0.005 C 
HETATM   21  C1  UNL     1      22.499  33.416  13.884  1.00  0.00     0.005 C 
ENDBRANCH  19  20
ENDBRANCH  18  19
ENDBRANCH  17  18
ENDBRANCH  16  17
ENDBRANCH  15  16
ENDBRANCH  14  15
ENDBRANCH  13  14
ENDBRANCH  12  13
ENDBRANCH  11  12
ENDBRANCH   9  10
ENDBRANCH   8   9
ENDBRANCH   1   8
BRANCH   7  22
HETATM   22  S1  UNL     1      16.976  30.858  14.870  1.00  0.00    -0.163 SA
HETATM   23  C29 UNL     1      16.499  32.577  14.927  1.00  0.00     0.090 C 
ENDBRANCH   7  22
BRANCH   3  24
HETATM   24  C17 UNL     1      22.084  28.281  12.401  1.00  0.00     0.251 C 
HETATM   25  O2  UNL     1      23.026  28.877  13.017  1.00  0.00    -0.270 OA
HETATM   26  N1  UNL     1      22.392  27.186  11.614  1.00  0.00    -0.321 N 
HETATM   27  C18 UNL     1      23.761  26.652  11.442  1.00  0.00     0.160 C 
HETATM   28  C21 UNL     1      21.492  26.381  10.830  1.00  0.00     0.225 C 
HETATM   29  C19 UNL     1      23.599  25.249  10.912  1.00  0.00     0.140 C 
HETATM   30  C20 UNL     1      22.365  25.402  10.043  1.00  0.00     0.087 C 
BRANCH  29  31
HETATM   31  O3  UNL     1      24.721  24.881  10.155  1.00  0.00    -0.394 OA
ATOM     32  H3  UNL     1      24.584  24.031   9.752  1.00  0.00     0.210 HD
ENDBRANCH  29  31
BRANCH  28  33
HETATM   33  O4  UNL     1      20.618  25.609  11.596  1.00  0.00    -0.377 OA
ATOM     34  H4  UNL     1      20.901  24.709  11.708  1.00  0.00     0.212 HD
ENDBRANCH  28  33
ENDBRANCH   3  24
BRANCH   6  35
HETATM   35  O6  UNL     1      18.492  30.551  11.452  1.00  0.00    -0.392 OA
ATOM     36  H6  UNL     1      17.824  31.167  11.175  1.00  0.00     0.210 HD
ENDBRANCH   6  35
BRANCH   5  37
HETATM   37  C23 UNL     1      17.675  27.895  11.273  1.00  0.00    -0.023 C 
HETATM   38  C24 UNL     1      18.485  28.015  10.031  1.00  0.00     0.017 C 
HETATM   39  C25 UNL     1      17.297  26.464  11.523  1.00  0.00     0.017 C 
HETATM   40  C26 UNL     1      16.357  28.657  11.070  1.00  0.00     0.017 C 
ENDBRANCH   5  37
TORSDOF 18
ENDMDL
MODEL 3
REMARK VINA RESULT: -7.253812268      2.156      4.618
REMARK  18 active torsions:
REMARK  status: ('A' for Active; 'I' for Inactive)
REMARK    1  A    between atoms: C2_2  and  C3_3 
REMARK    2  A    between atoms: C3_3  and  C4_4 
REMARK    3  A    between atoms: C4_4  and  C5_5 
REMARK    4  A    between atoms: C5_5  and  C6_6 
REMARK    5  A    between atoms: C6_6  and  C7_7 
REMARK    6  A    between atoms: C7_7  and  C8_8 
REMARK    7  A    between atoms: C8_8  and  C9_9 
REMARK    8  A    between atoms: C9_9  and  C10_10 
REMARK    9  A    between atoms: C10_10  and  C11_11 
REMARK   10  A    between atoms: C12_12  and  C13_13 
REMARK   11  A    between atoms: C13_13  and  O1_14 
REMARK   12  A    between atoms: O1_14  and  C14_15 
REMARK   13  A    between atoms: C16_17  and  C17_18 
REMARK       I    between atoms: C17_18  and  N1_20 
REMARK   14  A    between atoms: C19_22  and  O3_23 
REMARK   15  A    between atoms: C21_26  and  O4_27 
REMARK   16  A    between atoms: C22_30  and  C23_31 
REMARK   17  A    between atoms: C27_35  and  O6_36 
REMARK   18  A    between atoms: C28_38  and  S1_39 
ROOT
HETATM    1  C14 UNL     1      19.436  29.559  14.097  1.00  0.00     0.142 C 
HETATM    2  C15 UNL     1      18.302  30.496  14.269  1.00  0.00     0.075 C 
HETATM    3  C16 UNL     1      18.600  31.769  15.045  1.00  0.00     0.216 C 
HETATM    4  O5  UNL     1      19.768  31.813  15.701  1.00  0.00    -0.368 OA
HETATM    5  C22 UNL     1      20.958  31.577  15.137  1.00  0.00     0.160 C 
HETATM    6  C27 UNL     1      21.053  31.375  13.674  1.00  0.00     0.164 C 
HETATM    7  C28 UNL     1      20.426  30.142  13.118  1.00  0.00     0.107 C 
ENDROOT
BRANCH   1   8
HETATM    8  O1  UNL     1      18.960  28.333  13.749  1.00  0.00    -0.373 OA
BRANCH   8   9
HETATM    9  C13 UNL     1      17.741  28.203  13.195  1.00  0.00     0.261 C 
BRANCH   9  10
HETATM   10  C12 UNL     1      17.771  27.004  12.315  1.00  0.00    -0.081 C 
HETATM   11  C11 UNL     1      17.823  26.030  11.607  1.00  0.00    -0.104 C 
BRANCH  11  12
HETATM   12  C10 UNL     1      17.916  24.836  10.739  1.00  0.00     0.094 C 
BRANCH  12  13
HETATM   13  C9  UNL     1      18.772  23.774  11.390  1.00  0.00     0.012 C 
BRANCH  13  14
HETATM   14  C8  UNL     1      20.082  23.545  10.678  1.00  0.00     0.001 C 
BRANCH  14  15
HETATM   15  C7  UNL     1      21.135  24.555  11.052  1.00  0.00     0.000 C 
BRANCH  15  16
HETATM   16  C6  UNL     1      21.570  25.327   9.835  1.00  0.00     0.000 C 
BRANCH  16  17
HETATM   17  C5  UNL     1      22.657  24.670   9.057  1.00  0.00     0.000 C 
BRANCH  17  18
HETATM   18  C4  UNL     1      23.966  24.740   9.800  1.00  0.00     0.000 C 
BRANCH  18  19
HETATM   19  C3  UNL     1      24.894  25.724   9.179  1.00  0.00    -0.000 C 
BRANCH  19  20
HETATM   20  C2  UNL     1      25.720  26.443  10.257  1.00  0.00    -0.005 C 
HETATM   21  C1  UNL     1      24.939  26.479  11.539  1.00  0.00     0.005 C 
ENDBRANCH  19  20
ENDBRANCH  18  19
ENDBRANCH  17  18
ENDBRANCH  16  17
ENDBRANCH  15  16
ENDBRANCH  14  15
ENDBRANCH  13  14
ENDBRANCH  12  13
ENDBRANCH  11  12
ENDBRANCH   9  10
ENDBRANCH   8   9
ENDBRANCH   1   8
BRANCH   7  22
HETATM   22  S1  UNL     1      21.725  28.952  12.696  1.00  0.00    -0.163 SA
HETATM   23  C29 UNL     1      22.024  28.847  10.940  1.00  0.00     0.090 C 
ENDBRANCH   7  22
BRANCH   3  24
HETATM   24  C17 UNL     1      17.387  32.188  15.785  1.00  0.00     0.251 C 
HETATM   25  O2  UNL     1      16.413  31.367  15.724  1.00  0.00    -0.270 OA
HETATM   26  N1  UNL     1      17.229  33.353  16.513  1.00  0.00    -0.321 N 
HETATM   27  C18 UNL     1      15.990  33.713  17.238  1.00  0.00     0.160 C 
HETATM   28  C21 UNL     1      18.186  34.412  16.701  1.00  0.00     0.225 C 
HETATM   29  C19 UNL     1      16.382  34.779  18.231  1.00  0.00     0.140 C 
HETATM   30  C20 UNL     1      17.455  35.522  17.459  1.00  0.00     0.087 C 
BRANCH  29  31
HETATM   31  O3  UNL     1      15.286  35.605  18.518  1.00  0.00    -0.394 OA
ATOM     32  H3  UNL     1      15.371  35.977  19.388  1.00  0.00     0.210 HD
ENDBRANCH  29  31
BRANCH  28  33
HETATM   33  O4  UNL     1      19.280  34.046  17.487  1.00  0.00    -0.377 OA
ATOM     34  H4  UNL     1      19.079  33.976  18.413  1.00  0.00     0.212 HD
ENDBRANCH  28  33
ENDBRANCH   3  24
BRANCH   6  35
HETATM   35  O6  UNL     1      20.707  32.551  12.992  1.00  0.00    -0.392 OA
ATOM     36  H6  UNL     1      21.037  32.529  12.101  1.00  0.00     0.210 HD
ENDBRANCH   6  35
BRANCH   5  37
HETATM   37  C23 UNL     1      21.911  32.739  15.495  1.00  0.00    -0.023 C 
HETATM   38  C24 UNL     1      21.343  34.072  15.161  1.00  0.00     0.017 C 
HETATM   39  C25 UNL     1      22.242  32.655  16.957  1.00  0.00     0.017 C 
HETATM   40  C26 UNL     1      23.241  32.574  14.745  1.00  0.00     0.017 C 
ENDBRANCH   5  37
TORSDOF 18
ENDMDL
MODEL 4
REMARK VINA RESULT: -7.114389379      2.684      5.506
REMARK  18 active torsions:
REMARK  status: ('A' for Active; 'I' for Inactive)
REMARK    1  A    between atoms: C2_2  and  C3_3 
REMARK    2  A    between atoms: C3_3  and  C4_4 
REMARK    3  A    between atoms: C4_4  and  C5_5 
REMARK    4  A    between atoms: C5_5  and  C6_6 
REMARK    5  A    between atoms: C6_6  and  C7_7 
REMARK    6  A    between atoms: C7_7  and  C8_8 
REMARK    7  A    between atoms: C8_8  and  C9_9 
REMARK    8  A    between atoms: C9_9  and  C10_10 
REMARK    9  A    between atoms: C10_10  and  C11_11 
REMARK   10  A    between atoms: C12_12  and  C13_13 
REMARK   11  A    between atoms: C13_13  and  O1_14 
REMARK   12  A    between atoms: O1_14  and  C14_15 
REMARK   13  A    between atoms: C16_17  and  C17_18 
REMARK       I    between atoms: C17_18  and  N1_20 
REMARK   14  A    between atoms: C19_22  and  O3_23 
REMARK   15  A    between atoms: C21_26  and  O4_27 
REMARK   16  A    between atoms: C22_30  and  C23_31 
REMARK   17  A    between atoms: C27_35  and  O6_36 
REMARK   18  A    between atoms: C28_38  and  S1_39 
ROOT
HETATM    1  C14 UNL     1      19.158  32.842  15.937  1.00  0.00     0.142 C 
HETATM    2  C15 UNL     1      18.237  33.964  16.230  1.00  0.00     0.075 C 
HETATM    3  C16 UNL     1      18.797  35.076  17.103  1.00  0.00     0.216 C 
HETATM    4  O5  UNL     1      19.962  34.827  17.718  1.00  0.00    -0.368 OA
HETATM    5  C22 UNL     1      21.070  34.414  17.094  1.00  0.00     0.160 C 
HETATM    6  C27 UNL     1      21.098  34.333  15.617  1.00  0.00     0.164 C 
HETATM    7  C28 UNL     1      20.227  33.305  14.978  1.00  0.00     0.107 C 
ENDROOT
BRANCH   1   8
HETATM    8  O1  UNL     1      18.440  31.771  15.501  1.00  0.00    -0.373 OA
BRANCH   8   9
HETATM    9  C13 UNL     1      17.322  31.946  14.774  1.00  0.00     0.261 C 
BRANCH   9  10
HETATM   10  C12 UNL     1      17.463  31.146  13.529  1.00  0.00    -0.081 C 
HETATM   11  C11 UNL     1      17.602  30.488  12.529  1.00  0.00    -0.104 C 
BRANCH  11  12
HETATM   12  C10 UNL     1      17.800  29.674  11.309  1.00  0.00     0.094 C 
BRANCH  12  13
HETATM   13  C9  UNL     1      16.469  29.335  10.677  1.00  0.00     0.012 C 
BRANCH  13  14
HETATM   14  C8  UNL     1      16.245  27.852  10.518  1.00  0.00     0.001 C 
BRANCH  14  15
HETATM   15  C7  UNL     1      16.612  27.070  11.752  1.00  0.00     0.000 C 
BRANCH  15  16
HETATM   16  C6  UNL     1      17.488  25.902  11.385  1.00  0.00     0.000 C 
BRANCH  16  17
HETATM   17  C5  UNL     1      18.423  26.176  10.259  1.00  0.00     0.000 C 
BRANCH  17  18
HETATM   18  C4  UNL     1      19.848  25.899  10.664  1.00  0.00     0.000 C 
BRANCH  18  19
HETATM   19  C3  UNL     1      20.697  27.115  10.540  1.00  0.00    -0.000 C 
BRANCH  19  20
HETATM   20  C2  UNL     1      20.898  27.776  11.912  1.00  0.00    -0.005 C 
HETATM   21  C1  UNL     1      21.457  29.157  11.720  1.00  0.00     0.005 C 
ENDBRANCH  19  20
ENDBRANCH  18  19
ENDBRANCH  17  18
ENDBRANCH  16  17
ENDBRANCH  15  16
ENDBRANCH  14  15
ENDBRANCH  13  14
ENDBRANCH  12  13
ENDBRANCH  11  12
ENDBRANCH   9  10
ENDBRANCH   8   9
ENDBRANCH   1   8
BRANCH   7  22
HETATM   22  S1  UNL     1      21.255  31.926  14.408  1.00  0.00    -0.163 SA
HETATM   23  C29 UNL     1      22.980  32.361  14.262  1.00  0.00     0.090 C 
ENDBRANCH   7  22
BRANCH   3  24
HETATM   24  C17 UNL     1      17.706  35.656  17.919  1.00  0.00     0.251 C 
HETATM   25  O2  UNL     1      17.232  34.876  18.810  1.00  0.00    -0.270 OA
HETATM   26  N1  UNL     1      17.177  36.929  17.800  1.00  0.00    -0.321 N 
HETATM   27  C18 UNL     1      16.087  37.453  18.653  1.00  0.00     0.160 C 
HETATM   28  C21 UNL     1      17.551  37.955  16.864  1.00  0.00     0.225 C 
HETATM   29  C19 UNL     1      16.133  38.954  18.513  1.00  0.00     0.140 C 
HETATM   30  C20 UNL     1      16.560  39.103  17.064  1.00  0.00     0.087 C 
BRANCH  29  31
HETATM   31  O3  UNL     1      14.861  39.504  18.735  1.00  0.00    -0.394 OA
ATOM     32  H3  UNL     1      14.465  39.763  17.911  1.00  0.00     0.210 HD
ENDBRANCH  29  31
BRANCH  28  33
HETATM   33  O4  UNL     1      18.824  38.483  17.090  1.00  0.00    -0.377 OA
ATOM     34  H4  UNL     1      19.075  38.495  18.006  1.00  0.00     0.212 HD
ENDBRANCH  28  33
ENDBRANCH   3  24
BRANCH   6  35
HETATM   35  O6  UNL     1      20.982  35.612  15.052  1.00  0.00    -0.392 OA
ATOM     36  H6  UNL     1      21.838  35.953  14.820  1.00  0.00     0.210 HD
ENDBRANCH   6  35
BRANCH   5  37
HETATM   37  C23 UNL     1      22.243  35.326  17.518  1.00  0.00    -0.023 C 
HETATM   38  C24 UNL     1      21.880  36.769  17.513  1.00  0.00     0.017 C 
HETATM   39  C25 UNL     1      22.713  34.903  18.879  1.00  0.00     0.017 C 
HETATM   40  C26 UNL     1      23.434  35.120  16.571  1.00  0.00     0.017 C 
ENDBRANCH   5  37
TORSDOF 18
ENDMDL
MODEL 5
REMARK VINA RESULT: -7.104616647      3.995     11.169
REMARK  18 active torsions:
REMARK  status: ('A' for Active; 'I' for Inactive)
REMARK    1  A    between atoms: C2_2  and  C3_3 
REMARK    2  A    between atoms: C3_3  and  C4_4 
REMARK    3  A    between atoms: C4_4  and  C5_5 
REMARK    4  A    between atoms: C5_5  and  C6_6 
REMARK    5  A    between atoms: C6_6  and  C7_7 
REMARK    6  A    between atoms: C7_7  and  C8_8 
REMARK    7  A    between atoms: C8_8  and  C9_9 
REMARK    8  A    between atoms: C9_9  and  C10_10 
REMARK    9  A    between atoms: C10_10  and  C11_11 
REMARK   10  A    between atoms: C12_12  and  C13_13 
REMARK   11  A    between atoms: C13_13  and  O1_14 
REMARK   12  A    between atoms: O1_14  and  C14_15 
REMARK   13  A    between atoms: C16_17  and  C17_18 
REMARK       I    between atoms: C17_18  and  N1_20 
REMARK   14  A    between atoms: C19_22  and  O3_23 
REMARK   15  A    between atoms: C21_26  and  O4_27 
REMARK   16  A    between atoms: C22_30  and  C23_31 
REMARK   17  A    between atoms: C27_35  and  O6_36 
REMARK   18  A    between atoms: C28_38  and  S1_39 
ROOT
HETATM    1  C14 UNL     1      19.352  29.155  11.065  1.00  0.00     0.142 C 
HETATM    2  C15 UNL     1      18.753  27.819  11.287  1.00  0.00     0.075 C 
HETATM    3  C16 UNL     1      19.609  26.628  10.885  1.00  0.00     0.216 C 
HETATM    4  O5  UNL     1      20.701  26.894  10.153  1.00  0.00    -0.368 OA
HETATM    5  C22 UNL     1      21.643  27.777  10.500  1.00  0.00     0.160 C 
HETATM    6  C27 UNL     1      21.586  28.433  11.825  1.00  0.00     0.164 C 
HETATM    7  C28 UNL     1      20.460  29.381  12.063  1.00  0.00     0.107 C 
ENDROOT
BRANCH   1   8
HETATM    8  O1  UNL     1      18.372  30.099  11.091  1.00  0.00    -0.373 OA
BRANCH   8   9
HETATM    9  C13 UNL     1      17.346  29.997  11.955  1.00  0.00     0.261 C 
BRANCH   9  10
HETATM   10  C12 UNL     1      17.569  30.988  13.041  1.00  0.00    -0.081 C 
HETATM   11  C11 UNL     1      17.740  31.811  13.904  1.00  0.00    -0.104 C 
BRANCH  11  12
HETATM   12  C10 UNL     1      17.943  32.843  14.945  1.00  0.00     0.094 C 
BRANCH  12  13
HETATM   13  C9  UNL     1      17.007  34.010  14.723  1.00  0.00     0.012 C 
BRANCH  13  14
HETATM   14  C8  UNL     1      15.583  33.718  15.128  1.00  0.00     0.001 C 
BRANCH  14  15
HETATM   15  C7  UNL     1      15.487  32.994  16.445  1.00  0.00     0.000 C 
BRANCH  15  16
HETATM   16  C6  UNL     1      15.484  33.982  17.582  1.00  0.00     0.000 C 
BRANCH  16  17
HETATM   17  C5  UNL     1      14.540  35.118  17.394  1.00  0.00     0.000 C 
BRANCH  17  18
HETATM   18  C4  UNL     1      15.171  36.417  17.825  1.00  0.00     0.000 C 
BRANCH  18  19
HETATM   19  C3  UNL     1      16.542  36.206  18.364  1.00  0.00    -0.000 C 
BRANCH  19  20
HETATM   20  C2  UNL     1      17.551  37.116  17.647  1.00  0.00    -0.005 C 
HETATM   21  C1  UNL     1      16.810  38.188  16.901  1.00  0.00     0.005 C 
ENDBRANCH  19  20
ENDBRANCH  18  19
ENDBRANCH  17  18
ENDBRANCH  16  17
ENDBRANCH  15  16
ENDBRANCH  14  15
ENDBRANCH  13  14
ENDBRANCH  12  13
ENDBRANCH  11  12
ENDBRANCH   9  10
ENDBRANCH   8   9
ENDBRANCH   1   8
BRANCH   7  22
HETATM   22  S1  UNL     1      21.087  31.079  11.990  1.00  0.00    -0.163 SA
HETATM   23  C29 UNL     1      21.604  31.697  13.583  1.00  0.00     0.090 C 
ENDBRANCH   7  22
BRANCH   3  24
HETATM   24  C17 UNL     1      18.733  25.526  10.424  1.00  0.00     0.251 C 
HETATM   25  O2  UNL     1      17.762  25.254  11.205  1.00  0.00    -0.270 OA
HETATM   26  N1  UNL     1      18.874  24.796   9.258  1.00  0.00    -0.321 N 
HETATM   27  C18 UNL     1      17.958  23.708   8.850  1.00  0.00     0.160 C 
HETATM   28  C21 UNL     1      19.894  24.928   8.253  1.00  0.00     0.225 C 
HETATM   29  C19 UNL     1      18.184  23.504   7.372  1.00  0.00     0.140 C 
HETATM   30  C20 UNL     1      19.670  23.787   7.259  1.00  0.00     0.087 C 
BRANCH  29  31
HETATM   31  O3  UNL     1      17.881  22.184   7.009  1.00  0.00    -0.394 OA
ATOM     32  H3  UNL     1      18.330  21.951   6.205  1.00  0.00     0.210 HD
ENDBRANCH  29  31
BRANCH  28  33
HETATM   33  O4  UNL     1      19.812  26.115   7.522  1.00  0.00    -0.377 OA
ATOM     34  H4  UNL     1      18.946  26.507   7.529  1.00  0.00     0.212 HD
ENDBRANCH  28  33
ENDBRANCH   3  24
BRANCH   6  35
HETATM   35  O6  UNL     1      21.769  27.492  12.850  1.00  0.00    -0.392 OA
ATOM     36  H6  UNL     1      20.931  27.166  13.156  1.00  0.00     0.210 HD
ENDBRANCH   6  35
BRANCH   5  37
HETATM   37  C23 UNL     1      23.024  27.090  10.397  1.00  0.00    -0.023 C 
HETATM   38  C24 UNL     1      22.985  25.658  10.799  1.00  0.00     0.017 C 
HETATM   39  C25 UNL     1      23.526  27.231   8.989  1.00  0.00     0.017 C 
HETATM   40  C26 UNL     1      24.039  27.819  11.289  1.00  0.00     0.017 C 
ENDBRANCH   5  37
TORSDOF 18
ENDMDL
