MODEL 1
REMARK VINA RESULT: -7.979156164      0.000      0.000
REMARK  15 active torsions:
REMARK  status: ('A' for Active; 'I' for Inactive)
REMARK    1  A    between atoms: C2_2  and  C3_3 
REMARK    2  A    between atoms: C4_4  and  O1_5 
REMARK    3  A    between atoms: C8_10  and  O2_11 
REMARK    4  A    between atoms: C13_17  and  C14_18 
REMARK    5  A    between atoms: C15_19  and  C16_20 
REMARK    6  A    between atoms: C16_20  and  O3_21 
REMARK    7  A    between atoms: C16_20  and  C17_23 
REMARK    8  A    between atoms: C20_26  and  C21_27 
REMARK    9  A    between atoms: C21_27  and  O5_29 
REMARK   10  A    between atoms: O5_29  and  C22_30 
REMARK   11  A    between atoms: C22_30  and  C23_31 
REMARK   12  A    between atoms: C23_31  and  C24_32 
REMARK   13  A    between atoms: C24_32  and  N1_33 
REMARK   14  A    between atoms: C28_38  and  C29_39 
REMARK   15  A    between atoms: C29_39  and  S1_40 
ROOT
HETATM    1  C16 UNL     1      22.032  32.078  14.189  1.00  0.00     0.147 C 
ENDROOT
BRANCH   1   2
HETATM    2  C15 UNL     1      21.397  33.213  14.859  1.00  0.00     0.001 C 
HETATM    3  C14 UNL     1      20.554  33.019  15.845  1.00  0.00    -0.022 C 
BRANCH   3   4
HETATM    4  C13 UNL     1      19.883  34.155  16.549  1.00  0.00     0.023 C 
HETATM    5  C3  UNL     1      20.414  34.380  17.909  1.00  0.00     0.022 C 
HETATM    6  C4  UNL     1      19.744  35.540  18.582  1.00  0.00     0.123 C 
HETATM    7  C5  UNL     1      18.613  36.082  17.731  1.00  0.00     0.037 C 
HETATM    8  C6  UNL     1      17.716  34.867  17.441  1.00  0.00    -0.001 C 
HETATM    9  C7  UNL     1      16.315  35.273  17.142  1.00  0.00     0.037 C 
HETATM   10  C11 UNL     1      18.377  33.929  16.527  1.00  0.00    -0.033 C 
HETATM   11  C8  UNL     1      15.750  34.780  15.866  1.00  0.00     0.118 C 
HETATM   12  C9  UNL     1      16.787  34.880  14.801  1.00  0.00     0.032 C 
HETATM   13  C10 UNL     1      17.985  34.057  15.076  1.00  0.00     0.012 C 
HETATM   14  C12 UNL     1      18.137  32.498  17.023  1.00  0.00     0.016 C 
BRANCH   5  15
HETATM   15  C2  UNL     1      21.931  34.560  17.923  1.00  0.00     0.003 C 
HETATM   16  C1  UNL     1      22.314  35.952  17.494  1.00  0.00     0.005 C 
ENDBRANCH   5  15
BRANCH   6  17
HETATM   17  O1  UNL     1      19.230  35.106  19.824  1.00  0.00    -0.395 OA
ATOM     18  H1  UNL     1      19.803  35.417  20.515  1.00  0.00     0.210 HD
ENDBRANCH   6  17
BRANCH  11  19
HETATM   19  O2  UNL     1      15.158  33.526  15.943  1.00  0.00    -0.396 OA
ATOM     20  H2  UNL     1      14.371  33.428  15.420  1.00  0.00     0.210 HD
ENDBRANCH  11  19
ENDBRANCH   3   4
ENDBRANCH   1   2
BRANCH   1  21
HETATM   21  O3  UNL     1      22.917  31.447  15.099  1.00  0.00    -0.391 OA
ATOM     22  H3  UNL     1      23.544  30.929  14.608  1.00  0.00     0.210 HD
ENDBRANCH   1  21
BRANCH   1  23
HETATM   23  C17 UNL     1      21.101  31.011  13.659  1.00  0.00     0.048 C 
HETATM   24  C18 UNL     1      21.457  30.874  12.197  1.00  0.00     0.013 C 
HETATM   25  C19 UNL     1      21.366  29.511  11.628  1.00  0.00     0.043 C 
HETATM   26  C20 UNL     1      21.634  28.399  12.571  1.00  0.00     0.221 C 
HETATM   27  O6  UNL     1      21.968  28.751  13.837  1.00  0.00    -0.369 OA
HETATM   28  C28 UNL     1      21.169  29.733  14.411  1.00  0.00     0.138 C 
BRANCH  26  29
HETATM   29  C21 UNL     1      22.757  27.548  12.033  1.00  0.00     0.288 C 
HETATM   30  O4  UNL     1      23.861  28.048  11.699  1.00  0.00    -0.262 OA
BRANCH  29  31
HETATM   31  O5  UNL     1      22.602  26.181  11.891  1.00  0.00    -0.319 OA
BRANCH  31  32
HETATM   32  C22 UNL     1      22.090  25.712  10.640  1.00  0.00     0.180 C 
BRANCH  32  33
HETATM   33  C23 UNL     1      20.638  25.420  10.702  1.00  0.00     0.055 C 
BRANCH  33  34
HETATM   34  C24 UNL     1      19.848  26.063   9.638  1.00  0.00     0.238 C 
BRANCH  34  35
HETATM   35  N1  UNL     1      18.587  26.589  10.030  1.00  0.00    -0.079 N 
HETATM   36  C25 UNL     1      18.332  26.336  11.432  1.00  0.00     0.271 C 
HETATM   37  C26 UNL     1      17.587  25.809   9.232  1.00  0.00     0.271 C 
HETATM   38  C27 UNL     1      18.396  27.964   9.640  1.00  0.00     0.271 C 
ENDBRANCH  34  35
ENDBRANCH  33  34
ENDBRANCH  32  33
ENDBRANCH  31  32
ENDBRANCH  29  31
ENDBRANCH  26  29
BRANCH  28  39
HETATM   39  C29 UNL     1      19.880  29.199  14.948  1.00  0.00     0.105 C 
BRANCH  39  40
HETATM   40  S1  UNL     1      18.379  30.003  14.465  1.00  0.00    -0.171 SA
HETATM   41  C30 UNL     1      17.855  29.737  12.777  1.00  0.00     0.089 C 
ENDBRANCH  39  40
ENDBRANCH  28  39
ENDBRANCH   1  23
TORSDOF 15
ENDMDL
MODEL 2
REMARK VINA RESULT: -7.890361308      2.749      4.319
REMARK  15 active torsions:
REMARK  status: ('A' for Active; 'I' for Inactive)
REMARK    1  A    between atoms: C2_2  and  C3_3 
REMARK    2  A    between atoms: C4_4  and  O1_5 
REMARK    3  A    between atoms: C8_10  and  O2_11 
REMARK    4  A    between atoms: C13_17  and  C14_18 
REMARK    5  A    between atoms: C15_19  and  C16_20 
REMARK    6  A    between atoms: C16_20  and  O3_21 
REMARK    7  A    between atoms: C16_20  and  C17_23 
REMARK    8  A    between atoms: C20_26  and  C21_27 
REMARK    9  A    between atoms: C21_27  and  O5_29 
REMARK   10  A    between atoms: O5_29  and  C22_30 
REMARK   11  A    between atoms: C22_30  and  C23_31 
REMARK   12  A    between atoms: C23_31  and  C24_32 
REMARK   13  A    between atoms: C24_32  and  N1_33 
REMARK   14  A    between atoms: C28_38  and  C29_39 
REMARK   15  A    between atoms: C29_39  and  S1_40 
ROOT
HETATM    1  C16 UNL     1      18.001  29.633  12.624  1.00  0.00     0.147 C 
ENDROOT
BRANCH   1   2
HETATM    2  C15 UNL     1      18.572  30.877  13.143  1.00  0.00     0.001 C 
HETATM    3  C14 UNL     1      18.933  30.971  14.400  1.00  0.00    -0.022 C 
BRANCH   3   4
HETATM    4  C13 UNL     1      19.516  32.227  14.965  1.00  0.00     0.023 C 
HETATM    5  C3  UNL     1      20.801  32.002  15.658  1.00  0.00     0.022 C 
HETATM    6  C4  UNL     1      21.376  33.280  16.191  1.00  0.00     0.123 C 
HETATM    7  C5  UNL     1      20.416  34.435  15.986  1.00  0.00     0.037 C 
HETATM    8  C6  UNL     1      19.097  33.974  16.629  1.00  0.00    -0.001 C 
HETATM    9  C7  UNL     1      18.252  35.127  17.044  1.00  0.00     0.037 C 
HETATM   10  C11 UNL     1      18.473  32.901  15.847  1.00  0.00    -0.033 C 
HETATM   11  C8  UNL     1      16.869  35.146  16.517  1.00  0.00     0.118 C 
HETATM   12  C9  UNL     1      16.883  34.721  15.090  1.00  0.00     0.032 C 
HETATM   13  C10 UNL     1      17.387  33.344  14.898  1.00  0.00     0.012 C 
HETATM   14  C12 UNL     1      17.944  31.829  16.805  1.00  0.00     0.016 C 
BRANCH   5  15
HETATM   15  C2  UNL     1      21.823  31.284  14.778  1.00  0.00     0.003 C 
HETATM   16  C1  UNL     1      23.068  32.114  14.608  1.00  0.00     0.005 C 
ENDBRANCH   5  15
BRANCH   6  17
HETATM   17  O1  UNL     1      21.630  33.120  17.571  1.00  0.00    -0.395 OA
ATOM     18  H1  UNL     1      22.541  33.330  17.739  1.00  0.00     0.210 HD
ENDBRANCH   6  17
BRANCH  11  19
HETATM   19  O2  UNL     1      15.948  34.451  17.291  1.00  0.00    -0.396 OA
ATOM     20  H2  UNL     1      16.076  34.535  18.228  1.00  0.00     0.210 HD
ENDBRANCH  11  19
ENDBRANCH   3   4
ENDBRANCH   1   2
BRANCH   1  21
HETATM   21  O3  UNL     1      17.806  29.768  11.227  1.00  0.00    -0.391 OA
ATOM     22  H3  UNL     1      18.495  29.295  10.775  1.00  0.00     0.210 HD
ENDBRANCH   1  21
BRANCH   1  23
HETATM   23  C17 UNL     1      18.821  28.382  12.842  1.00  0.00     0.048 C 
HETATM   24  C18 UNL     1      17.872  27.240  12.565  1.00  0.00     0.013 C 
HETATM   25  C19 UNL     1      18.459  26.043  11.924  1.00  0.00     0.043 C 
HETATM   26  C20 UNL     1      19.613  26.292  11.027  1.00  0.00     0.221 C 
HETATM   27  O6  UNL     1      19.977  27.588  10.862  1.00  0.00    -0.369 OA
HETATM   28  C28 UNL     1      20.064  28.334  12.032  1.00  0.00     0.138 C 
BRANCH  26  29
HETATM   29  C21 UNL     1      19.308  25.737   9.658  1.00  0.00     0.288 C 
HETATM   30  O4  UNL     1      18.133  25.464   9.302  1.00  0.00    -0.262 OA
BRANCH  29  31
HETATM   31  O5  UNL     1      20.324  25.510   8.746  1.00  0.00    -0.319 OA
BRANCH  31  32
HETATM   32  C22 UNL     1      19.957  25.468   7.364  1.00  0.00     0.180 C 
BRANCH  32  33
HETATM   33  C23 UNL     1      21.111  25.155   6.488  1.00  0.00     0.055 C 
BRANCH  33  34
HETATM   34  C24 UNL     1      22.011  24.118   7.023  1.00  0.00     0.238 C 
BRANCH  34  35
HETATM   35  N1  UNL     1      23.402  24.396   6.939  1.00  0.00    -0.079 N 
HETATM   36  C25 UNL     1      23.755  25.533   7.764  1.00  0.00     0.271 C 
HETATM   37  C26 UNL     1      23.625  24.781   5.508  1.00  0.00     0.271 C 
HETATM   38  C27 UNL     1      24.230  23.237   7.155  1.00  0.00     0.271 C 
ENDBRANCH  34  35
ENDBRANCH  33  34
ENDBRANCH  32  33
ENDBRANCH  31  32
ENDBRANCH  29  31
ENDBRANCH  26  29
BRANCH  28  39
HETATM   39  C29 UNL     1      21.343  28.115  12.772  1.00  0.00     0.105 C 
BRANCH  39  40
HETATM   40  S1  UNL     1      22.857  28.185  11.858  1.00  0.00    -0.171 SA
HETATM   41  C30 UNL     1      23.532  26.614  11.338  1.00  0.00     0.089 C 
ENDBRANCH  39  40
ENDBRANCH  28  39
ENDBRANCH   1  23
TORSDOF 15
ENDMDL
MODEL 3
REMARK VINA RESULT: -7.889662598      2.564      4.058
REMARK  15 active torsions:
REMARK  status: ('A' for Active; 'I' for Inactive)
REMARK    1  A    between atoms: C2_2  and  C3_3 
REMARK    2  A    between atoms: C4_4  and  O1_5 
REMARK    3  A    between atoms: C8_10  and  O2_11 
REMARK    4  A    between atoms: C13_17  and  C14_18 
REMARK    5  A    between atoms: C15_19  and  C16_20 
REMARK    6  A    between atoms: C16_20  and  O3_21 
REMARK    7  A    between atoms: C16_20  and  C17_23 
REMARK    8  A    between atoms: C20_26  and  C21_27 
REMARK    9  A    between atoms: C21_27  and  O5_29 
REMARK   10  A    between atoms: O5_29  and  C22_30 
REMARK   11  A    between atoms: C22_30  and  C23_31 
REMARK   12  A    between atoms: C23_31  and  C24_32 
REMARK   13  A    between atoms: C24_32  and  N1_33 
REMARK   14  A    between atoms: C28_38  and  C29_39 
REMARK   15  A    between atoms: C29_39  and  S1_40 
ROOT
HETATM    1  C16 UNL     1      17.919  29.668  12.687  1.00  0.00     0.147 C 
ENDROOT
BRANCH   1   2
HETATM    2  C15 UNL     1      18.496  30.913  13.196  1.00  0.00     0.001 C 
HETATM    3  C14 UNL     1      18.906  30.998  14.439  1.00  0.00    -0.022 C 
BRANCH   3   4
HETATM    4  C13 UNL     1      19.496  32.255  14.993  1.00  0.00     0.023 C 
HETATM    5  C3  UNL     1      20.781  32.028  15.687  1.00  0.00     0.022 C 
HETATM    6  C4  UNL     1      21.364  33.307  16.210  1.00  0.00     0.123 C 
HETATM    7  C5  UNL     1      20.410  34.466  15.997  1.00  0.00     0.037 C 
HETATM    8  C6  UNL     1      19.090  34.017  16.645  1.00  0.00    -0.001 C 
HETATM    9  C7  UNL     1      18.251  35.178  17.052  1.00  0.00     0.037 C 
HETATM   10  C11 UNL     1      18.459  32.942  15.871  1.00  0.00    -0.033 C 
HETATM   11  C8  UNL     1      16.867  35.201  16.527  1.00  0.00     0.118 C 
HETATM   12  C9  UNL     1      16.878  34.765  15.103  1.00  0.00     0.032 C 
HETATM   13  C10 UNL     1      17.374  33.383  14.920  1.00  0.00     0.012 C 
HETATM   14  C12 UNL     1      17.924  31.879  16.839  1.00  0.00     0.016 C 
BRANCH   5  15
HETATM   15  C2  UNL     1      21.798  31.299  14.811  1.00  0.00     0.003 C 
HETATM   16  C1  UNL     1      23.022  32.146  14.583  1.00  0.00     0.005 C 
ENDBRANCH   5  15
BRANCH   6  17
HETATM   17  O1  UNL     1      21.618  33.156  17.591  1.00  0.00    -0.395 OA
ATOM     18  H1  UNL     1      22.520  33.402  17.762  1.00  0.00     0.210 HD
ENDBRANCH   6  17
BRANCH  11  19
HETATM   19  O2  UNL     1      15.943  34.517  17.306  1.00  0.00    -0.396 OA
ATOM     20  H2  UNL     1      15.291  35.069  17.721  1.00  0.00     0.210 HD
ENDBRANCH  11  19
ENDBRANCH   3   4
ENDBRANCH   1   2
BRANCH   1  21
HETATM   21  O3  UNL     1      17.682  29.810  11.298  1.00  0.00    -0.391 OA
ATOM     22  H3  UNL     1      16.842  30.236  11.172  1.00  0.00     0.210 HD
ENDBRANCH   1  21
BRANCH   1  23
HETATM   23  C17 UNL     1      18.754  28.422  12.874  1.00  0.00     0.048 C 
HETATM   24  C18 UNL     1      17.858  27.284  12.444  1.00  0.00     0.013 C 
HETATM   25  C19 UNL     1      18.522  26.150  11.764  1.00  0.00     0.043 C 
HETATM   26  C20 UNL     1      19.731  26.491  10.974  1.00  0.00     0.221 C 
HETATM   27  O6  UNL     1      20.071  27.803  10.931  1.00  0.00    -0.369 OA
HETATM   28  C28 UNL     1      20.053  28.461  12.156  1.00  0.00     0.138 C 
BRANCH  26  29
HETATM   29  C21 UNL     1      19.541  26.033   9.550  1.00  0.00     0.288 C 
HETATM   30  O4  UNL     1      20.444  25.419   8.927  1.00  0.00    -0.262 OA
BRANCH  29  31
HETATM   31  O5  UNL     1      18.354  26.278   8.882  1.00  0.00    -0.319 OA
BRANCH  31  32
HETATM   32  C22 UNL     1      18.202  27.568   8.281  1.00  0.00     0.180 C 
BRANCH  32  33
HETATM   33  C23 UNL     1      18.447  27.538   6.820  1.00  0.00     0.055 C 
BRANCH  33  34
HETATM   34  C24 UNL     1      17.795  26.416   6.122  1.00  0.00     0.238 C 
BRANCH  34  35
HETATM   35  N1  UNL     1      18.664  25.488   5.487  1.00  0.00    -0.079 N 
HETATM   36  C25 UNL     1      20.013  26.007   5.411  1.00  0.00     0.271 C 
HETATM   37  C26 UNL     1      18.136  25.373   4.089  1.00  0.00     0.271 C 
HETATM   38  C27 UNL     1      18.579  24.159   6.037  1.00  0.00     0.271 C 
ENDBRANCH  34  35
ENDBRANCH  33  34
ENDBRANCH  32  33
ENDBRANCH  31  32
ENDBRANCH  29  31
ENDBRANCH  26  29
BRANCH  28  39
HETATM   39  C29 UNL     1      21.281  28.215  12.971  1.00  0.00     0.105 C 
BRANCH  39  40
HETATM   40  S1  UNL     1      22.854  28.352  12.171  1.00  0.00    -0.171 SA
HETATM   41  C30 UNL     1      23.518  26.842  11.483  1.00  0.00     0.089 C 
ENDBRANCH  39  40
ENDBRANCH  28  39
ENDBRANCH   1  23
TORSDOF 15
ENDMDL
MODEL 4
REMARK VINA RESULT: -7.839706861      2.740      3.752
REMARK  15 active torsions:
REMARK  status: ('A' for Active; 'I' for Inactive)
REMARK    1  A    between atoms: C2_2  and  C3_3 
REMARK    2  A    between atoms: C4_4  and  O1_5 
REMARK    3  A    between atoms: C8_10  and  O2_11 
REMARK    4  A    between atoms: C13_17  and  C14_18 
REMARK    5  A    between atoms: C15_19  and  C16_20 
REMARK    6  A    between atoms: C16_20  and  O3_21 
REMARK    7  A    between atoms: C16_20  and  C17_23 
REMARK    8  A    between atoms: C20_26  and  C21_27 
REMARK    9  A    between atoms: C21_27  and  O5_29 
REMARK   10  A    between atoms: O5_29  and  C22_30 
REMARK   11  A    between atoms: C22_30  and  C23_31 
REMARK   12  A    between atoms: C23_31  and  C24_32 
REMARK   13  A    between atoms: C24_32  and  N1_33 
REMARK   14  A    between atoms: C28_38  and  C29_39 
REMARK   15  A    between atoms: C29_39  and  S1_40 
ROOT
HETATM    1  C16 UNL     1      20.741  28.801  14.176  1.00  0.00     0.147 C 
ENDROOT
BRANCH   1   2
HETATM    2  C15 UNL     1      20.901  30.075  14.878  1.00  0.00     0.001 C 
HETATM    3  C14 UNL     1      20.292  31.154  14.448  1.00  0.00    -0.022 C 
BRANCH   3   4
HETATM    4  C13 UNL     1      20.436  32.472  15.139  1.00  0.00     0.023 C 
HETATM    5  C3  UNL     1      21.601  32.520  16.047  1.00  0.00     0.022 C 
HETATM    6  C4  UNL     1      21.737  33.860  16.706  1.00  0.00     0.123 C 
HETATM    7  C5  UNL     1      20.566  34.758  16.359  1.00  0.00     0.037 C 
HETATM    8  C6  UNL     1      19.317  33.947  16.742  1.00  0.00    -0.001 C 
HETATM    9  C7  UNL     1      18.151  34.829  17.024  1.00  0.00     0.037 C 
HETATM   10  C11 UNL     1      19.124  32.811  15.834  1.00  0.00    -0.033 C 
HETATM   11  C8  UNL     1      16.917  34.547  16.257  1.00  0.00     0.118 C 
HETATM   12  C9  UNL     1      17.279  34.237  14.846  1.00  0.00     0.032 C 
HETATM   13  C10 UNL     1      18.138  33.040  14.715  1.00  0.00     0.012 C 
HETATM   14  C12 UNL     1      18.727  31.579  16.655  1.00  0.00     0.016 C 
BRANCH   5  15
HETATM   15  C2  UNL     1      22.904  32.134  15.349  1.00  0.00     0.003 C 
HETATM   16  C1  UNL     1      23.839  33.311  15.262  1.00  0.00     0.005 C 
ENDBRANCH   5  15
BRANCH   6  17
HETATM   17  O1  UNL     1      21.786  33.673  18.105  1.00  0.00    -0.395 OA
ATOM     18  H1  UNL     1      20.957  33.949  18.478  1.00  0.00     0.210 HD
ENDBRANCH   6  17
BRANCH  11  19
HETATM   19  O2  UNL     1      16.083  33.598  16.835  1.00  0.00    -0.396 OA
ATOM     20  H2  UNL     1      15.646  33.886  17.627  1.00  0.00     0.210 HD
ENDBRANCH  11  19
ENDBRANCH   3   4
ENDBRANCH   1   2
BRANCH   1  21
HETATM   21  O3  UNL     1      19.424  28.325  14.387  1.00  0.00    -0.391 OA
ATOM     22  H3  UNL     1      19.244  27.633  13.761  1.00  0.00     0.210 HD
ENDBRANCH   1  21
BRANCH   1  23
HETATM   23  C17 UNL     1      20.972  28.831  12.682  1.00  0.00     0.048 C 
HETATM   24  C18 UNL     1      22.452  29.084  12.520  1.00  0.00     0.013 C 
HETATM   25  C19 UNL     1      23.108  28.413  11.376  1.00  0.00     0.043 C 
HETATM   26  C20 UNL     1      22.521  27.114  10.967  1.00  0.00     0.221 C 
HETATM   27  O6  UNL     1      21.477  26.667  11.706  1.00  0.00    -0.369 OA
HETATM   28  C28 UNL     1      20.495  27.612  11.981  1.00  0.00     0.138 C 
BRANCH  26  29
HETATM   29  C21 UNL     1      23.589  26.050  11.012  1.00  0.00     0.288 C 
HETATM   30  O4  UNL     1      24.507  26.071  11.870  1.00  0.00    -0.262 OA
BRANCH  29  31
HETATM   31  O5  UNL     1      23.586  25.008  10.100  1.00  0.00    -0.319 OA
BRANCH  31  32
HETATM   32  C22 UNL     1      22.835  25.200   8.897  1.00  0.00     0.180 C 
BRANCH  32  33
HETATM   33  C23 UNL     1      23.709  25.411   7.719  1.00  0.00     0.055 C 
BRANCH  33  34
HETATM   34  C24 UNL     1      23.070  25.094   6.430  1.00  0.00     0.238 C 
BRANCH  34  35
HETATM   35  N1  UNL     1      23.838  24.307   5.530  1.00  0.00    -0.079 N 
HETATM   36  C25 UNL     1      25.212  24.204   5.973  1.00  0.00     0.271 C 
HETATM   37  C26 UNL     1      23.824  25.079   4.246  1.00  0.00     0.271 C 
HETATM   38  C27 UNL     1      23.228  23.039   5.217  1.00  0.00     0.271 C 
ENDBRANCH  34  35
ENDBRANCH  33  34
ENDBRANCH  32  33
ENDBRANCH  31  32
ENDBRANCH  29  31
ENDBRANCH  26  29
BRANCH  28  39
HETATM   39  C29 UNL     1      19.546  27.817  10.845  1.00  0.00     0.105 C 
BRANCH  39  40
HETATM   40  S1  UNL     1      17.830  28.035  11.222  1.00  0.00    -0.171 SA
HETATM   41  C30 UNL     1      17.370  29.627  11.891  1.00  0.00     0.089 C 
ENDBRANCH  39  40
ENDBRANCH  28  39
ENDBRANCH   1  23
TORSDOF 15
ENDMDL
MODEL 5
REMARK VINA RESULT: -7.797101426      3.326      9.764
REMARK  15 active torsions:
REMARK  status: ('A' for Active; 'I' for Inactive)
REMARK    1  A    between atoms: C2_2  and  C3_3 
REMARK    2  A    between atoms: C4_4  and  O1_5 
REMARK    3  A    between atoms: C8_10  and  O2_11 
REMARK    4  A    between atoms: C13_17  and  C14_18 
REMARK    5  A    between atoms: C15_19  and  C16_20 
REMARK    6  A    between atoms: C16_20  and  O3_21 
REMARK    7  A    between atoms: C16_20  and  C17_23 
REMARK    8  A    between atoms: C20_26  and  C21_27 
REMARK    9  A    between atoms: C21_27  and  O5_29 
REMARK   10  A    between atoms: O5_29  and  C22_30 
REMARK   11  A    between atoms: C22_30  and  C23_31 
REMARK   12  A    between atoms: C23_31  and  C24_32 
REMARK   13  A    between atoms: C24_32  and  N1_33 
REMARK   14  A    between atoms: C28_38  and  C29_39 
REMARK   15  A    between atoms: C29_39  and  S1_40 
ROOT
HETATM    1  C16 UNL     1      18.514  30.635  16.175  1.00  0.00     0.147 C 
ENDROOT
BRANCH   1   2
HETATM    2  C15 UNL     1      19.398  29.793  15.369  1.00  0.00     0.001 C 
HETATM    3  C14 UNL     1      19.180  29.634  14.086  1.00  0.00    -0.022 C 
BRANCH   3   4
HETATM    4  C13 UNL     1      20.061  28.777  13.233  1.00  0.00     0.023 C 
HETATM    5  C3  UNL     1      21.308  29.459  12.830  1.00  0.00     0.022 C 
HETATM    6  C4  UNL     1      22.184  28.571  11.999  1.00  0.00     0.123 C 
HETATM    7  C5  UNL     1      21.490  27.259  11.691  1.00  0.00     0.037 C 
HETATM    8  C6  UNL     1      20.148  27.659  11.056  1.00  0.00    -0.001 C 
HETATM    9  C7  UNL     1      19.606  26.581  10.183  1.00  0.00     0.037 C 
HETATM   10  C11 UNL     1      19.253  28.264  12.049  1.00  0.00    -0.033 C 
HETATM   11  C8  UNL     1      18.230  26.128  10.483  1.00  0.00     0.118 C 
HETATM   12  C9  UNL     1      18.056  26.034  11.959  1.00  0.00     0.032 C 
HETATM   13  C10 UNL     1      18.231  27.331  12.649  1.00  0.00     0.012 C 
HETATM   14  C12 UNL     1      18.565  29.482  11.422  1.00  0.00     0.016 C 
BRANCH   5  15
HETATM   15  C2  UNL     1      22.087  30.009  14.024  1.00  0.00     0.003 C 
HETATM   16  C1  UNL     1      22.247  31.503  13.924  1.00  0.00     0.005 C 
ENDBRANCH   5  15
BRANCH   6  17
HETATM   17  O1  UNL     1      22.487  29.236  10.791  1.00  0.00    -0.395 OA
ATOM     18  H1  UNL     1      23.174  28.757  10.343  1.00  0.00     0.210 HD
ENDBRANCH   6  17
BRANCH  11  19
HETATM   19  O2  UNL     1      17.231  26.862   9.855  1.00  0.00    -0.396 OA
ATOM     20  H2  UNL     1      16.393  26.851  10.303  1.00  0.00     0.210 HD
ENDBRANCH  11  19
ENDBRANCH   3   4
ENDBRANCH   1   2
BRANCH   1  21
HETATM   21  O3  UNL     1      19.043  30.730  17.486  1.00  0.00    -0.391 OA
ATOM     22  H3  UNL     1      19.810  31.291  17.467  1.00  0.00     0.210 HD
ENDBRANCH   1  21
BRANCH   1  23
HETATM   23  C17 UNL     1      18.301  32.047  15.676  1.00  0.00     0.048 C 
HETATM   24  C18 UNL     1      16.805  32.252  15.711  1.00  0.00     0.013 C 
HETATM   25  C19 UNL     1      16.340  33.611  16.066  1.00  0.00     0.043 C 
HETATM   26  C20 UNL     1      17.223  34.377  16.979  1.00  0.00     0.221 C 
HETATM   27  O6  UNL     1      18.335  33.737  17.417  1.00  0.00    -0.369 OA
HETATM   28  C28 UNL     1      19.061  33.069  16.437  1.00  0.00     0.138 C 
BRANCH  26  29
HETATM   29  C21 UNL     1      16.438  34.794  18.197  1.00  0.00     0.288 C 
HETATM   30  O4  UNL     1      15.401  34.181  18.556  1.00  0.00    -0.262 OA
BRANCH  29  31
HETATM   31  O5  UNL     1      16.843  35.873  18.962  1.00  0.00    -0.319 OA
BRANCH  31  32
HETATM   32  C22 UNL     1      15.967  37.004  19.005  1.00  0.00     0.180 C 
BRANCH  32  33
HETATM   33  C23 UNL     1      16.694  38.283  18.831  1.00  0.00     0.055 C 
BRANCH  33  34
HETATM   34  C24 UNL     1      17.544  38.335  17.629  1.00  0.00     0.238 C 
BRANCH  34  35
HETATM   35  N1  UNL     1      18.902  38.698  17.840  1.00  0.00    -0.079 N 
HETATM   36  C25 UNL     1      19.752  37.527  17.881  1.00  0.00     0.271 C 
HETATM   37  C26 UNL     1      18.918  39.325  19.201  1.00  0.00     0.271 C 
HETATM   38  C27 UNL     1      19.365  39.725  16.942  1.00  0.00     0.271 C 
ENDBRANCH  34  35
ENDBRANCH  33  34
ENDBRANCH  32  33
ENDBRANCH  31  32
ENDBRANCH  29  31
ENDBRANCH  26  29
BRANCH  28  39
HETATM   39  C29 UNL     1      19.949  33.975  15.647  1.00  0.00     0.105 C 
BRANCH  39  40
HETATM   40  S1  UNL     1      21.518  34.415  16.338  1.00  0.00    -0.171 SA
HETATM   41  C30 UNL     1      22.327  33.153  17.313  1.00  0.00     0.089 C 
ENDBRANCH  39  40
ENDBRANCH  28  39
ENDBRANCH   1  23
TORSDOF 15
ENDMDL
