MODEL 1
REMARK VINA RESULT: -6.200723973      0.000      0.000
REMARK  13 active torsions:
REMARK  status: ('A' for Active; 'I' for Inactive)
REMARK    1  A    between atoms: C2_2  and  C3_3 
REMARK    2  A    between atoms: C3_3  and  N1_4 
REMARK    3  A    between atoms: C5_9  and  C6_10 
REMARK    4  A    between atoms: C5_9  and  C7_12 
REMARK    5  A    between atoms: C7_12  and  C8_13 
REMARK    6  A    between atoms: C8_13  and  C9_14 
REMARK    7  A    between atoms: C9_14  and  C10_15 
REMARK    8  A    between atoms: C14_20  and  O2_21 
REMARK    9  A    between atoms: C15_23  and  N3_24 
REMARK       I    between atoms: N4_28  and  C16_29 
REMARK   10  A    between atoms: C16_29  and  C17_31 
REMARK   11  A    between atoms: C17_31  and  C18_32 
REMARK   12  A    between atoms: C18_32  and  O4_33 
REMARK   13  A    between atoms: O4_33  and  C19_34 
ROOT
HETATM    1  C8  UNL     1      32.251  18.642  24.293  1.00  0.00    -0.023 C 
HETATM    2  C11 UNL     1      32.075  18.799  22.786  1.00  0.00     0.025 C 
HETATM    3  C12 UNL     1      32.602  17.739  21.931  1.00  0.00    -0.021 C 
HETATM    4  C13 UNL     1      32.083  16.425  21.630  1.00  0.00     0.011 C 
HETATM    5  C14 UNL     1      31.616  15.428  22.612  1.00  0.00     0.127 C 
HETATM    6  C15 UNL     1      30.389  14.623  22.262  1.00  0.00     0.325 C 
HETATM    7  N4  UNL     1      29.548  14.593  23.440  1.00  0.00    -0.315 N 
HETATM    8  C16 UNL     1      28.352  13.781  23.556  1.00  0.00     0.224 C 
HETATM    9  O3  UNL     1      27.748  13.848  24.639  1.00  0.00    -0.273 OA
HETATM   10  C21 UNL     1      30.072  15.507  24.479  1.00  0.00     0.106 A 
HETATM   11  C22 UNL     1      31.223  15.996  23.936  1.00  0.00     0.062 A 
HETATM   12  C23 UNL     1      30.218  16.941  24.097  1.00  0.00    -0.009 A 
HETATM   13  C24 UNL     1      28.717  17.139  24.017  1.00  0.00     0.018 C 
HETATM   14  C25 UNL     1      30.862  18.182  24.206  1.00  0.00     0.014 C 
HETATM   15  C26 UNL     1      30.582  18.970  22.908  1.00  0.00    -0.035 C 
HETATM   16  C27 UNL     1      29.997  18.451  21.678  1.00  0.00     0.016 C 
HETATM   17  C28 UNL     1      29.992  20.343  23.112  1.00  0.00     0.016 C 
ENDROOT
BRANCH   1  18
HETATM   18  C7  UNL     1      32.418  19.932  25.063  1.00  0.00     0.066 C 
BRANCH  18  19
HETATM   19  C5  UNL     1      31.763  20.565  26.096  1.00  0.00     0.127 C 
HETATM   20  N1  UNL     1      30.468  20.601  26.660  1.00  0.00    -0.303 N 
HETATM   21  C4  UNL     1      31.030  21.216  27.888  1.00  0.00     0.322 C 
HETATM   22  O1  UNL     1      30.669  21.945  28.812  1.00  0.00    -0.247 OA
HETATM   23  N2  UNL     1      32.206  20.560  27.492  1.00  0.00    -0.315 N 
ATOM     24  H2  UNL     1      33.034  20.219  27.980  1.00  0.00     0.166 HD
BRANCH  20  25
HETATM   25  C3  UNL     1      29.066  20.376  26.486  1.00  0.00     0.157 C 
BRANCH  25  26
HETATM   26  C2  UNL     1      28.448  19.309  27.270  1.00  0.00    -0.017 C 
HETATM   27  C1  UNL     1      28.835  18.057  27.354  1.00  0.00     0.008 C 
ENDBRANCH  25  26
ENDBRANCH  20  25
BRANCH  19  28
HETATM   28  C6  UNL     1      31.941  22.126  25.761  1.00  0.00     0.168 C 
HETATM   29 CL1  UNL     1      32.965  22.240  24.318  1.00  0.00    -0.126 Cl
ENDBRANCH  19  28
ENDBRANCH  18  19
ENDBRANCH   1  18
BRANCH   1  30
HETATM   30  C9  UNL     1      33.484  17.920  24.542  1.00  0.00     0.021 C 
BRANCH  30  31
HETATM   31  C10 UNL     1      34.656  18.705  25.155  1.00  0.00     0.086 C 
HETATM   32 BR1  UNL     1      35.217  17.753  26.783  1.00  0.00    -0.096 Br
ENDBRANCH  30  31
ENDBRANCH   1  30
BRANCH   5  33
HETATM   33  O2  UNL     1      32.599  14.396  22.787  1.00  0.00    -0.381 OA
ATOM     34  H2  UNL     1      33.087  14.534  23.591  1.00  0.00     0.211 HD
ENDBRANCH   5  33
BRANCH   6  35
HETATM   35  N3  UNL     1      30.713  13.291  21.778  1.00  0.00    -0.055 N 
ATOM     36  H33 UNL     1      30.945  13.309  20.784  1.00  0.00     0.276 HD
ATOM     37  H32 UNL     1      31.608  12.973  22.150  1.00  0.00     0.276 HD
ATOM     38  H31 UNL     1      29.975  12.613  21.969  1.00  0.00     0.276 HD
ENDBRANCH   6  35
BRANCH   8  39
HETATM   39  C17 UNL     1      27.883  12.936  22.482  1.00  0.00     0.129 C 
BRANCH  39  40
HETATM   40  C18 UNL     1      26.719  13.475  21.714  1.00  0.00     0.176 C 
BRANCH  40  41
HETATM   41  O4  UNL     1      26.817  13.847  20.472  1.00  0.00    -0.391 OA
BRANCH  41  42
HETATM   42  C19 UNL     1      27.356  13.391  19.383  1.00  0.00     0.163 C 
HETATM   43  C20 UNL     1      26.680  12.205  18.688  1.00  0.00     0.033 C 
ENDBRANCH  41  42
ENDBRANCH  40  41
ENDBRANCH  39  40
ENDBRANCH   8  39
TORSDOF 13
ENDMDL
MODEL 2
REMARK VINA RESULT: -5.903790330      5.307      8.361
REMARK  13 active torsions:
REMARK  status: ('A' for Active; 'I' for Inactive)
REMARK    1  A    between atoms: C2_2  and  C3_3 
REMARK    2  A    between atoms: C3_3  and  N1_4 
REMARK    3  A    between atoms: C5_9  and  C6_10 
REMARK    4  A    between atoms: C5_9  and  C7_12 
REMARK    5  A    between atoms: C7_12  and  C8_13 
REMARK    6  A    between atoms: C8_13  and  C9_14 
REMARK    7  A    between atoms: C9_14  and  C10_15 
REMARK    8  A    between atoms: C14_20  and  O2_21 
REMARK    9  A    between atoms: C15_23  and  N3_24 
REMARK       I    between atoms: N4_28  and  C16_29 
REMARK   10  A    between atoms: C16_29  and  C17_31 
REMARK   11  A    between atoms: C17_31  and  C18_32 
REMARK   12  A    between atoms: C18_32  and  O4_33 
REMARK   13  A    between atoms: O4_33  and  C19_34 
ROOT
HETATM    1  C8  UNL     1      27.739  12.684  19.523  1.00  0.00    -0.023 C 
HETATM    2  C11 UNL     1      26.647  12.508  18.474  1.00  0.00     0.025 C 
HETATM    3  C12 UNL     1      25.967  11.216  18.419  1.00  0.00    -0.021 C 
HETATM    4  C13 UNL     1      24.937  10.656  19.263  1.00  0.00     0.011 C 
HETATM    5  C14 UNL     1      24.951  10.608  20.737  1.00  0.00     0.127 C 
HETATM    6  C15 UNL     1      23.652  10.870  21.457  1.00  0.00     0.325 C 
HETATM    7  N4  UNL     1      23.946  11.767  22.555  1.00  0.00    -0.315 N 
HETATM    8  C16 UNL     1      22.987  12.128  23.582  1.00  0.00     0.224 C 
HETATM    9  O3  UNL     1      23.397  12.892  24.470  1.00  0.00    -0.273 OA
HETATM   10  C21 UNL     1      25.338  12.262  22.466  1.00  0.00     0.106 A 
HETATM   11  C22 UNL     1      25.849  11.611  21.383  1.00  0.00     0.062 A 
HETATM   12  C23 UNL     1      25.713  12.983  21.216  1.00  0.00    -0.009 A 
HETATM   13  C24 UNL     1      24.820  14.162  21.551  1.00  0.00     0.018 C 
HETATM   14  C25 UNL     1      26.657  13.355  20.248  1.00  0.00     0.014 C 
HETATM   15  C26 UNL     1      25.889  13.717  18.959  1.00  0.00    -0.035 C 
HETATM   16  C27 UNL     1      24.479  13.469  18.681  1.00  0.00     0.016 C 
HETATM   17  C28 UNL     1      26.200  15.081  18.395  1.00  0.00     0.016 C 
ENDROOT
BRANCH   1  18
HETATM   18  C7  UNL     1      28.872  13.605  19.130  1.00  0.00     0.066 C 
BRANCH  18  19
HETATM   19  C5  UNL     1      29.655  14.544  19.764  1.00  0.00     0.127 C 
HETATM   20  N1  UNL     1      29.884  15.016  21.076  1.00  0.00    -0.303 N 
HETATM   21  C4  UNL     1      31.152  15.639  20.620  1.00  0.00     0.322 C 
HETATM   22  O1  UNL     1      31.893  16.572  20.929  1.00  0.00    -0.247 OA
HETATM   23  N2  UNL     1      31.112  14.637  19.639  1.00  0.00    -0.315 N 
ATOM     24  H2  UNL     1      31.813  14.165  19.069  1.00  0.00     0.166 HD
BRANCH  20  25
HETATM   25  C3  UNL     1      29.398  15.153  22.414  1.00  0.00     0.157 C 
BRANCH  25  26
HETATM   26  C2  UNL     1      28.930  13.947  23.093  1.00  0.00    -0.017 C 
HETATM   27  C1  UNL     1      28.046  13.871  24.061  1.00  0.00     0.008 C 
ENDBRANCH  25  26
ENDBRANCH  20  25
BRANCH  19  28
HETATM   28  C6  UNL     1      29.236  15.927  19.063  1.00  0.00     0.168 C 
HETATM   29 CL1  UNL     1      29.670  15.801  17.348  1.00  0.00    -0.126 Cl
ENDBRANCH  19  28
ENDBRANCH  18  19
ENDBRANCH   1  18
BRANCH   1  30
HETATM   30  C9  UNL     1      28.385  11.403  19.739  1.00  0.00     0.021 C 
BRANCH  30  31
HETATM   31  C10 UNL     1      29.637  11.381  20.634  1.00  0.00     0.086 C 
HETATM   32 BR1  UNL     1      29.308  10.084  22.077  1.00  0.00    -0.096 Br
ENDBRANCH  30  31
ENDBRANCH   1  30
BRANCH   5  33
HETATM   33  O2  UNL     1      25.274   9.286  21.194  1.00  0.00    -0.381 OA
ATOM     34  H2  UNL     1      25.297   9.258  22.144  1.00  0.00     0.211 HD
ENDBRANCH   5  33
BRANCH   6  35
HETATM   35  N3  UNL     1      23.001   9.648  21.900  1.00  0.00    -0.055 N 
ATOM     36  H33 UNL     1      23.552   8.827  21.647  1.00  0.00     0.276 HD
ATOM     37  H32 UNL     1      23.034   9.562  22.915  1.00  0.00     0.276 HD
ATOM     38  H31 UNL     1      22.044   9.566  21.556  1.00  0.00     0.276 HD
ENDBRANCH   6  35
BRANCH   8  39
HETATM   39  C17 UNL     1      21.631  11.628  23.584  1.00  0.00     0.129 C 
BRANCH  39  40
HETATM   40  C18 UNL     1      20.855  11.910  24.830  1.00  0.00     0.176 C 
BRANCH  40  41
HETATM   41  O4  UNL     1      19.686  12.477  24.809  1.00  0.00    -0.391 OA
BRANCH  41  42
HETATM   42  C19 UNL     1      18.448  12.110  24.939  1.00  0.00     0.163 C 
HETATM   43  C20 UNL     1      18.105  10.636  24.697  1.00  0.00     0.033 C 
ENDBRANCH  41  42
ENDBRANCH  40  41
ENDBRANCH  39  40
ENDBRANCH   8  39
TORSDOF 13
ENDMDL
MODEL 3
REMARK VINA RESULT: -5.857850161      2.968      8.111
REMARK  13 active torsions:
REMARK  status: ('A' for Active; 'I' for Inactive)
REMARK    1  A    between atoms: C2_2  and  C3_3 
REMARK    2  A    between atoms: C3_3  and  N1_4 
REMARK    3  A    between atoms: C5_9  and  C6_10 
REMARK    4  A    between atoms: C5_9  and  C7_12 
REMARK    5  A    between atoms: C7_12  and  C8_13 
REMARK    6  A    between atoms: C8_13  and  C9_14 
REMARK    7  A    between atoms: C9_14  and  C10_15 
REMARK    8  A    between atoms: C14_20  and  O2_21 
REMARK    9  A    between atoms: C15_23  and  N3_24 
REMARK       I    between atoms: N4_28  and  C16_29 
REMARK   10  A    between atoms: C16_29  and  C17_31 
REMARK   11  A    between atoms: C17_31  and  C18_32 
REMARK   12  A    between atoms: C18_32  and  O4_33 
REMARK   13  A    between atoms: O4_33  and  C19_34 
ROOT
HETATM    1  C8  UNL     1      30.442  15.606  22.496  1.00  0.00    -0.023 C 
HETATM    2  C11 UNL     1      30.911  15.376  23.929  1.00  0.00     0.025 C 
HETATM    3  C12 UNL     1      32.311  15.655  24.233  1.00  0.00    -0.021 C 
HETATM    4  C13 UNL     1      32.999  16.906  24.445  1.00  0.00     0.011 C 
HETATM    5  C14 UNL     1      32.932  18.095  23.574  1.00  0.00     0.127 C 
HETATM    6  C15 UNL     1      32.880  19.448  24.239  1.00  0.00     0.325 C 
HETATM    7  N4  UNL     1      31.861  20.219  23.558  1.00  0.00    -0.315 N 
HETATM    8  C16 UNL     1      31.622  21.630  23.799  1.00  0.00     0.224 C 
HETATM    9  O3  UNL     1      30.726  22.156  23.119  1.00  0.00    -0.273 OA
HETATM   10  C21 UNL     1      31.108  19.368  22.610  1.00  0.00     0.106 A 
HETATM   11  C22 UNL     1      31.725  18.155  22.697  1.00  0.00     0.062 A 
HETATM   12  C23 UNL     1      30.424  18.174  23.183  1.00  0.00    -0.009 A 
HETATM   13  C24 UNL     1      29.424  19.027  23.938  1.00  0.00     0.018 C 
HETATM   14  C25 UNL     1      29.946  16.859  23.071  1.00  0.00     0.014 C 
HETATM   15  C26 UNL     1      29.843  16.275  24.497  1.00  0.00    -0.035 C 
HETATM   16  C27 UNL     1      30.385  16.853  25.720  1.00  0.00     0.016 C 
HETATM   17  C28 UNL     1      28.491  15.711  24.856  1.00  0.00     0.016 C 
ENDROOT
BRANCH   1  18
HETATM   18  C7  UNL     1      29.346  14.681  22.016  1.00  0.00     0.066 C 
BRANCH  18  19
HETATM   19  C5  UNL     1      29.248  13.351  21.671  1.00  0.00     0.127 C 
HETATM   20  N1  UNL     1      28.689  12.568  20.637  1.00  0.00    -0.303 N 
HETATM   21  C4  UNL     1      29.543  11.427  21.052  1.00  0.00     0.322 C 
HETATM   22  O1  UNL     1      29.540  10.197  21.005  1.00  0.00    -0.247 OA
HETATM   23  N2  UNL     1      30.385  12.437  21.542  1.00  0.00    -0.315 N 
ATOM     24  H2  UNL     1      31.385  12.506  21.732  1.00  0.00     0.166 HD
BRANCH  20  25
HETATM   25  C3  UNL     1      27.727  12.464  19.583  1.00  0.00     0.157 C 
BRANCH  25  26
HETATM   26  C2  UNL     1      26.584  11.579  19.794  1.00  0.00    -0.017 C 
HETATM   27  C1  UNL     1      25.989  10.821  18.901  1.00  0.00     0.008 C 
ENDBRANCH  25  26
ENDBRANCH  20  25
BRANCH  19  28
HETATM   28  C6  UNL     1      28.506  12.684  22.930  1.00  0.00     0.168 C 
HETATM   29 CL1  UNL     1      26.852  13.323  22.965  1.00  0.00    -0.126 Cl
ENDBRANCH  19  28
ENDBRANCH  18  19
ENDBRANCH   1  18
BRANCH   1  30
HETATM   30  C9  UNL     1      31.548  15.338  21.598  1.00  0.00     0.021 C 
BRANCH  30  31
HETATM   31  C10 UNL     1      31.428  15.847  20.151  1.00  0.00     0.086 C 
HETATM   32 BR1  UNL     1      33.208  16.479  19.597  1.00  0.00    -0.096 Br
ENDBRANCH  30  31
ENDBRANCH   1  30
BRANCH   5  33
HETATM   33  O2  UNL     1      34.125  18.208  22.783  1.00  0.00    -0.381 OA
ATOM     34  H2  UNL     1      34.374  19.119  22.684  1.00  0.00     0.211 HD
ENDBRANCH   5  33
BRANCH   6  35
HETATM   35  N3  UNL     1      34.170  20.118  24.248  1.00  0.00    -0.055 N 
ATOM     36  H33 UNL     1      34.859  19.577  24.771  1.00  0.00     0.276 HD
ATOM     37  H32 UNL     1      34.603  20.089  23.326  1.00  0.00     0.276 HD
ATOM     38  H31 UNL     1      34.113  21.074  24.597  1.00  0.00     0.276 HD
ENDBRANCH   6  35
BRANCH   8  39
HETATM   39  C17 UNL     1      32.379  22.389  24.767  1.00  0.00     0.129 C 
BRANCH  39  40
HETATM   40  C18 UNL     1      31.812  22.395  26.150  1.00  0.00     0.176 C 
BRANCH  40  41
HETATM   41  O4  UNL     1      32.112  21.486  27.029  1.00  0.00    -0.391 OA
BRANCH  41  42
HETATM   42  C19 UNL     1      31.500  20.520  27.645  1.00  0.00     0.163 C 
HETATM   43  C20 UNL     1      30.028  20.267  27.305  1.00  0.00     0.033 C 
ENDBRANCH  41  42
ENDBRANCH  40  41
ENDBRANCH  39  40
ENDBRANCH   8  39
TORSDOF 13
ENDMDL
MODEL 4
REMARK VINA RESULT: -5.671597752      5.337      8.363
REMARK  13 active torsions:
REMARK  status: ('A' for Active; 'I' for Inactive)
REMARK    1  A    between atoms: C2_2  and  C3_3 
REMARK    2  A    between atoms: C3_3  and  N1_4 
REMARK    3  A    between atoms: C5_9  and  C6_10 
REMARK    4  A    between atoms: C5_9  and  C7_12 
REMARK    5  A    between atoms: C7_12  and  C8_13 
REMARK    6  A    between atoms: C8_13  and  C9_14 
REMARK    7  A    between atoms: C9_14  and  C10_15 
REMARK    8  A    between atoms: C14_20  and  O2_21 
REMARK    9  A    between atoms: C15_23  and  N3_24 
REMARK       I    between atoms: N4_28  and  C16_29 
REMARK   10  A    between atoms: C16_29  and  C17_31 
REMARK   11  A    between atoms: C17_31  and  C18_32 
REMARK   12  A    between atoms: C18_32  and  O4_33 
REMARK   13  A    between atoms: O4_33  and  C19_34 
ROOT
HETATM    1  C8  UNL     1      27.720  12.666  19.504  1.00  0.00    -0.023 C 
HETATM    2  C11 UNL     1      26.614  12.495  18.468  1.00  0.00     0.025 C 
HETATM    3  C12 UNL     1      25.934  11.204  18.415  1.00  0.00    -0.021 C 
HETATM    4  C13 UNL     1      24.915  10.640  19.268  1.00  0.00     0.011 C 
HETATM    5  C14 UNL     1      24.947  10.584  20.742  1.00  0.00     0.127 C 
HETATM    6  C15 UNL     1      23.657  10.841  21.480  1.00  0.00     0.325 C 
HETATM    7  N4  UNL     1      23.965  11.733  22.578  1.00  0.00    -0.315 N 
HETATM    8  C16 UNL     1      23.018  12.088  23.619  1.00  0.00     0.224 C 
HETATM    9  O3  UNL     1      23.440  12.848  24.506  1.00  0.00    -0.273 OA
HETATM   10  C21 UNL     1      25.356  12.229  22.475  1.00  0.00     0.106 A 
HETATM   11  C22 UNL     1      25.853  11.583  21.382  1.00  0.00     0.062 A 
HETATM   12  C23 UNL     1      25.714  12.956  21.224  1.00  0.00    -0.009 A 
HETATM   13  C24 UNL     1      24.826  14.133  21.576  1.00  0.00     0.018 C 
HETATM   14  C25 UNL     1      26.647  13.333  20.246  1.00  0.00     0.014 C 
HETATM   15  C26 UNL     1      25.862  13.702  18.968  1.00  0.00    -0.035 C 
HETATM   16  C27 UNL     1      24.450  13.455  18.707  1.00  0.00     0.016 C 
HETATM   17  C28 UNL     1      26.166  15.069  18.408  1.00  0.00     0.016 C 
ENDROOT
BRANCH   1  18
HETATM   18  C7  UNL     1      28.847  13.590  19.102  1.00  0.00     0.066 C 
BRANCH  18  19
HETATM   19  C5  UNL     1      29.638  14.527  19.731  1.00  0.00     0.127 C 
HETATM   20  N1  UNL     1      29.880  14.994  21.042  1.00  0.00    -0.303 N 
HETATM   21  C4  UNL     1      31.143  15.618  20.575  1.00  0.00     0.322 C 
HETATM   22  O1  UNL     1      31.888  16.550  20.880  1.00  0.00    -0.247 OA
HETATM   23  N2  UNL     1      31.093  14.618  19.592  1.00  0.00    -0.315 N 
ATOM     24  H2  UNL     1      31.789  14.147  19.015  1.00  0.00     0.166 HD
BRANCH  20  25
HETATM   25  C3  UNL     1      29.406  15.129  22.385  1.00  0.00     0.157 C 
BRANCH  25  26
HETATM   26  C2  UNL     1      28.989  13.915  23.081  1.00  0.00    -0.017 C 
HETATM   27  C1  UNL     1      28.099  13.814  24.042  1.00  0.00     0.008 C 
ENDBRANCH  25  26
ENDBRANCH  20  25
BRANCH  19  28
HETATM   28  C6  UNL     1      29.212  15.912  19.037  1.00  0.00     0.168 C 
HETATM   29 CL1  UNL     1      29.589  15.772  17.310  1.00  0.00    -0.126 Cl
ENDBRANCH  19  28
ENDBRANCH  18  19
ENDBRANCH   1  18
BRANCH   1  30
HETATM   30  C9  UNL     1      28.369  11.385  19.705  1.00  0.00     0.021 C 
BRANCH  30  31
HETATM   31  C10 UNL     1      29.625  11.356  20.594  1.00  0.00     0.086 C 
HETATM   32 BR1  UNL     1      29.288  10.077  22.051  1.00  0.00    -0.096 Br
ENDBRANCH  30  31
ENDBRANCH   1  30
BRANCH   5  33
HETATM   33  O2  UNL     1      25.276   9.259  21.188  1.00  0.00    -0.381 OA
ATOM     34  H2  UNL     1      26.199   9.081  21.050  1.00  0.00     0.211 HD
ENDBRANCH   5  33
BRANCH   6  35
HETATM   35  N3  UNL     1      23.012   9.617  21.924  1.00  0.00    -0.055 N 
ATOM     36  H33 UNL     1      23.553   8.797  21.648  1.00  0.00     0.276 HD
ATOM     37  H32 UNL     1      23.069   9.519  22.937  1.00  0.00     0.276 HD
ATOM     38  H31 UNL     1      22.046   9.543  21.603  1.00  0.00     0.276 HD
ENDBRANCH   6  35
BRANCH   8  39
HETATM   39  C17 UNL     1      21.662  11.588  23.635  1.00  0.00     0.129 C 
BRANCH  39  40
HETATM   40  C18 UNL     1      21.213  11.020  24.943  1.00  0.00     0.176 C 
BRANCH  40  41
HETATM   41  O4  UNL     1      20.755  11.765  25.904  1.00  0.00    -0.391 OA
BRANCH  41  42
HETATM   42  C19 UNL     1      20.856  11.819  27.197  1.00  0.00     0.163 C 
HETATM   43  C20 UNL     1      21.963  12.692  27.797  1.00  0.00     0.033 C 
ENDBRANCH  41  42
ENDBRANCH  40  41
ENDBRANCH  39  40
ENDBRANCH   8  39
TORSDOF 13
ENDMDL
MODEL 5
REMARK VINA RESULT: -5.663968472      3.027      8.106
REMARK  13 active torsions:
REMARK  status: ('A' for Active; 'I' for Inactive)
REMARK    1  A    between atoms: C2_2  and  C3_3 
REMARK    2  A    between atoms: C3_3  and  N1_4 
REMARK    3  A    between atoms: C5_9  and  C6_10 
REMARK    4  A    between atoms: C5_9  and  C7_12 
REMARK    5  A    between atoms: C7_12  and  C8_13 
REMARK    6  A    between atoms: C8_13  and  C9_14 
REMARK    7  A    between atoms: C9_14  and  C10_15 
REMARK    8  A    between atoms: C14_20  and  O2_21 
REMARK    9  A    between atoms: C15_23  and  N3_24 
REMARK       I    between atoms: N4_28  and  C16_29 
REMARK   10  A    between atoms: C16_29  and  C17_31 
REMARK   11  A    between atoms: C17_31  and  C18_32 
REMARK   12  A    between atoms: C18_32  and  O4_33 
REMARK   13  A    between atoms: O4_33  and  C19_34 
ROOT
HETATM    1  C8  UNL     1      29.868  15.953  23.114  1.00  0.00    -0.023 C 
HETATM    2  C11 UNL     1      30.451  15.556  24.466  1.00  0.00     0.025 C 
HETATM    3  C12 UNL     1      31.775  16.069  24.806  1.00  0.00    -0.021 C 
HETATM    4  C13 UNL     1      32.193  17.375  25.259  1.00  0.00     0.011 C 
HETATM    5  C14 UNL     1      31.830  18.666  24.646  1.00  0.00     0.127 C 
HETATM    6  C15 UNL     1      31.528  19.819  25.570  1.00  0.00     0.325 C 
HETATM    7  N4  UNL     1      30.335  20.468  25.068  1.00  0.00    -0.315 N 
HETATM    8  C16 UNL     1      29.816  21.718  25.590  1.00  0.00     0.224 C 
HETATM    9  O3  UNL     1      28.794  22.159  25.039  1.00  0.00    -0.273 OA
HETATM   10  C21 UNL     1      29.729  19.673  23.976  1.00  0.00     0.106 A 
HETATM   11  C22 UNL     1      30.592  18.631  23.811  1.00  0.00     0.062 A 
HETATM   12  C23 UNL     1      29.345  18.271  24.304  1.00  0.00    -0.009 A 
HETATM   13  C24 UNL     1      28.229  18.723  25.225  1.00  0.00     0.018 C 
HETATM   14  C25 UNL     1      29.151  16.932  23.934  1.00  0.00     0.014 C 
HETATM   15  C26 UNL     1      29.249  16.074  25.214  1.00  0.00    -0.035 C 
HETATM   16  C27 UNL     1      29.722  16.506  26.523  1.00  0.00     0.016 C 
HETATM   17  C28 UNL     1      28.068  15.170  25.466  1.00  0.00     0.016 C 
ENDROOT
BRANCH   1  18
HETATM   18  C7  UNL     1      28.969  14.923  22.469  1.00  0.00     0.066 C 
BRANCH  18  19
HETATM   19  C5  UNL     1      29.123  13.660  21.939  1.00  0.00     0.127 C 
HETATM   20  N1  UNL     1      28.844  12.980  20.733  1.00  0.00    -0.303 N 
HETATM   21  C4  UNL     1      29.791  11.909  21.129  1.00  0.00     0.322 C 
HETATM   22  O1  UNL     1      29.980  10.710  20.919  1.00  0.00    -0.247 OA
HETATM   23  N2  UNL     1      30.392  12.930  21.880  1.00  0.00    -0.315 N 
ATOM     24  H2  UNL     1      31.331  13.096  22.240  1.00  0.00     0.166 HD
BRANCH  20  25
HETATM   25  C3  UNL     1      28.072  12.918  19.530  1.00  0.00     0.157 C 
BRANCH  25  26
HETATM   26  C2  UNL     1      26.876  12.079  19.535  1.00  0.00    -0.017 C 
HETATM   27  C1  UNL     1      26.805  10.793  19.283  1.00  0.00     0.008 C 
ENDBRANCH  25  26
ENDBRANCH  20  25
BRANCH  19  28
HETATM   28  C6  UNL     1      28.316  12.718  22.959  1.00  0.00     0.168 C 
HETATM   29 CL1  UNL     1      26.621  13.239  22.927  1.00  0.00    -0.126 Cl
ENDBRANCH  19  28
ENDBRANCH  18  19
ENDBRANCH   1  18
BRANCH   1  30
HETATM   30  C9  UNL     1      30.957  16.112  22.169  1.00  0.00     0.021 C 
BRANCH  30  31
HETATM   31  C10 UNL     1      30.671  16.907  20.882  1.00  0.00     0.086 C 
HETATM   32 BR1  UNL     1      31.045  15.718  19.359  1.00  0.00    -0.096 Br
ENDBRANCH  30  31
ENDBRANCH   1  30
BRANCH   5  33
HETATM   33  O2  UNL     1      32.928  19.188  23.882  1.00  0.00    -0.381 OA
ATOM     34  H2  UNL     1      33.387  19.859  24.373  1.00  0.00     0.211 HD
ENDBRANCH   5  33
BRANCH   6  35
HETATM   35  N3  UNL     1      32.646  20.740  25.701  1.00  0.00    -0.055 N 
ATOM     36  H33 UNL     1      32.379  21.566  26.235  1.00  0.00     0.276 HD
ATOM     37  H32 UNL     1      33.359  20.363  26.326  1.00  0.00     0.276 HD
ATOM     38  H31 UNL     1      33.048  20.999  24.801  1.00  0.00     0.276 HD
ENDBRANCH   6  35
BRANCH   8  39
HETATM   39  C17 UNL     1      30.446  22.421  26.684  1.00  0.00     0.129 C 
BRANCH  39  40
HETATM   40  C18 UNL     1      29.900  22.103  28.039  1.00  0.00     0.176 C 
BRANCH  40  41
HETATM   41  O4  UNL     1      29.004  21.181  28.229  1.00  0.00    -0.391 OA
BRANCH  41  42
HETATM   42  C19 UNL     1      27.798  21.111  28.705  1.00  0.00     0.163 C 
HETATM   43  C20 UNL     1      26.633  21.088  27.711  1.00  0.00     0.033 C 
ENDBRANCH  41  42
ENDBRANCH  40  41
ENDBRANCH  39  40
ENDBRANCH   8  39
TORSDOF 13
ENDMDL
