MODEL 1
REMARK VINA RESULT: -7.362710267      0.000      0.000
REMARK  9 active torsions:
REMARK  status: ('A' for Active; 'I' for Inactive)
REMARK    1  A    between atoms: N1_2  and  C2_5 
REMARK    2  A    between atoms: C2_5  and  C3_6 
REMARK    3  A    between atoms: C3_6  and  O1_7 
REMARK    4  A    between atoms: C3_6  and  C4_9 
REMARK    5  A    between atoms: C8_18  and  N4_19 
REMARK    6  A    between atoms: C9_23  and  O3_24 
REMARK    7  A    between atoms: C11_27  and  O4_29 
REMARK    8  A    between atoms: C14_32  and  C16_35 
REMARK       I    between atoms: N6_37  and  C17_38 
REMARK       I    between atoms: C17_38  and  N7_40 
REMARK       I    between atoms: N7_40  and  C18_42 
REMARK    9  A    between atoms: N9_44  and  N10_46 
ROOT
HETATM    1  C4  UNL     1     164.272  50.769  11.399  1.00  0.00     0.149 C 
HETATM    2  C5  UNL     1     163.342  49.930  12.329  1.00  0.00     0.165 C 
HETATM    3  N2  UNL     1     162.443  50.672  13.130  1.00  0.00    -0.396 N 
ATOM      4  H2  UNL     1     161.867  51.405  12.716  1.00  0.00     0.155 HD
HETATM    5  C6  UNL     1     162.349  50.381  14.537  1.00  0.00     0.204 C 
HETATM    6  C7  UNL     1     162.794  48.981  14.893  1.00  0.00     0.246 C 
HETATM    7  O2  UNL     1     162.102  48.198  15.574  1.00  0.00    -0.271 OA
HETATM    8  N3  UNL     1     164.065  48.711  14.353  1.00  0.00    -0.321 N 
ATOM      9  H3  UNL     1     164.680  47.996  14.741  1.00  0.00     0.165 HD
HETATM   10  C8  UNL     1     164.433  49.498  13.236  1.00  0.00     0.270 C 
HETATM   11  C9  UNL     1     165.032  50.813  13.431  1.00  0.00     0.195 C 
HETATM   12  C10 UNL     1     165.662  50.852  14.657  1.00  0.00     0.108 C 
HETATM   13  C11 UNL     1     164.655  51.470  15.674  1.00  0.00     0.086 C 
HETATM   14  C12 UNL     1     165.131  51.062  17.042  1.00  0.00     0.051 C 
HETATM   15  C13 UNL     1     163.233  51.250  15.410  1.00  0.00     0.009 C 
HETATM   16  C14 UNL     1     162.518  52.052  16.136  1.00  0.00     0.090 C 
HETATM   17  C15 UNL     1     161.044  51.988  15.991  1.00  0.00     0.103 C 
HETATM   18  N5  UNL     1     159.868  51.971  15.899  1.00  0.00    -0.191 NA
HETATM   19  N6  UNL     1     165.557  50.848  12.048  1.00  0.00    -0.288 N 
HETATM   20  C17 UNL     1     166.899  50.940  11.710  1.00  0.00     0.327 C 
HETATM   21  O6  UNL     1     167.785  50.989  12.652  1.00  0.00    -0.247 OA
HETATM   22  N7  UNL     1     167.417  50.989  10.413  1.00  0.00    -0.281 N 
ATOM     23  H7  UNL     1     166.775  50.953   9.621  1.00  0.00     0.173 HD
HETATM   24  C18 UNL     1     168.841  51.090  10.162  1.00  0.00     0.210 C 
HETATM   25  N8  UNL     1     169.748  51.148  11.232  1.00  0.00    -0.062 NA
HETATM   26  N9  UNL     1     169.280  51.131   8.961  1.00  0.00    -0.280 N 
ATOM     27  H9  UNL     1     168.611  51.091   8.192  1.00  0.00     0.189 HD
ENDROOT
BRANCH  16  28
HETATM   28  C16 UNL     1     162.963  53.026  17.139  1.00  0.00     0.281 C 
HETATM   29  O5  UNL     1     162.740  54.265  16.887  1.00  0.00    -0.301 OA
ENDBRANCH  16  28
BRANCH  13  30
HETATM   30  O4  UNL     1     164.924  52.836  15.537  1.00  0.00    -0.385 OA
ATOM     31  H4  UNL     1     164.080  53.167  15.253  1.00  0.00     0.211 HD
ENDBRANCH  13  30
BRANCH  11  32
HETATM   32  O3  UNL     1     164.404  52.048  13.303  1.00  0.00    -0.366 OA
ATOM     33  H3  UNL     1     164.262  52.691  13.989  1.00  0.00     0.212 HD
ENDBRANCH  11  32
BRANCH   1  34
HETATM   34  C3  UNL     1     164.174  50.349  10.001  1.00  0.00     0.169 C 
BRANCH  34  35
HETATM   35  C2  UNL     1     164.595  51.506   9.049  1.00  0.00     0.265 C 
BRANCH  35  36
HETATM   36  N1  UNL     1     165.141  50.829   7.881  1.00  0.00    -0.077 N 
HETATM   37  C1  UNL     1     166.126  51.591   7.182  1.00  0.00     0.267 C 
ATOM     38  H12 UNL     1     164.394  50.542   7.249  1.00  0.00     0.276 HD
ATOM     39  H11 UNL     1     165.510  49.914   8.136  1.00  0.00     0.276 HD
ENDBRANCH  35  36
ENDBRANCH  34  35
BRANCH  34  40
HETATM   40  O1  UNL     1     162.957  49.944   9.519  1.00  0.00    -0.392 OA
ATOM     41  H1  UNL     1     162.327  50.416  10.051  1.00  0.00     0.210 HD
ENDBRANCH  34  40
ENDBRANCH   1  34
BRANCH  10  42
HETATM   42  N4  UNL     1     165.310  48.609  12.480  1.00  0.00    -0.045 N 
ATOM     43  H43 UNL     1     164.812  47.832  12.048  1.00  0.00     0.277 HD
ATOM     44  H42 UNL     1     165.663  49.035  11.623  1.00  0.00     0.277 HD
ATOM     45  H41 UNL     1     166.054  48.304  13.107  1.00  0.00     0.277 HD
ENDBRANCH  10  42
BRANCH  26  46
HETATM   46  N10 UNL     1     170.642  51.227   8.664  1.00  0.00    -0.343 N 
ATOM     47 2H10 UNL     1     171.097  52.129   8.810  1.00  0.00     0.176 HD
ATOM     48 1H10 UNL     1     171.183  50.437   8.312  1.00  0.00     0.176 HD
ENDBRANCH  26  46
TORSDOF 9
ENDMDL
MODEL 2
REMARK VINA RESULT: -7.216797565      2.438      4.686
REMARK  9 active torsions:
REMARK  status: ('A' for Active; 'I' for Inactive)
REMARK    1  A    between atoms: N1_2  and  C2_5 
REMARK    2  A    between atoms: C2_5  and  C3_6 
REMARK    3  A    between atoms: C3_6  and  O1_7 
REMARK    4  A    between atoms: C3_6  and  C4_9 
REMARK    5  A    between atoms: C8_18  and  N4_19 
REMARK    6  A    between atoms: C9_23  and  O3_24 
REMARK    7  A    between atoms: C11_27  and  O4_29 
REMARK    8  A    between atoms: C14_32  and  C16_35 
REMARK       I    between atoms: N6_37  and  C17_38 
REMARK       I    between atoms: C17_38  and  N7_40 
REMARK       I    between atoms: N7_40  and  C18_42 
REMARK    9  A    between atoms: N9_44  and  N10_46 
ROOT
HETATM    1  C4  UNL     1     166.180  48.964  13.904  1.00  0.00     0.149 C 
HETATM    2  C5  UNL     1     165.942  49.448  15.367  1.00  0.00     0.165 C 
HETATM    3  N2  UNL     1     165.113  48.621  16.161  1.00  0.00    -0.396 N 
ATOM      4  H2  UNL     1     165.277  47.615  16.203  1.00  0.00     0.155 HD
HETATM    5  C6  UNL     1     164.035  49.215  16.909  1.00  0.00     0.204 C 
HETATM    6  C7  UNL     1     164.245  50.682  17.203  1.00  0.00     0.246 C 
HETATM    7  O2  UNL     1     164.146  51.170  18.347  1.00  0.00    -0.271 OA
HETATM    8  N3  UNL     1     164.556  51.386  16.025  1.00  0.00    -0.321 N 
ATOM      9  H3  UNL     1     164.398  52.389  15.932  1.00  0.00     0.165 HD
HETATM   10  C8  UNL     1     165.104  50.608  14.977  1.00  0.00     0.270 C 
HETATM   11  C9  UNL     1     164.225  49.891  14.060  1.00  0.00     0.195 C 
HETATM   12  C10 UNL     1     163.003  50.526  14.007  1.00  0.00     0.108 C 
HETATM   13  C11 UNL     1     162.063  49.808  15.023  1.00  0.00     0.086 C 
HETATM   14  C12 UNL     1     160.947  50.772  15.322  1.00  0.00     0.051 C 
HETATM   15  C13 UNL     1     162.701  49.198  16.191  1.00  0.00     0.009 C 
HETATM   16  C14 UNL     1     161.871  48.394  16.778  1.00  0.00     0.090 C 
HETATM   17  C15 UNL     1     162.347  47.665  17.979  1.00  0.00     0.103 C 
HETATM   18  N5  UNL     1     162.691  47.063  18.933  1.00  0.00    -0.191 NA
HETATM   19  N6  UNL     1     165.300  49.730  13.057  1.00  0.00    -0.288 N 
HETATM   20  C17 UNL     1     165.262  50.230  11.764  1.00  0.00     0.327 C 
HETATM   21  O6  UNL     1     164.227  50.904  11.378  1.00  0.00    -0.247 OA
HETATM   22  N7  UNL     1     166.257  50.078  10.796  1.00  0.00    -0.281 N 
ATOM     23  H7  UNL     1     167.103  49.559  11.031  1.00  0.00     0.173 HD
HETATM   24  C18 UNL     1     166.122  50.639   9.466  1.00  0.00     0.210 C 
HETATM   25  N8  UNL     1     164.966  51.352   9.110  1.00  0.00    -0.062 NA
HETATM   26  N9  UNL     1     167.055  50.481   8.604  1.00  0.00    -0.280 N 
ATOM     27  H9  UNL     1     167.888  49.957   8.872  1.00  0.00     0.189 HD
ENDROOT
BRANCH  16  28
HETATM   28  C16 UNL     1     160.471  48.109  16.441  1.00  0.00     0.281 C 
HETATM   29  O5  UNL     1     160.212  46.944  15.969  1.00  0.00    -0.301 OA
ENDBRANCH  16  28
BRANCH  13  30
HETATM   30  O4  UNL     1     161.524  48.789  14.232  1.00  0.00    -0.385 OA
ATOM     31  H4  UNL     1     160.605  48.830  14.472  1.00  0.00     0.211 HD
ENDBRANCH  13  30
BRANCH  11  32
HETATM   32  O3  UNL     1     163.930  48.531  14.073  1.00  0.00    -0.366 OA
ATOM     33  H3  UNL     1     163.169  48.107  13.694  1.00  0.00     0.212 HD
ENDBRANCH  11  32
BRANCH   1  34
HETATM   34  C3  UNL     1     167.605  48.856  13.586  1.00  0.00     0.169 C 
BRANCH  34  35
HETATM   35  C2  UNL     1     168.436  48.591  14.875  1.00  0.00     0.265 C 
BRANCH  35  36
HETATM   36  N1  UNL     1     169.482  49.605  14.842  1.00  0.00    -0.077 N 
HETATM   37  C1  UNL     1     170.573  49.336  15.723  1.00  0.00     0.267 C 
ATOM     38  H12 UNL     1     169.092  50.530  15.026  1.00  0.00     0.276 HD
ATOM     39  H11 UNL     1     169.816  49.746  13.890  1.00  0.00     0.276 HD
ENDBRANCH  35  36
ENDBRANCH  34  35
BRANCH  34  40
HETATM   40  O1  UNL     1     168.230  49.922  12.996  1.00  0.00    -0.392 OA
ATOM     41  H1  UNL     1     167.616  50.214  12.333  1.00  0.00     0.210 HD
ENDBRANCH  34  40
ENDBRANCH   1  34
BRANCH  10  42
HETATM   42  N4  UNL     1     165.962  51.557  14.274  1.00  0.00    -0.045 N 
ATOM     43  H43 UNL     1     165.983  52.475  14.716  1.00  0.00     0.277 HD
ATOM     44  H42 UNL     1     166.954  51.340  14.368  1.00  0.00     0.277 HD
ATOM     45  H41 UNL     1     165.654  51.590  13.302  1.00  0.00     0.277 HD
ENDBRANCH  10  42
BRANCH  26  46
HETATM   46  N10 UNL     1     166.974  51.000   7.309  1.00  0.00    -0.343 N 
ATOM     47 2H10 UNL     1     167.496  51.853   7.106  1.00  0.00     0.176 HD
ATOM     48 1H10 UNL     1     166.419  50.558   6.576  1.00  0.00     0.176 HD
ENDBRANCH  26  46
TORSDOF 9
ENDMDL
MODEL 3
REMARK VINA RESULT: -6.912824333      2.592      4.734
REMARK  9 active torsions:
REMARK  status: ('A' for Active; 'I' for Inactive)
REMARK    1  A    between atoms: N1_2  and  C2_5 
REMARK    2  A    between atoms: C2_5  and  C3_6 
REMARK    3  A    between atoms: C3_6  and  O1_7 
REMARK    4  A    between atoms: C3_6  and  C4_9 
REMARK    5  A    between atoms: C8_18  and  N4_19 
REMARK    6  A    between atoms: C9_23  and  O3_24 
REMARK    7  A    between atoms: C11_27  and  O4_29 
REMARK    8  A    between atoms: C14_32  and  C16_35 
REMARK       I    between atoms: N6_37  and  C17_38 
REMARK       I    between atoms: C17_38  and  N7_40 
REMARK       I    between atoms: N7_40  and  C18_42 
REMARK    9  A    between atoms: N9_44  and  N10_46 
ROOT
HETATM    1  C4  UNL     1     167.166  52.904   8.410  1.00  0.00     0.149 C 
HETATM    2  C5  UNL     1     165.794  52.163   8.394  1.00  0.00     0.165 C 
HETATM    3  N2  UNL     1     164.941  52.424   9.493  1.00  0.00    -0.396 N 
ATOM      4  H2  UNL     1     164.758  53.383   9.787  1.00  0.00     0.155 HD
HETATM    5  C6  UNL     1     164.334  51.320  10.191  1.00  0.00     0.204 C 
HETATM    6  C7  UNL     1     164.226  50.066   9.354  1.00  0.00     0.246 C 
HETATM    7  O2  UNL     1     163.163  49.428   9.215  1.00  0.00    -0.271 OA
HETATM    8  N3  UNL     1     165.469  49.743   8.779  1.00  0.00    -0.321 N 
ATOM      9  H3  UNL     1     165.702  48.796   8.480  1.00  0.00     0.165 HD
HETATM   10  C8  UNL     1     166.376  50.821   8.641  1.00  0.00     0.270 C 
HETATM   11  C9  UNL     1     167.234  51.204   9.757  1.00  0.00     0.195 C 
HETATM   12  C10 UNL     1     167.434  50.113  10.576  1.00  0.00     0.108 C 
HETATM   13  C11 UNL     1     166.381  50.197  11.723  1.00  0.00     0.086 C 
HETATM   14  C12 UNL     1     166.271  48.811  12.298  1.00  0.00     0.051 C 
HETATM   15  C13 UNL     1     165.112  50.852  11.405  1.00  0.00     0.009 C 
HETATM   16  C14 UNL     1     164.468  51.122  12.497  1.00  0.00     0.090 C 
HETATM   17  C15 UNL     1     163.158  51.808  12.376  1.00  0.00     0.103 C 
HETATM   18  N5  UNL     1     162.116  52.358  12.321  1.00  0.00    -0.191 NA
HETATM   19  N6  UNL     1     168.151  51.958   8.874  1.00  0.00    -0.288 N 
HETATM   20  C17 UNL     1     169.499  51.679   8.703  1.00  0.00     0.327 C 
HETATM   21  O6  UNL     1     170.022  50.683   9.341  1.00  0.00    -0.247 OA
HETATM   22  N7  UNL     1     170.386  52.386   7.888  1.00  0.00    -0.281 N 
ATOM     23  H7  UNL     1     170.040  53.184   7.354  1.00  0.00     0.173 HD
HETATM   24  C18 UNL     1     171.783  52.017   7.779  1.00  0.00     0.210 C 
HETATM   25  N8  UNL     1     172.289  50.928   8.507  1.00  0.00    -0.062 NA
HETATM   26  N9  UNL     1     172.567  52.686   7.020  1.00  0.00    -0.280 N 
ATOM     27  H9  UNL     1     172.190  53.477   6.499  1.00  0.00     0.189 HD
ENDROOT
BRANCH  16  28
HETATM   28  C16 UNL     1     164.836  50.811  13.883  1.00  0.00     0.281 C 
HETATM   29  O5  UNL     1     165.127  51.803  14.645  1.00  0.00    -0.301 OA
ENDBRANCH  16  28
BRANCH  13  30
HETATM   30  O4  UNL     1     167.058  50.978  12.665  1.00  0.00    -0.385 OA
ATOM     31  H4  UNL     1     167.904  50.547  12.696  1.00  0.00     0.211 HD
ENDBRANCH  13  30
BRANCH  11  32
HETATM   32  O3  UNL     1     167.057  52.281  10.620  1.00  0.00    -0.366 OA
ATOM     33  H3  UNL     1     167.412  52.377  11.496  1.00  0.00     0.212 HD
ENDBRANCH  11  32
BRANCH   1  34
HETATM   34  C3  UNL     1     167.392  53.666   7.182  1.00  0.00     0.169 C 
BRANCH  34  35
HETATM   35  C2  UNL     1     166.040  54.009   6.491  1.00  0.00     0.265 C 
BRANCH  35  36
HETATM   36  N1  UNL     1     166.345  55.165   5.659  1.00  0.00    -0.077 N 
HETATM   37  C1  UNL     1     166.201  56.415   6.335  1.00  0.00     0.267 C 
ATOM     38  H12 UNL     1     165.787  55.151   4.806  1.00  0.00     0.276 HD
ATOM     39  H11 UNL     1     167.277  55.081   5.255  1.00  0.00     0.276 HD
ENDBRANCH  35  36
ENDBRANCH  34  35
BRANCH  34  40
HETATM   40  O1  UNL     1     168.145  53.103   6.186  1.00  0.00    -0.392 OA
ATOM     41  H1  UNL     1     167.540  53.016   5.459  1.00  0.00     0.210 HD
ENDBRANCH  34  40
ENDBRANCH   1  34
BRANCH  10  42
HETATM   42  N4  UNL     1     167.153  50.453   7.462  1.00  0.00    -0.045 N 
ATOM     43  H43 UNL     1     166.988  51.072   6.669  1.00  0.00     0.277 HD
ATOM     44  H42 UNL     1     168.150  50.636   7.571  1.00  0.00     0.277 HD
ATOM     45  H41 UNL     1     166.950  49.475   7.252  1.00  0.00     0.277 HD
ENDBRANCH  10  42
BRANCH  26  46
HETATM   46  N10 UNL     1     173.921  52.373   6.880  1.00  0.00    -0.343 N 
ATOM     47 2H10 UNL     1     174.247  52.077   5.959  1.00  0.00     0.176 HD
ATOM     48 1H10 UNL     1     174.580  52.430   7.657  1.00  0.00     0.176 HD
ENDBRANCH  26  46
TORSDOF 9
ENDMDL
MODEL 4
REMARK VINA RESULT: -6.593774368      2.256      3.669
REMARK  9 active torsions:
REMARK  status: ('A' for Active; 'I' for Inactive)
REMARK    1  A    between atoms: N1_2  and  C2_5 
REMARK    2  A    between atoms: C2_5  and  C3_6 
REMARK    3  A    between atoms: C3_6  and  O1_7 
REMARK    4  A    between atoms: C3_6  and  C4_9 
REMARK    5  A    between atoms: C8_18  and  N4_19 
REMARK    6  A    between atoms: C9_23  and  O3_24 
REMARK    7  A    between atoms: C11_27  and  O4_29 
REMARK    8  A    between atoms: C14_32  and  C16_35 
REMARK       I    between atoms: N6_37  and  C17_38 
REMARK       I    between atoms: C17_38  and  N7_40 
REMARK       I    between atoms: N7_40  and  C18_42 
REMARK    9  A    between atoms: N9_44  and  N10_46 
ROOT
HETATM    1  C4  UNL     1     167.047  51.863   9.339  1.00  0.00     0.149 C 
HETATM    2  C5  UNL     1     166.024  50.818   9.883  1.00  0.00     0.165 C 
HETATM    3  N2  UNL     1     165.219  51.250  10.963  1.00  0.00    -0.396 N 
ATOM      4  H2  UNL     1     164.735  52.147  10.919  1.00  0.00     0.155 HD
HETATM    5  C6  UNL     1     165.092  50.411  12.126  1.00  0.00     0.204 C 
HETATM    6  C7  UNL     1     165.367  48.951  11.846  1.00  0.00     0.246 C 
HETATM    7  O2  UNL     1     164.587  48.035  12.175  1.00  0.00    -0.271 OA
HETATM    8  N3  UNL     1     166.597  48.795  11.181  1.00  0.00    -0.321 N 
ATOM      9  H3  UNL     1     167.123  47.922  11.207  1.00  0.00     0.165 HD
HETATM   10  C8  UNL     1     167.055  49.932  10.473  1.00  0.00     0.270 C 
HETATM   11  C9  UNL     1     167.807  50.973  11.166  1.00  0.00     0.195 C 
HETATM   12  C10 UNL     1     168.437  50.428  12.265  1.00  0.00     0.108 C 
HETATM   13  C11 UNL     1     167.511  50.670  13.496  1.00  0.00     0.086 C 
HETATM   14  C12 UNL     1     167.936  49.680  14.546  1.00  0.00     0.051 C 
HETATM   15  C13 UNL     1     166.073  50.735  13.235  1.00  0.00     0.009 C 
HETATM   16  C14 UNL     1     165.459  51.232  14.263  1.00  0.00     0.090 C 
HETATM   17  C15 UNL     1     163.988  51.395  14.178  1.00  0.00     0.103 C 
HETATM   18  N5  UNL     1     162.818  51.544  14.146  1.00  0.00    -0.191 NA
HETATM   19  N6  UNL     1     168.332  51.524   9.898  1.00  0.00    -0.288 N 
HETATM   20  C17 UNL     1     169.676  51.604   9.562  1.00  0.00     0.327 C 
HETATM   21  O6  UNL     1     170.562  51.160  10.394  1.00  0.00    -0.247 OA
HETATM   22  N7  UNL     1     170.195  52.134   8.378  1.00  0.00    -0.281 N 
ATOM     23  H7  UNL     1     169.553  52.501   7.675  1.00  0.00     0.173 HD
HETATM   24  C18 UNL     1     171.621  52.176   8.121  1.00  0.00     0.210 C 
HETATM   25  N8  UNL     1     172.529  51.684   9.072  1.00  0.00    -0.062 NA
HETATM   26  N9  UNL     1     172.062  52.667   7.024  1.00  0.00    -0.280 N 
ATOM     27  H9  UNL     1     171.393  53.025   6.342  1.00  0.00     0.189 HD
ENDROOT
BRANCH  16  28
HETATM   28  C16 UNL     1     166.017  51.645  15.556  1.00  0.00     0.281 C 
HETATM   29  O5  UNL     1     165.926  52.889  15.860  1.00  0.00    -0.301 OA
ENDBRANCH  16  28
BRANCH  13  30
HETATM   30  O4  UNL     1     167.941  51.930  13.924  1.00  0.00    -0.385 OA
ATOM     31  H4  UNL     1     168.797  51.986  13.517  1.00  0.00     0.211 HD
ENDBRANCH  13  30
BRANCH  11  32
HETATM   32  O3  UNL     1     167.330  52.208  11.593  1.00  0.00    -0.366 OA
ATOM     33  H3  UNL     1     167.452  52.603  12.449  1.00  0.00     0.212 HD
ENDBRANCH  11  32
BRANCH   1  34
HETATM   34  C3  UNL     1     166.899  52.078   7.900  1.00  0.00     0.169 C 
BRANCH  34  35
HETATM   35  C2  UNL     1     165.500  52.679   7.575  1.00  0.00     0.265 C 
BRANCH  35  36
HETATM   36  N1  UNL     1     165.720  53.472   6.373  1.00  0.00    -0.077 N 
HETATM   37  C1  UNL     1     166.777  54.424   6.497  1.00  0.00     0.267 C 
ATOM     38  H12 UNL     1     164.856  53.930   6.081  1.00  0.00     0.276 HD
ATOM     39  H11 UNL     1     165.874  52.867   5.567  1.00  0.00     0.276 HD
ENDBRANCH  35  36
ENDBRANCH  34  35
BRANCH  34  40
HETATM   40  O1  UNL     1     167.005  51.003   7.058  1.00  0.00    -0.392 OA
ATOM     41  H1  UNL     1     167.934  50.949   6.865  1.00  0.00     0.210 HD
ENDBRANCH  34  40
ENDBRANCH   1  34
BRANCH  10  42
HETATM   42  N4  UNL     1     167.821  49.351   9.375  1.00  0.00    -0.045 N 
ATOM     43  H43 UNL     1     167.894  48.336   9.435  1.00  0.00     0.277 HD
ATOM     44  H42 UNL     1     167.331  49.397   8.481  1.00  0.00     0.277 HD
ATOM     45  H41 UNL     1     168.730  49.814   9.353  1.00  0.00     0.277 HD
ENDBRANCH  10  42
BRANCH  26  46
HETATM   46  N10 UNL     1     173.425  52.731   6.726  1.00  0.00    -0.343 N 
ATOM     47 2H10 UNL     1     173.692  52.927   5.762  1.00  0.00     0.176 HD
ATOM     48 1H10 UNL     1     174.147  52.590   7.434  1.00  0.00     0.176 HD
ENDBRANCH  26  46
TORSDOF 9
ENDMDL
MODEL 5
REMARK VINA RESULT: -6.429730007      5.951      8.600
REMARK  9 active torsions:
REMARK  status: ('A' for Active; 'I' for Inactive)
REMARK    1  A    between atoms: N1_2  and  C2_5 
REMARK    2  A    between atoms: C2_5  and  C3_6 
REMARK    3  A    between atoms: C3_6  and  O1_7 
REMARK    4  A    between atoms: C3_6  and  C4_9 
REMARK    5  A    between atoms: C8_18  and  N4_19 
REMARK    6  A    between atoms: C9_23  and  O3_24 
REMARK    7  A    between atoms: C11_27  and  O4_29 
REMARK    8  A    between atoms: C14_32  and  C16_35 
REMARK       I    between atoms: N6_37  and  C17_38 
REMARK       I    between atoms: C17_38  and  N7_40 
REMARK       I    between atoms: N7_40  and  C18_42 
REMARK    9  A    between atoms: N9_44  and  N10_46 
ROOT
HETATM    1  C4  UNL     1     168.549  52.984   8.723  1.00  0.00     0.149 C 
HETATM    2  C5  UNL     1     169.743  52.033   9.044  1.00  0.00     0.165 C 
HETATM    3  N2  UNL     1     170.143  51.985  10.400  1.00  0.00    -0.396 N 
ATOM      4  H2  UNL     1     169.450  51.854  11.138  1.00  0.00     0.155 HD
HETATM    5  C6  UNL     1     171.538  52.123  10.729  1.00  0.00     0.204 C 
HETATM    6  C7  UNL     1     172.462  51.752   9.592  1.00  0.00     0.246 C 
HETATM    7  O2  UNL     1     173.409  50.949   9.717  1.00  0.00    -0.271 OA
HETATM    8  N3  UNL     1     172.099  52.430   8.414  1.00  0.00    -0.321 N 
ATOM      9  H3  UNL     1     172.760  52.594   7.654  1.00  0.00     0.165 HD
HETATM   10  C8  UNL     1     170.754  52.867   8.352  1.00  0.00     0.270 C 
HETATM   11  C9  UNL     1     170.370  54.142   8.947  1.00  0.00     0.195 C 
HETATM   12  C10 UNL     1     171.466  54.979   8.982  1.00  0.00     0.108 C 
HETATM   13  C11 UNL     1     172.113  54.835  10.393  1.00  0.00     0.086 C 
HETATM   14  C12 UNL     1     173.526  55.334  10.263  1.00  0.00     0.051 C 
HETATM   15  C13 UNL     1     171.959  53.542  11.059  1.00  0.00     0.009 C 
HETATM   16  C14 UNL     1     172.267  53.650  12.314  1.00  0.00     0.090 C 
HETATM   17  C15 UNL     1     172.153  52.439  13.161  1.00  0.00     0.103 C 
HETATM   18  N5  UNL     1     172.070  51.498  13.869  1.00  0.00    -0.191 NA
HETATM   19  N6  UNL     1     169.110  54.195   8.175  1.00  0.00    -0.288 N 
HETATM   20  C17 UNL     1     168.774  55.190   7.270  1.00  0.00     0.327 C 
HETATM   21  O6  UNL     1     169.609  56.155   7.053  1.00  0.00    -0.247 OA
HETATM   22  N7  UNL     1     167.585  55.269   6.541  1.00  0.00    -0.281 N 
ATOM     23  H7  UNL     1     166.881  54.540   6.660  1.00  0.00     0.173 HD
HETATM   24  C18 UNL     1     167.324  56.356   5.619  1.00  0.00     0.210 C 
HETATM   25  N8  UNL     1     168.271  57.376   5.438  1.00  0.00    -0.062 NA
HETATM   26  N9  UNL     1     166.224  56.395   4.965  1.00  0.00    -0.280 N 
ATOM     27  H9  UNL     1     165.541  55.650   5.108  1.00  0.00     0.189 HD
ENDROOT
BRANCH  16  28
HETATM   28  C16 UNL     1     172.758  54.826  13.042  1.00  0.00     0.281 C 
HETATM   29  O5  UNL     1     172.004  55.294  13.969  1.00  0.00    -0.301 OA
ENDBRANCH  16  28
BRANCH  13  30
HETATM   30  O4  UNL     1     171.405  55.795  11.124  1.00  0.00    -0.385 OA
ATOM     31  H4  UNL     1     171.988  56.544  11.066  1.00  0.00     0.211 HD
ENDBRANCH  13  30
BRANCH  11  32
HETATM   32  O3  UNL     1     169.722  54.338  10.163  1.00  0.00    -0.366 OA
ATOM     33  H3  UNL     1     168.793  54.482  10.298  1.00  0.00     0.212 HD
ENDBRANCH  11  32
BRANCH   1  34
HETATM   34  C3  UNL     1     167.466  52.290   8.027  1.00  0.00     0.169 C 
BRANCH  34  35
HETATM   35  C2  UNL     1     167.224  50.884   8.652  1.00  0.00     0.265 C 
BRANCH  35  36
HETATM   36  N1  UNL     1     166.016  50.403   7.995  1.00  0.00    -0.077 N 
HETATM   37  C1  UNL     1     164.811  50.755   8.677  1.00  0.00     0.267 C 
ATOM     38  H12 UNL     1     166.064  49.395   7.848  1.00  0.00     0.276 HD
ATOM     39  H11 UNL     1     165.984  50.716   7.026  1.00  0.00     0.276 HD
ENDBRANCH  35  36
ENDBRANCH  34  35
BRANCH  34  40
HETATM   40  O1  UNL     1     167.595  52.043   6.686  1.00  0.00    -0.392 OA
ATOM     41  H1  UNL     1     167.685  52.906   6.299  1.00  0.00     0.210 HD
ENDBRANCH  34  40
ENDBRANCH   1  34
BRANCH  10  42
HETATM   42  N4  UNL     1     170.458  52.826   6.923  1.00  0.00    -0.045 N 
ATOM     43  H43 UNL     1     169.801  53.550   6.633  1.00  0.00     0.277 HD
ATOM     44  H42 UNL     1     171.246  53.122   6.346  1.00  0.00     0.277 HD
ATOM     45  H41 UNL     1     170.135  51.885   6.701  1.00  0.00     0.277 HD
ENDBRANCH  10  42
BRANCH  26  46
HETATM   46  N10 UNL     1     165.923  57.420   4.065  1.00  0.00    -0.343 N 
ATOM     47 2H10 UNL     1     165.941  58.378   4.413  1.00  0.00     0.176 HD
ATOM     48 1H10 UNL     1     165.689  57.239   3.088  1.00  0.00     0.176 HD
ENDBRANCH  26  46
TORSDOF 9
ENDMDL
