MODEL 1
REMARK VINA RESULT: -7.480667996      0.000      0.000
REMARK  8 active torsions:
REMARK  status: ('A' for Active; 'I' for Inactive)
REMARK    1  A    between atoms: C2_2  and  O1_3 
REMARK    2  A    between atoms: O1_3  and  C3_4 
REMARK    3  A    between atoms: C5_11  and  C6_12 
REMARK    4  A    between atoms: N4_13  and  N5_15 
REMARK    5  A    between atoms: N5_15  and  C7_17 
REMARK    6  A    between atoms: C8_20  and  S1_21 
REMARK    7  A    between atoms: S1_21  and  N7_22 
REMARK    8  A    between atoms: C9_29  and  N9_30 
ROOT
HETATM    1  C7  UNL     1      20.762 -30.412  16.148  1.00  0.00     0.713 A 
HETATM    2  N6  UNL     1      21.648 -30.662  17.126  1.00  0.00    -0.162 N 
ATOM      3  H6  UNL     1      22.559 -31.053  16.889  1.00  0.00     0.186 HD
HETATM    4  C8  UNL     1      21.350 -30.404  18.423  1.00  0.00     0.252 A 
HETATM    5  N8  UNL     1      20.134 -29.890  18.664  1.00  0.00    -0.164 N 
ATOM      6  H8  UNL     1      19.877 -29.684  19.629  1.00  0.00     0.186 HD
HETATM    7  C9  UNL     1      19.236 -29.634  17.690  1.00  0.00     0.692 A 
HETATM    8  N10 UNL     1      19.551 -29.897  16.415  1.00  0.00    -0.021 N 
ATOM      9  H10 UNL     1      18.886 -29.711  15.663  1.00  0.00     0.203 HD
ENDROOT
BRANCH   1  10
HETATM   10  N5  UNL     1      21.056 -30.662  14.918  1.00  0.00    -0.132 N 
ATOM     11  H5  UNL     1      20.846 -29.944  14.225  1.00  0.00     0.205 HD
BRANCH  10  12
HETATM   12  N4  UNL     1      21.632 -31.830  14.475  1.00  0.00    -0.297 N 
HETATM   13  C6  UNL     1      21.003 -32.661  13.729  1.00  0.00     0.127 C 
ATOM     14  H4  UNL     1      22.591 -32.041  14.750  1.00  0.00     0.186 HD
BRANCH  13  15
HETATM   15  C5  UNL     1      21.648 -33.902  13.272  1.00  0.00     0.075 A 
HETATM   16  C3  UNL     1      21.070 -35.114  13.016  1.00  0.00     0.172 A 
HETATM   17  N1  UNL     1      22.036 -35.946  12.626  1.00  0.00    -0.278 N 
HETATM   18  N2  UNL     1      23.194 -35.327  12.619  1.00  0.00    -0.285 N 
ATOM     19  H1  UNL     1      21.896 -36.923  12.368  1.00  0.00     0.189 HD
HETATM   20  C4  UNL     1      23.005 -34.057  13.013  1.00  0.00     0.146 A 
ATOM     21  H2  UNL     1      24.088 -35.742  12.359  1.00  0.00     0.188 HD
HETATM   22  N3  UNL     1      23.945 -33.000  13.167  1.00  0.00    -0.080 NA
BRANCH  16  23
HETATM   23  O1  UNL     1      19.740 -35.426  13.138  1.00  0.00    -0.334 OA
BRANCH  23  24
HETATM   24  C2  UNL     1      19.100 -35.667  14.376  1.00  0.00     0.173 C 
HETATM   25  C1  UNL     1      17.985 -34.711  14.652  1.00  0.00     0.034 C 
ENDBRANCH  23  24
ENDBRANCH  16  23
ENDBRANCH  13  15
ENDBRANCH  10  12
ENDBRANCH   1  10
BRANCH   4  26
HETATM   26  S1  UNL     1      22.490 -30.722  19.719  1.00  0.00     0.289 S 
HETATM   27  O2  UNL     1      23.630 -31.480  19.143  1.00  0.00    -0.198 OA
HETATM   28  O3  UNL     1      22.962 -29.412  20.277  1.00  0.00    -0.198 OA
BRANCH  26  29
HETATM   29  N7  UNL     1      21.702 -31.604  20.980  1.00  0.00    -0.322 N 
ATOM     30  H72 UNL     1      21.165 -31.175  21.735  1.00  0.00     0.169 HD
ATOM     31  H71 UNL     1      21.858 -32.603  20.848  1.00  0.00     0.169 HD
ENDBRANCH  26  29
ENDBRANCH   4  26
BRANCH   7  32
HETATM   32  N9  UNL     1      18.070 -29.139  17.954  1.00  0.00    -0.234 N 
ATOM     33  H92 UNL     1      17.374 -29.736  18.399  1.00  0.00     0.174 HD
ATOM     34  H91 UNL     1      17.835 -28.172  17.729  1.00  0.00     0.174 HD
ENDBRANCH   7  32
TORSDOF 8
ENDMDL
MODEL 2
REMARK VINA RESULT: -7.332748789      4.424      8.269
REMARK  8 active torsions:
REMARK  status: ('A' for Active; 'I' for Inactive)
REMARK    1  A    between atoms: C2_2  and  O1_3 
REMARK    2  A    between atoms: O1_3  and  C3_4 
REMARK    3  A    between atoms: C5_11  and  C6_12 
REMARK    4  A    between atoms: N4_13  and  N5_15 
REMARK    5  A    between atoms: N5_15  and  C7_17 
REMARK    6  A    between atoms: C8_20  and  S1_21 
REMARK    7  A    between atoms: S1_21  and  N7_22 
REMARK    8  A    between atoms: C9_29  and  N9_30 
ROOT
HETATM    1  C7  UNL     1      18.736 -30.011  18.797  1.00  0.00     0.713 A 
HETATM    2  N6  UNL     1      19.829 -30.239  19.543  1.00  0.00    -0.162 N 
ATOM      3  H6  UNL     1      19.724 -30.447  20.536  1.00  0.00     0.186 HD
HETATM    4  C8  UNL     1      21.070 -30.198  18.999  1.00  0.00     0.252 A 
HETATM    5  N8  UNL     1      21.135 -29.919  17.688  1.00  0.00    -0.164 N 
ATOM      6  H8  UNL     1      22.053 -29.879  17.246  1.00  0.00     0.186 HD
HETATM    7  C9  UNL     1      20.045 -29.688  16.928  1.00  0.00     0.692 A 
HETATM    8  N10 UNL     1      18.828 -29.734  17.486  1.00  0.00    -0.021 N 
ATOM      9  H10 UNL     1      17.991 -29.562  16.929  1.00  0.00     0.203 HD
ENDROOT
BRANCH   1  10
HETATM   10  N5  UNL     1      17.561 -30.053  19.326  1.00  0.00    -0.132 N 
ATOM     11  H5  UNL     1      17.363 -30.807  19.983  1.00  0.00     0.205 HD
BRANCH  10  12
HETATM   12  N4  UNL     1      16.556 -29.150  19.065  1.00  0.00    -0.297 N 
HETATM   13  C6  UNL     1      16.458 -28.038  19.692  1.00  0.00     0.127 C 
ATOM     14  H4  UNL     1      15.866 -29.375  18.349  1.00  0.00     0.186 HD
BRANCH  13  15
HETATM   15  C5  UNL     1      15.371 -27.093  19.390  1.00  0.00     0.075 A 
HETATM   16  C3  UNL     1      14.054 -27.365  19.146  1.00  0.00     0.172 A 
HETATM   17  N1  UNL     1      13.439 -26.204  18.921  1.00  0.00    -0.278 N 
HETATM   18  N2  UNL     1      14.293 -25.211  19.010  1.00  0.00    -0.285 N 
ATOM     19  H1  UNL     1      12.446 -26.101  18.710  1.00  0.00     0.189 HD
HETATM   20  C4  UNL     1      15.505 -25.713  19.299  1.00  0.00     0.146 A 
ATOM     21  H2  UNL     1      14.074 -24.224  18.881  1.00  0.00     0.188 HD
HETATM   22  N3  UNL     1      16.746 -25.044  19.494  1.00  0.00    -0.080 NA
BRANCH  16  23
HETATM   23  O1  UNL     1      13.465 -28.603  19.132  1.00  0.00    -0.334 OA
BRANCH  23  24
HETATM   24  C2  UNL     1      12.781 -29.161  20.238  1.00  0.00     0.173 C 
HETATM   25  C1  UNL     1      11.376 -28.668  20.363  1.00  0.00     0.034 C 
ENDBRANCH  23  24
ENDBRANCH  16  23
ENDBRANCH  13  15
ENDBRANCH  10  12
ENDBRANCH   1  10
BRANCH   4  26
HETATM   26  S1  UNL     1      22.514 -30.492  19.952  1.00  0.00     0.289 S 
HETATM   27  O2  UNL     1      23.428 -31.336  19.140  1.00  0.00    -0.198 OA
HETATM   28  O3  UNL     1      23.160 -29.174  20.265  1.00  0.00    -0.198 OA
BRANCH  26  29
HETATM   29  N7  UNL     1      22.080 -31.259  21.439  1.00  0.00    -0.322 N 
ATOM     30  H72 UNL     1      22.138 -30.813  22.356  1.00  0.00     0.169 HD
ATOM     31  H71 UNL     1      21.764 -32.210  21.254  1.00  0.00     0.169 HD
ENDBRANCH  26  29
ENDBRANCH   4  26
BRANCH   7  32
HETATM   32  N9  UNL     1      20.141 -29.421  15.666  1.00  0.00    -0.234 N 
ATOM     33  H92 UNL     1      20.344 -28.463  15.382  1.00  0.00     0.174 HD
ATOM     34  H91 UNL     1      20.018 -30.142  14.955  1.00  0.00     0.174 HD
ENDBRANCH   7  32
TORSDOF 8
ENDMDL
MODEL 3
REMARK VINA RESULT: -7.259871898      4.415      8.242
REMARK  8 active torsions:
REMARK  status: ('A' for Active; 'I' for Inactive)
REMARK    1  A    between atoms: C2_2  and  O1_3 
REMARK    2  A    between atoms: O1_3  and  C3_4 
REMARK    3  A    between atoms: C5_11  and  C6_12 
REMARK    4  A    between atoms: N4_13  and  N5_15 
REMARK    5  A    between atoms: N5_15  and  C7_17 
REMARK    6  A    between atoms: C8_20  and  S1_21 
REMARK    7  A    between atoms: S1_21  and  N7_22 
REMARK    8  A    between atoms: C9_29  and  N9_30 
ROOT
HETATM    1  C7  UNL     1      18.801 -29.992  18.940  1.00  0.00     0.713 A 
HETATM    2  N6  UNL     1      19.906 -30.224  19.669  1.00  0.00    -0.162 N 
ATOM      3  H6  UNL     1      19.819 -30.397  20.670  1.00  0.00     0.186 HD
HETATM    4  C8  UNL     1      21.134 -30.231  19.096  1.00  0.00     0.252 A 
HETATM    5  N8  UNL     1      21.176 -29.995  17.775  1.00  0.00    -0.164 N 
ATOM      6  H8  UNL     1      22.084 -29.993  17.311  1.00  0.00     0.186 HD
HETATM    7  C9  UNL     1      20.074 -29.762  17.033  1.00  0.00     0.692 A 
HETATM    8  N10 UNL     1      18.870 -29.759  17.619  1.00  0.00    -0.021 N 
ATOM      9  H10 UNL     1      18.024 -29.584  17.076  1.00  0.00     0.203 HD
ENDROOT
BRANCH   1  10
HETATM   10  N5  UNL     1      17.639 -29.987  19.496  1.00  0.00    -0.132 N 
ATOM     11  H5  UNL     1      17.411 -30.755  20.127  1.00  0.00     0.205 HD
BRANCH  10  12
HETATM   12  N4  UNL     1      16.683 -29.017  19.298  1.00  0.00    -0.297 N 
HETATM   13  C6  UNL     1      16.621 -27.963  20.024  1.00  0.00     0.127 C 
ATOM     14  H4  UNL     1      16.003 -29.141  18.549  1.00  0.00     0.186 HD
BRANCH  13  15
HETATM   15  C5  UNL     1      15.587 -26.943  19.787  1.00  0.00     0.075 A 
HETATM   16  C3  UNL     1      15.311 -26.265  18.633  1.00  0.00     0.172 A 
HETATM   17  N1  UNL     1      14.294 -25.441  18.883  1.00  0.00    -0.278 N 
HETATM   18  N2  UNL     1      13.909 -25.560  20.132  1.00  0.00    -0.285 N 
ATOM     19  H1  UNL     1      13.874 -24.809  18.201  1.00  0.00     0.189 HD
HETATM   20  C4  UNL     1      14.681 -26.479  20.734  1.00  0.00     0.146 A 
ATOM     21  H2  UNL     1      13.150 -25.041  20.572  1.00  0.00     0.188 HD
HETATM   22  N3  UNL     1      14.656 -26.956  22.075  1.00  0.00    -0.080 NA
BRANCH  16  23
HETATM   23  O1  UNL     1      15.960 -26.402  17.432  1.00  0.00    -0.334 OA
BRANCH  23  24
HETATM   24  C2  UNL     1      15.760 -27.490  16.550  1.00  0.00     0.173 C 
HETATM   25  C1  UNL     1      16.869 -27.649  15.561  1.00  0.00     0.034 C 
ENDBRANCH  23  24
ENDBRANCH  16  23
ENDBRANCH  13  15
ENDBRANCH  10  12
ENDBRANCH   1  10
BRANCH   4  26
HETATM   26  S1  UNL     1      22.592 -30.530  20.025  1.00  0.00     0.289 S 
HETATM   27  O2  UNL     1      23.499 -31.360  19.189  1.00  0.00    -0.198 OA
HETATM   28  O3  UNL     1      23.237 -29.214  20.346  1.00  0.00    -0.198 OA
BRANCH  26  29
HETATM   29  N7  UNL     1      22.183 -31.318  21.508  1.00  0.00    -0.322 N 
ATOM     30  H72 UNL     1      22.574 -31.073  22.418  1.00  0.00     0.169 HD
ATOM     31  H71 UNL     1      21.500 -32.053  21.327  1.00  0.00     0.169 HD
ENDBRANCH  26  29
ENDBRANCH   4  26
BRANCH   7  32
HETATM   32  N9  UNL     1      20.147 -29.538  15.760  1.00  0.00    -0.234 N 
ATOM     33  H92 UNL     1      20.647 -30.205  15.173  1.00  0.00     0.174 HD
ATOM     34  H91 UNL     1      19.717 -28.716  15.336  1.00  0.00     0.174 HD
ENDBRANCH   7  32
TORSDOF 8
ENDMDL
MODEL 4
REMARK VINA RESULT: -7.223025989      4.493      9.023
REMARK  8 active torsions:
REMARK  status: ('A' for Active; 'I' for Inactive)
REMARK    1  A    between atoms: C2_2  and  O1_3 
REMARK    2  A    between atoms: O1_3  and  C3_4 
REMARK    3  A    between atoms: C5_11  and  C6_12 
REMARK    4  A    between atoms: N4_13  and  N5_15 
REMARK    5  A    between atoms: N5_15  and  C7_17 
REMARK    6  A    between atoms: C8_20  and  S1_21 
REMARK    7  A    between atoms: S1_21  and  N7_22 
REMARK    8  A    between atoms: C9_29  and  N9_30 
ROOT
HETATM    1  C7  UNL     1      18.770 -29.653  18.943  1.00  0.00     0.713 A 
HETATM    2  N6  UNL     1      19.867 -29.941  19.664  1.00  0.00    -0.162 N 
ATOM      3  H6  UNL     1      19.796 -30.009  20.679  1.00  0.00     0.186 HD
HETATM    4  C8  UNL     1      21.065 -30.144  19.063  1.00  0.00     0.252 A 
HETATM    5  N8  UNL     1      21.086 -30.040  17.726  1.00  0.00    -0.164 N 
ATOM      6  H8  UNL     1      21.971 -30.186  17.242  1.00  0.00     0.186 HD
HETATM    7  C9  UNL     1      19.992 -29.752  16.992  1.00  0.00     0.692 A 
HETATM    8  N10 UNL     1      18.817 -29.555  17.605  1.00  0.00    -0.021 N 
ATOM      9  H10 UNL     1      17.977 -29.336  17.068  1.00  0.00     0.203 HD
ENDROOT
BRANCH   1  10
HETATM   10  N5  UNL     1      17.636 -29.462  19.525  1.00  0.00    -0.132 N 
ATOM     11  H5  UNL     1      17.205 -30.256  19.998  1.00  0.00     0.205 HD
BRANCH  10  12
HETATM   12  N4  UNL     1      16.965 -28.261  19.552  1.00  0.00    -0.297 N 
HETATM   13  C6  UNL     1      15.802 -28.140  20.075  1.00  0.00     0.127 C 
ATOM     14  H4  UNL     1      17.409 -27.440  19.141  1.00  0.00     0.186 HD
BRANCH  13  15
HETATM   15  C5  UNL     1      15.111 -26.841  20.088  1.00  0.00     0.075 A 
HETATM   16  C3  UNL     1      14.256 -26.344  21.032  1.00  0.00     0.172 A 
HETATM   17  N1  UNL     1      13.872 -25.132  20.628  1.00  0.00    -0.278 N 
HETATM   18  N2  UNL     1      14.437 -24.835  19.481  1.00  0.00    -0.285 N 
ATOM     19  H1  UNL     1      13.231 -24.523  21.138  1.00  0.00     0.189 HD
HETATM   20  C4  UNL     1      15.214 -25.864  19.105  1.00  0.00     0.146 A 
ATOM     21  H2  UNL     1      14.308 -23.967  18.962  1.00  0.00     0.188 HD
HETATM   22  N3  UNL     1      16.026 -26.019  17.946  1.00  0.00    -0.080 NA
BRANCH  16  23
HETATM   23  O1  UNL     1      13.859 -26.971  22.185  1.00  0.00    -0.334 OA
BRANCH  23  24
HETATM   24  C2  UNL     1      14.652 -27.039  23.355  1.00  0.00     0.173 C 
HETATM   25  C1  UNL     1      14.578 -25.796  24.182  1.00  0.00     0.034 C 
ENDBRANCH  23  24
ENDBRANCH  16  23
ENDBRANCH  13  15
ENDBRANCH  10  12
ENDBRANCH   1  10
BRANCH   4  26
HETATM   26  S1  UNL     1      22.512 -30.521  19.981  1.00  0.00     0.289 S 
HETATM   27  O2  UNL     1      23.387 -31.360  19.122  1.00  0.00    -0.198 OA
HETATM   28  O3  UNL     1      23.205 -29.238  20.336  1.00  0.00    -0.198 OA
BRANCH  26  29
HETATM   29  N7  UNL     1      22.076 -31.333  21.444  1.00  0.00    -0.322 N 
ATOM     30  H72 UNL     1      21.182 -31.220  21.921  1.00  0.00     0.169 HD
ATOM     31  H71 UNL     1      22.845 -31.932  21.744  1.00  0.00     0.169 HD
ENDBRANCH  26  29
ENDBRANCH   4  26
BRANCH   7  32
HETATM   32  N9  UNL     1      20.043 -29.658  15.702  1.00  0.00    -0.234 N 
ATOM     33  H92 UNL     1      19.739 -28.790  15.262  1.00  0.00     0.174 HD
ATOM     34  H91 UNL     1      20.380 -30.426  15.122  1.00  0.00     0.174 HD
ENDBRANCH   7  32
TORSDOF 8
ENDMDL
MODEL 5
REMARK VINA RESULT: -7.190651404      4.489      8.841
REMARK  8 active torsions:
REMARK  status: ('A' for Active; 'I' for Inactive)
REMARK    1  A    between atoms: C2_2  and  O1_3 
REMARK    2  A    between atoms: O1_3  and  C3_4 
REMARK    3  A    between atoms: C5_11  and  C6_12 
REMARK    4  A    between atoms: N4_13  and  N5_15 
REMARK    5  A    between atoms: N5_15  and  C7_17 
REMARK    6  A    between atoms: C8_20  and  S1_21 
REMARK    7  A    between atoms: S1_21  and  N7_22 
REMARK    8  A    between atoms: C9_29  and  N9_30 
ROOT
HETATM    1  C7  UNL     1      18.713 -29.846  19.016  1.00  0.00     0.713 A 
HETATM    2  N6  UNL     1      19.828 -30.106  19.717  1.00  0.00    -0.162 N 
ATOM      3  H6  UNL     1      19.761 -30.272  20.722  1.00  0.00     0.186 HD
HETATM    4  C8  UNL     1      21.040 -30.152  19.113  1.00  0.00     0.252 A 
HETATM    5  N8  UNL     1      21.056 -29.925  17.791  1.00  0.00    -0.164 N 
ATOM      6  H8  UNL     1      21.952 -29.952  17.305  1.00  0.00     0.186 HD
HETATM    7  C9  UNL     1      19.943 -29.663  17.075  1.00  0.00     0.692 A 
HETATM    8  N10 UNL     1      18.754 -29.622  17.692  1.00  0.00    -0.021 N 
ATOM      9  H10 UNL     1      17.901 -29.425  17.169  1.00  0.00     0.203 HD
ENDROOT
BRANCH   1  10
HETATM   10  N5  UNL     1      17.565 -29.804  19.601  1.00  0.00    -0.132 N 
ATOM     11  H5  UNL     1      17.073 -30.685  19.743  1.00  0.00     0.205 HD
BRANCH  10  12
HETATM   12  N4  UNL     1      16.958 -28.653  20.046  1.00  0.00    -0.297 N 
HETATM   13  C6  UNL     1      15.850 -28.671  20.689  1.00  0.00     0.127 C 
ATOM     14  H4  UNL     1      17.405 -27.755  19.858  1.00  0.00     0.186 HD
BRANCH  13  15
HETATM   15  C5  UNL     1      15.226 -27.421  21.153  1.00  0.00     0.075 A 
HETATM   16  C3  UNL     1      15.043 -26.256  20.463  1.00  0.00     0.172 A 
HETATM   17  N1  UNL     1      14.436 -25.395  21.279  1.00  0.00    -0.278 N 
HETATM   18  N2  UNL     1      14.223 -25.951  22.449  1.00  0.00    -0.285 N 
ATOM     19  H1  UNL     1      14.174 -24.440  21.031  1.00  0.00     0.189 HD
HETATM   20  C4  UNL     1      14.695 -27.208  22.420  1.00  0.00     0.146 A 
ATOM     21  H2  UNL     1      13.773 -25.503  23.247  1.00  0.00     0.188 HD
HETATM   22  N3  UNL     1      14.699 -28.205  23.435  1.00  0.00    -0.080 NA
BRANCH  16  23
HETATM   23  O1  UNL     1      15.416 -26.009  19.166  1.00  0.00    -0.334 OA
BRANCH  23  24
HETATM   24  C2  UNL     1      14.679 -26.445  18.040  1.00  0.00     0.173 C 
HETATM   25  C1  UNL     1      15.454 -27.371  17.159  1.00  0.00     0.034 C 
ENDBRANCH  23  24
ENDBRANCH  16  23
ENDBRANCH  13  15
ENDBRANCH  10  12
ENDBRANCH   1  10
BRANCH   4  26
HETATM   26  S1  UNL     1      22.512 -30.490  20.008  1.00  0.00     0.289 S 
HETATM   27  O2  UNL     1      23.381 -31.334  19.147  1.00  0.00    -0.198 OA
HETATM   28  O3  UNL     1      23.194 -29.190  20.322  1.00  0.00    -0.198 OA
BRANCH  26  29
HETATM   29  N7  UNL     1      22.119 -31.278  21.495  1.00  0.00    -0.322 N 
ATOM     30  H72 UNL     1      21.188 -31.293  21.910  1.00  0.00     0.169 HD
ATOM     31  H71 UNL     1      22.955 -31.717  21.880  1.00  0.00     0.169 HD
ENDBRANCH  26  29
ENDBRANCH   4  26
BRANCH   7  32
HETATM   32  N9  UNL     1      19.990 -29.447  15.800  1.00  0.00    -0.234 N 
ATOM     33  H92 UNL     1      20.894 -29.483  15.330  1.00  0.00     0.174 HD
ATOM     34  H91 UNL     1      19.149 -29.246  15.260  1.00  0.00     0.174 HD
ENDBRANCH   7  32
TORSDOF 8
ENDMDL
