MODEL 1
REMARK VINA RESULT: -7.447683597      0.000      0.000
REMARK  3 active torsions:
REMARK  status: ('A' for Active; 'I' for Inactive)
REMARK    1  A    between atoms: C2_2  and  C3_3 
REMARK       I    between atoms: N2_6  and  C4_7 
REMARK       I    between atoms: C4_7  and  N4_12 
REMARK    2  A    between atoms: N3_8  and  O1_10 
REMARK    3  A    between atoms: C5_15  and  N5_16 
ROOT
HETATM    1  C3  UNL     1     -24.048 -15.991 -22.032  1.00  0.00     0.095 A 
HETATM    2  N1  UNL     1     -23.713 -16.803 -22.968  1.00  0.00    -0.269 N 
ATOM      3  H1  UNL     1     -24.155 -16.838 -23.887  1.00  0.00     0.189 HD
HETATM    4  N2  UNL     1     -22.667 -17.627 -22.567  1.00  0.00    -0.078 N 
HETATM    5  C4  UNL     1     -22.094 -18.638 -23.366  1.00  0.00     0.728 C 
HETATM    6  N3  UNL     1     -22.878 -19.457 -24.021  1.00  0.00    -0.096 N 
ATOM      7  H3  UNL     1     -23.886 -19.341 -23.932  1.00  0.00     0.213 HD
HETATM    8  N4  UNL     1     -20.704 -18.837 -23.518  1.00  0.00    -0.150 N 
ATOM      9  H4  UNL     1     -20.182 -19.220 -22.730  1.00  0.00     0.193 HD
HETATM   10  S1  UNL     1     -19.827 -18.461 -24.991  1.00  0.00     0.058 SA
HETATM   11  C5  UNL     1     -22.302 -17.268 -21.242  1.00  0.00     0.336 A 
HETATM   12  N8  UNL     1     -23.226 -16.208 -20.879  1.00  0.00    -0.339 N 
ATOM     13  H8  UNL     1     -23.278 -15.717 -19.986  1.00  0.00     0.164 HD
ENDROOT
BRANCH  11  14
HETATM   14  N5  UNL     1     -22.456 -18.320 -20.276  1.00  0.00    -0.314 N 
HETATM   15  C6  UNL     1     -21.499 -19.126 -19.582  1.00  0.00     0.149 C 
HETATM   16  C7  UNL     1     -22.275 -19.588 -18.345  1.00  0.00     0.142 C 
HETATM   17  N6  UNL     1     -23.636 -19.457 -18.755  1.00  0.00    -0.363 N 
HETATM   18  C8  UNL     1     -23.729 -18.757 -19.822  1.00  0.00     0.189 C 
ATOM     19  H6  UNL     1     -24.429 -19.867 -18.262  1.00  0.00     0.162 HD
HETATM   20  N7  UNL     1     -24.999 -18.461 -20.465  1.00  0.00    -0.064 NA
ENDBRANCH  11  14
BRANCH   1  21
HETATM   21  C2  UNL     1     -25.109 -14.958 -22.060  1.00  0.00     0.073 C 
HETATM   22  C1  UNL     1     -25.215 -14.273 -23.398  1.00  0.00     0.013 C 
ENDBRANCH   1  21
BRANCH   6  23
HETATM   23  O1  UNL     1     -22.407 -20.454 -24.811  1.00  0.00    -0.276 OA
ATOM     24  H1  UNL     1     -22.256 -20.347 -25.742  1.00  0.00     0.245 HD
ENDBRANCH   6  23
TORSDOF 3
ENDMDL
MODEL 2
REMARK VINA RESULT: -7.445483221      0.912      1.474
REMARK  3 active torsions:
REMARK  status: ('A' for Active; 'I' for Inactive)
REMARK    1  A    between atoms: C2_2  and  C3_3 
REMARK       I    between atoms: N2_6  and  C4_7 
REMARK       I    between atoms: C4_7  and  N4_12 
REMARK    2  A    between atoms: N3_8  and  O1_10 
REMARK    3  A    between atoms: C5_15  and  N5_16 
ROOT
HETATM    1  C3  UNL     1     -24.357 -15.642 -22.187  1.00  0.00     0.095 A 
HETATM    2  N1  UNL     1     -24.006 -16.569 -23.003  1.00  0.00    -0.269 N 
ATOM      3  H1  UNL     1     -24.450 -16.741 -23.905  1.00  0.00     0.189 HD
HETATM    4  N2  UNL     1     -22.941 -17.307 -22.498  1.00  0.00    -0.078 N 
HETATM    5  C4  UNL     1     -22.347 -18.405 -23.152  1.00  0.00     0.728 C 
HETATM    6  N3  UNL     1     -23.114 -19.325 -23.682  1.00  0.00    -0.096 N 
ATOM      7  H3  UNL     1     -24.125 -19.219 -23.604  1.00  0.00     0.213 HD
HETATM    8  N4  UNL     1     -20.953 -18.593 -23.284  1.00  0.00    -0.150 N 
ATOM      9  H4  UNL     1     -20.421 -18.852 -22.454  1.00  0.00     0.193 HD
HETATM   10  S1  UNL     1     -20.090 -18.406 -24.801  1.00  0.00     0.058 SA
HETATM   11  C5  UNL     1     -22.579 -16.759 -21.238  1.00  0.00     0.336 A 
HETATM   12  N8  UNL     1     -23.526 -15.678 -21.020  1.00  0.00    -0.339 N 
ATOM     13  H8  UNL     1     -23.586 -15.070 -20.203  1.00  0.00     0.164 HD
ENDROOT
BRANCH  11  14
HETATM   14  N5  UNL     1     -22.706 -17.669 -20.134  1.00  0.00    -0.314 N 
HETATM   15  C6  UNL     1     -23.700 -17.799 -19.114  1.00  0.00     0.149 C 
HETATM   16  C7  UNL     1     -23.539 -19.255 -18.665  1.00  0.00     0.142 C 
HETATM   17  N6  UNL     1     -22.203 -19.566 -19.063  1.00  0.00    -0.363 N 
HETATM   18  C8  UNL     1     -21.749 -18.686 -19.873  1.00  0.00     0.189 C 
ATOM     19  H6  UNL     1     -21.681 -20.382 -18.743  1.00  0.00     0.162 HD
HETATM   20  N7  UNL     1     -20.412 -18.751 -20.440  1.00  0.00    -0.064 NA
ENDBRANCH  11  14
BRANCH   1  21
HETATM   21  C2  UNL     1     -25.440 -14.647 -22.351  1.00  0.00     0.073 C 
HETATM   22  C1  UNL     1     -25.351 -13.904 -23.659  1.00  0.00     0.013 C 
ENDBRANCH   1  21
BRANCH   6  23
HETATM   23  O1  UNL     1     -22.624 -20.411 -24.329  1.00  0.00    -0.276 OA
ATOM     24  H1  UNL     1     -22.252 -20.368 -25.201  1.00  0.00     0.245 HD
ENDBRANCH   6  23
TORSDOF 3
ENDMDL
MODEL 3
REMARK VINA RESULT: -4.697683800      2.695      4.210
REMARK  3 active torsions:
REMARK  status: ('A' for Active; 'I' for Inactive)
REMARK    1  A    between atoms: C2_2  and  C3_3 
REMARK       I    between atoms: N2_6  and  C4_7 
REMARK       I    between atoms: C4_7  and  N4_12 
REMARK    2  A    between atoms: N3_8  and  O1_10 
REMARK    3  A    between atoms: C5_15  and  N5_16 
ROOT
HETATM    1  C3  UNL     1     -23.728 -15.613 -22.613  1.00  0.00     0.095 A 
HETATM    2  N1  UNL     1     -23.046 -16.028 -21.608  1.00  0.00    -0.269 N 
ATOM      3  H1  UNL     1     -22.720 -15.432 -20.846  1.00  0.00     0.189 HD
HETATM    4  N2  UNL     1     -22.809 -17.396 -21.691  1.00  0.00    -0.078 N 
HETATM    5  C4  UNL     1     -22.069 -18.138 -20.748  1.00  0.00     0.728 C 
HETATM    6  N3  UNL     1     -20.923 -17.669 -20.322  1.00  0.00    -0.096 N 
ATOM      7  H3  UNL     1     -20.597 -16.775 -20.687  1.00  0.00     0.213 HD
HETATM    8  N4  UNL     1     -22.480 -19.381 -20.215  1.00  0.00    -0.150 N 
ATOM      9  H4  UNL     1     -22.452 -20.199 -20.822  1.00  0.00     0.193 HD
HETATM   10  S1  UNL     1     -23.037 -19.589 -18.563  1.00  0.00     0.058 SA
HETATM   11  C5  UNL     1     -23.435 -17.884 -22.870  1.00  0.00     0.336 A 
HETATM   12  N8  UNL     1     -24.019 -16.708 -23.491  1.00  0.00    -0.339 N 
ATOM     13  H8  UNL     1     -24.532 -16.670 -24.372  1.00  0.00     0.164 HD
ENDROOT
BRANCH  11  14
HETATM   14  N5  UNL     1     -22.534 -18.470 -23.823  1.00  0.00    -0.314 N 
HETATM   15  C6  UNL     1     -21.542 -17.895 -24.677  1.00  0.00     0.149 C 
HETATM   16  C7  UNL     1     -20.606 -19.075 -24.956  1.00  0.00     0.142 C 
HETATM   17  N6  UNL     1     -21.437 -20.208 -24.703  1.00  0.00    -0.363 N 
HETATM   18  C8  UNL     1     -22.500 -19.867 -24.078  1.00  0.00     0.189 C 
ATOM     19  H6  UNL     1     -21.213 -21.163 -24.984  1.00  0.00     0.162 HD
HETATM   20  N7  UNL     1     -23.528 -20.820 -23.690  1.00  0.00    -0.064 NA
ENDBRANCH  11  14
BRANCH   1  21
HETATM   21  C2  UNL     1     -24.185 -14.234 -22.896  1.00  0.00     0.073 C 
HETATM   22  C1  UNL     1     -25.654 -14.167 -23.226  1.00  0.00     0.013 C 
ENDBRANCH   1  21
BRANCH   6  23
HETATM   23  O1  UNL     1     -20.151 -18.319 -19.416  1.00  0.00    -0.276 OA
ATOM     24  H1  UNL     1     -19.980 -17.981 -18.546  1.00  0.00     0.245 HD
ENDBRANCH   6  23
TORSDOF 3
ENDMDL
MODEL 4
REMARK VINA RESULT: -4.169575442      2.650      4.378
REMARK  3 active torsions:
REMARK  status: ('A' for Active; 'I' for Inactive)
REMARK    1  A    between atoms: C2_2  and  C3_3 
REMARK       I    between atoms: N2_6  and  C4_7 
REMARK       I    between atoms: C4_7  and  N4_12 
REMARK    2  A    between atoms: N3_8  and  O1_10 
REMARK    3  A    between atoms: C5_15  and  N5_16 
ROOT
HETATM    1  C3  UNL     1     -23.525 -16.021 -22.698  1.00  0.00     0.095 A 
HETATM    2  N1  UNL     1     -22.825 -16.392 -21.688  1.00  0.00    -0.269 N 
ATOM      3  H1  UNL     1     -22.383 -15.753 -21.027  1.00  0.00     0.189 HD
HETATM    4  N2  UNL     1     -22.748 -17.779 -21.611  1.00  0.00    -0.078 N 
HETATM    5  C4  UNL     1     -22.031 -18.486 -20.625  1.00  0.00     0.728 C 
HETATM    6  N3  UNL     1     -20.813 -18.109 -20.325  1.00  0.00    -0.096 N 
ATOM      7  H3  UNL     1     -20.416 -17.310 -20.818  1.00  0.00     0.213 HD
HETATM    8  N4  UNL     1     -22.540 -19.599 -19.918  1.00  0.00    -0.150 N 
ATOM      9  H4  UNL     1     -22.645 -20.481 -20.418  1.00  0.00     0.193 HD
HETATM   10  S1  UNL     1     -22.999 -19.542 -18.225  1.00  0.00     0.058 SA
HETATM   11  C5  UNL     1     -23.504 -18.325 -22.683  1.00  0.00     0.336 A 
HETATM   12  N8  UNL     1     -23.997 -17.170 -23.414  1.00  0.00    -0.339 N 
ATOM     13  H8  UNL     1     -24.562 -17.176 -24.263  1.00  0.00     0.164 HD
ENDROOT
BRANCH  11  14
HETATM   14  N5  UNL     1     -22.743 -19.123 -23.603  1.00  0.00    -0.314 N 
HETATM   15  C6  UNL     1     -23.075 -20.298 -24.348  1.00  0.00     0.149 C 
HETATM   16  C7  UNL     1     -22.073 -20.263 -25.506  1.00  0.00     0.142 C 
HETATM   17  N6  UNL     1     -21.022 -19.445 -24.993  1.00  0.00    -0.363 N 
HETATM   18  C8  UNL     1     -21.398 -18.819 -23.942  1.00  0.00     0.189 C 
ATOM     19  H6  UNL     1     -20.093 -19.369 -25.409  1.00  0.00     0.162 HD
HETATM   20  N7  UNL     1     -20.529 -17.912 -23.209  1.00  0.00    -0.064 NA
ENDBRANCH  11  14
BRANCH   1  21
HETATM   21  C2  UNL     1     -23.844 -14.641 -23.127  1.00  0.00     0.073 C 
HETATM   22  C1  UNL     1     -25.304 -14.305 -22.958  1.00  0.00     0.013 C 
ENDBRANCH   1  21
BRANCH   6  23
HETATM   23  O1  UNL     1     -20.057 -18.735 -19.389  1.00  0.00    -0.276 OA
ATOM     24  H1  UNL     1     -20.189 -18.617 -18.456  1.00  0.00     0.245 HD
ENDBRANCH   6  23
TORSDOF 3
ENDMDL
MODEL 5
REMARK VINA RESULT: -4.169162997      1.718      4.216
REMARK  3 active torsions:
REMARK  status: ('A' for Active; 'I' for Inactive)
REMARK    1  A    between atoms: C2_2  and  C3_3 
REMARK       I    between atoms: N2_6  and  C4_7 
REMARK       I    between atoms: C4_7  and  N4_12 
REMARK    2  A    between atoms: N3_8  and  O1_10 
REMARK    3  A    between atoms: C5_15  and  N5_16 
ROOT
HETATM    1  C3  UNL     1     -22.156 -19.153 -20.668  1.00  0.00     0.095 A 
HETATM    2  N1  UNL     1     -21.287 -19.134 -21.614  1.00  0.00    -0.269 N 
ATOM      3  H1  UNL     1     -20.322 -19.451 -21.517  1.00  0.00     0.189 HD
HETATM    4  N2  UNL     1     -21.833 -18.626 -22.788  1.00  0.00    -0.078 N 
HETATM    5  C4  UNL     1     -21.122 -18.459 -23.993  1.00  0.00     0.728 C 
HETATM    6  N3  UNL     1     -19.932 -17.913 -23.964  1.00  0.00    -0.096 N 
ATOM      7  H3  UNL     1     -19.553 -17.621 -23.064  1.00  0.00     0.213 HD
HETATM    8  N4  UNL     1     -21.607 -18.847 -25.262  1.00  0.00    -0.150 N 
ATOM      9  H4  UNL     1     -22.361 -18.301 -25.678  1.00  0.00     0.193 HD
HETATM   10  S1  UNL     1     -20.981 -20.219 -26.160  1.00  0.00     0.058 SA
HETATM   11  C5  UNL     1     -23.198 -18.318 -22.545  1.00  0.00     0.336 A 
HETATM   12  N8  UNL     1     -23.407 -18.640 -21.144  1.00  0.00    -0.339 N 
ATOM     13  H8  UNL     1     -24.267 -18.526 -20.608  1.00  0.00     0.164 HD
ENDROOT
BRANCH  11  14
HETATM   14  N5  UNL     1     -23.536 -16.933 -22.721  1.00  0.00    -0.314 N 
HETATM   15  C6  UNL     1     -24.082 -16.217 -23.833  1.00  0.00     0.149 C 
HETATM   16  C7  UNL     1     -24.711 -14.986 -23.171  1.00  0.00     0.142 C 
HETATM   17  N6  UNL     1     -24.002 -14.892 -21.936  1.00  0.00    -0.363 N 
HETATM   18  C8  UNL     1     -23.355 -15.968 -21.693  1.00  0.00     0.189 C 
ATOM     19  H6  UNL     1     -24.010 -14.073 -21.327  1.00  0.00     0.162 HD
HETATM   20  N7  UNL     1     -22.543 -16.151 -20.500  1.00  0.00    -0.064 NA
ENDBRANCH  11  14
BRANCH   1  21
HETATM   21  C2  UNL     1     -21.974 -19.617 -19.275  1.00  0.00     0.073 C 
HETATM   22  C1  UNL     1     -23.118 -19.219 -18.378  1.00  0.00     0.013 C 
ENDBRANCH   1  21
BRANCH   6  23
HETATM   23  O1  UNL     1     -19.183 -17.718 -25.077  1.00  0.00    -0.276 OA
ATOM     24  H1  UNL     1     -18.241 -17.599 -25.051  1.00  0.00     0.245 HD
ENDBRANCH   6  23
TORSDOF 3
ENDMDL
