MODEL 1
REMARK VINA RESULT: -6.450964981      0.000      0.000
REMARK  11 active torsions:
REMARK  status: ('A' for Active; 'I' for Inactive)
REMARK    1  A    between atoms: C2_2  and  N1_3 
REMARK    2  A    between atoms: C2_2  and  C3_7 
REMARK    3  A    between atoms: C3_7  and  C4_8 
REMARK       I    between atoms: N2_10  and  C6_11 
REMARK    4  A    between atoms: C6_11  and  C7_13 
REMARK    5  A    between atoms: C7_13  and  C8_14 
REMARK    6  A    between atoms: C8_14  and  C9_15 
REMARK    7  A    between atoms: C9_15  and  C10_16 
REMARK    8  A    between atoms: C10_16  and  O2_17 
REMARK    9  A    between atoms: N3_19  and  O3_21 
REMARK   10  A    between atoms: N4_27  and  C13_28 
REMARK   11  A    between atoms: C13_28  and  C14_29 
ROOT
HETATM    1  C4  UNL     1      35.671  43.910  14.156  1.00  0.00     0.115 C 
HETATM    2  C5  UNL     1      34.520  43.283  13.410  1.00  0.00     0.064 C 
HETATM    3  N2  UNL     1      35.289  44.600  15.333  1.00  0.00    -0.316 N 
HETATM    4  C6  UNL     1      33.999  44.985  15.762  1.00  0.00     0.222 C 
HETATM    5  O1  UNL     1      33.950  45.570  16.915  1.00  0.00    -0.273 OA
HETATM    6  C11 UNL     1      36.335  45.049  16.307  1.00  0.00     0.210 C 
HETATM    7  S1  UNL     1      37.726  45.691  15.339  1.00  0.00    -0.080 SA
HETATM    8  C12 UNL     1      37.021  45.910  13.726  1.00  0.00     0.144 C 
HETATM    9  S2  UNL     1      37.177  47.330  13.003  1.00  0.00    -0.052 SA
HETATM   10  N4  UNL     1      36.347  44.819  13.163  1.00  0.00    -0.314 N 
ENDROOT
BRANCH   1  11
HETATM   11  C3  UNL     1      36.665  42.783  14.318  1.00  0.00     0.086 C 
BRANCH  11  12
HETATM   12  C2  UNL     1      36.105  41.411  14.388  1.00  0.00     0.183 C 
HETATM   13  C1  UNL     1      36.917  40.478  13.465  1.00  0.00     0.040 C 
BRANCH  12  14
HETATM   14  N1  UNL     1      36.083  40.795  15.675  1.00  0.00    -0.075 N 
ATOM     15  H13 UNL     1      35.693  39.853  15.663  1.00  0.00     0.274 HD
ATOM     16  H12 UNL     1      37.011  40.545  16.018  1.00  0.00     0.274 HD
ATOM     17  H11 UNL     1      35.583  41.431  16.295  1.00  0.00     0.274 HD
ENDBRANCH  12  14
ENDBRANCH  11  12
ENDBRANCH   1  11
BRANCH   4  18
HETATM   18  C7  UNL     1      32.692  44.843  15.127  1.00  0.00     0.103 C 
BRANCH  18  19
HETATM   19  C8  UNL     1      31.728  44.024  16.001  1.00  0.00     0.017 C 
BRANCH  19  20
HETATM   20  C9  UNL     1      32.393  42.668  16.191  1.00  0.00     0.086 C 
BRANCH  20  21
HETATM   21  C10 UNL     1      32.454  42.274  17.602  1.00  0.00     0.135 C 
HETATM   22  N3  UNL     1      32.106  41.091  17.954  1.00  0.00    -0.251 N 
ATOM     23  H3  UNL     1      32.148  40.815  18.935  1.00  0.00     0.196 HD
BRANCH  21  24
HETATM   24  O2  UNL     1      32.890  43.179  18.548  1.00  0.00    -0.348 OA
ATOM     25  H2  UNL     1      33.276  42.866  19.358  1.00  0.00     0.219 HD
ENDBRANCH  21  24
BRANCH  22  26
HETATM   26  O3  UNL     1      31.678  40.206  17.013  1.00  0.00    -0.288 OA
ATOM     27  H3  UNL     1      30.862  39.737  17.144  1.00  0.00     0.244 HD
ENDBRANCH  22  26
ENDBRANCH  20  21
ENDBRANCH  19  20
ENDBRANCH  18  19
ENDBRANCH   4  18
BRANCH  10  28
HETATM   28  C13 UNL     1      36.249  44.514  11.779  1.00  0.00     0.106 C 
BRANCH  28  29
HETATM   29  C14 UNL     1      37.188  43.575  11.201  1.00  0.00    -0.020 A 
HETATM   30  C15 UNL     1      36.734  42.487  10.500  1.00  0.00     0.014 A 
HETATM   31  C16 UNL     1      37.567  41.537   9.936  1.00  0.00     0.020 A 
HETATM   32  C17 UNL     1      38.929  41.723  10.110  1.00  0.00     0.011 A 
HETATM   33 BR1  UNL     1      40.108  40.422   9.340  1.00  0.00    -0.051 Br
HETATM   34  C18 UNL     1      39.436  42.791  10.802  1.00  0.00     0.020 A 
HETATM   35  C19 UNL     1      38.543  43.719  11.347  1.00  0.00     0.014 A 
ENDBRANCH  28  29
ENDBRANCH  10  28
TORSDOF 11
ENDMDL
MODEL 2
REMARK VINA RESULT: -6.374259523      4.295      7.032
REMARK  11 active torsions:
REMARK  status: ('A' for Active; 'I' for Inactive)
REMARK    1  A    between atoms: C2_2  and  N1_3 
REMARK    2  A    between atoms: C2_2  and  C3_7 
REMARK    3  A    between atoms: C3_7  and  C4_8 
REMARK       I    between atoms: N2_10  and  C6_11 
REMARK    4  A    between atoms: C6_11  and  C7_13 
REMARK    5  A    between atoms: C7_13  and  C8_14 
REMARK    6  A    between atoms: C8_14  and  C9_15 
REMARK    7  A    between atoms: C9_15  and  C10_16 
REMARK    8  A    between atoms: C10_16  and  O2_17 
REMARK    9  A    between atoms: N3_19  and  O3_21 
REMARK   10  A    between atoms: N4_27  and  C13_28 
REMARK   11  A    between atoms: C13_28  and  C14_29 
ROOT
HETATM    1  C4  UNL     1      36.432  43.621  13.112  1.00  0.00     0.115 C 
HETATM    2  C5  UNL     1      35.688  43.010  11.951  1.00  0.00     0.064 C 
HETATM    3  N2  UNL     1      37.711  43.056  13.339  1.00  0.00    -0.316 N 
HETATM    4  C6  UNL     1      38.271  41.872  12.808  1.00  0.00     0.222 C 
HETATM    5  O1  UNL     1      39.490  41.628  13.162  1.00  0.00    -0.273 OA
HETATM    6  C11 UNL     1      38.664  43.723  14.282  1.00  0.00     0.210 C 
HETATM    7  S1  UNL     1      37.698  44.285  15.710  1.00  0.00    -0.080 SA
HETATM    8  C12 UNL     1      36.178  43.388  15.539  1.00  0.00     0.144 C 
HETATM    9  S2  UNL     1      35.637  42.543  16.786  1.00  0.00    -0.052 SA
HETATM   10  N4  UNL     1      35.523  43.458  14.302  1.00  0.00    -0.314 N 
ENDROOT
BRANCH   1  11
HETATM   11  C3  UNL     1      36.380  45.108  12.844  1.00  0.00     0.086 C 
BRANCH  11  12
HETATM   12  C2  UNL     1      37.015  45.576  11.588  1.00  0.00     0.183 C 
HETATM   13  C1  UNL     1      36.245  46.802  11.050  1.00  0.00     0.040 C 
BRANCH  12  14
HETATM   14  N1  UNL     1      38.387  45.960  11.671  1.00  0.00    -0.075 N 
ATOM     15  H13 UNL     1      39.020  45.168  11.788  1.00  0.00     0.274 HD
ATOM     16  H12 UNL     1      38.766  46.297  10.786  1.00  0.00     0.274 HD
ATOM     17  H11 UNL     1      38.454  46.644  12.424  1.00  0.00     0.274 HD
ENDBRANCH  12  14
ENDBRANCH  11  12
ENDBRANCH   1  11
BRANCH   4  18
HETATM   18  C7  UNL     1      37.710  40.858  11.920  1.00  0.00     0.103 C 
BRANCH  18  19
HETATM   19  C8  UNL     1      37.096  39.693  12.713  1.00  0.00     0.017 C 
BRANCH  19  20
HETATM   20  C9  UNL     1      36.845  38.587  11.697  1.00  0.00     0.086 C 
BRANCH  20  21
HETATM   21  C10 UNL     1      37.890  37.561  11.724  1.00  0.00     0.135 C 
HETATM   22  N3  UNL     1      37.771  36.543  12.495  1.00  0.00    -0.251 N 
ATOM     23  H3  UNL     1      38.497  35.827  12.515  1.00  0.00     0.196 HD
BRANCH  21  24
HETATM   24  O2  UNL     1      39.002  37.693  10.917  1.00  0.00    -0.348 OA
ATOM     25  H2  UNL     1      39.291  36.959  10.387  1.00  0.00     0.219 HD
ENDBRANCH  21  24
BRANCH  22  26
HETATM   26  O3  UNL     1      36.670  36.421  13.286  1.00  0.00    -0.288 OA
ATOM     27  H3  UNL     1      36.640  36.873  14.122  1.00  0.00     0.244 HD
ENDBRANCH  22  26
ENDBRANCH  20  21
ENDBRANCH  19  20
ENDBRANCH  18  19
ENDBRANCH   4  18
BRANCH  10  28
HETATM   28  C13 UNL     1      34.121  43.385  14.088  1.00  0.00     0.106 C 
BRANCH  28  29
HETATM   29  C14 UNL     1      33.255  44.294  14.810  1.00  0.00    -0.020 A 
HETATM   30  C15 UNL     1      32.127  43.824  15.434  1.00  0.00     0.014 A 
HETATM   31  C16 UNL     1      31.241  44.632  16.126  1.00  0.00     0.020 A 
HETATM   32  C17 UNL     1      31.539  45.984  16.171  1.00  0.00     0.011 A 
HETATM   33 BR1  UNL     1      30.330  47.128  17.123  1.00  0.00    -0.051 Br
HETATM   34  C18 UNL     1      32.651  46.506  15.565  1.00  0.00     0.020 A 
HETATM   35  C19 UNL     1      33.510  45.639  14.882  1.00  0.00     0.014 A 
ENDBRANCH  28  29
ENDBRANCH  10  28
TORSDOF 11
ENDMDL
MODEL 3
REMARK VINA RESULT: -6.289128391      4.656      7.629
REMARK  11 active torsions:
REMARK  status: ('A' for Active; 'I' for Inactive)
REMARK    1  A    between atoms: C2_2  and  N1_3 
REMARK    2  A    between atoms: C2_2  and  C3_7 
REMARK    3  A    between atoms: C3_7  and  C4_8 
REMARK       I    between atoms: N2_10  and  C6_11 
REMARK    4  A    between atoms: C6_11  and  C7_13 
REMARK    5  A    between atoms: C7_13  and  C8_14 
REMARK    6  A    between atoms: C8_14  and  C9_15 
REMARK    7  A    between atoms: C9_15  and  C10_16 
REMARK    8  A    between atoms: C10_16  and  O2_17 
REMARK    9  A    between atoms: N3_19  and  O3_21 
REMARK   10  A    between atoms: N4_27  and  C13_28 
REMARK   11  A    between atoms: C13_28  and  C14_29 
ROOT
HETATM    1  C4  UNL     1      36.406  43.749  13.221  1.00  0.00     0.115 C 
HETATM    2  C5  UNL     1      35.694  43.375  11.945  1.00  0.00     0.064 C 
HETATM    3  N2  UNL     1      37.704  43.193  13.342  1.00  0.00    -0.316 N 
HETATM    4  C6  UNL     1      38.310  42.170  12.579  1.00  0.00     0.222 C 
HETATM    5  O1  UNL     1      39.535  41.897  12.891  1.00  0.00    -0.273 OA
HETATM    6  C11 UNL     1      38.625  43.676  14.419  1.00  0.00     0.210 C 
HETATM    7  S1  UNL     1      37.628  43.886  15.919  1.00  0.00    -0.080 SA
HETATM    8  C12 UNL     1      36.144  42.995  15.538  1.00  0.00     0.144 C 
HETATM    9  S2  UNL     1      35.624  41.885  16.568  1.00  0.00    -0.052 SA
HETATM   10  N4  UNL     1      35.495  43.305  14.335  1.00  0.00    -0.314 N 
ENDROOT
BRANCH   1  11
HETATM   11  C3  UNL     1      36.303  45.256  13.275  1.00  0.00     0.086 C 
BRANCH  11  12
HETATM   12  C2  UNL     1      36.687  45.991  12.046  1.00  0.00     0.183 C 
HETATM   13  C1  UNL     1      35.889  47.310  11.965  1.00  0.00     0.040 C 
BRANCH  12  14
HETATM   14  N1  UNL     1      38.065  46.338  11.914  1.00  0.00    -0.075 N 
ATOM     15  H13 UNL     1      38.222  47.344  11.843  1.00  0.00     0.274 HD
ATOM     16  H12 UNL     1      38.602  46.185  12.768  1.00  0.00     0.274 HD
ATOM     17  H11 UNL     1      38.423  45.817  11.115  1.00  0.00     0.274 HD
ENDBRANCH  12  14
ENDBRANCH  11  12
ENDBRANCH   1  11
BRANCH   4  18
HETATM   18  C7  UNL     1      37.794  41.350  11.487  1.00  0.00     0.103 C 
BRANCH  18  19
HETATM   19  C8  UNL     1      38.415  41.750  10.139  1.00  0.00     0.017 C 
BRANCH  19  20
HETATM   20  C9  UNL     1      38.958  40.462   9.535  1.00  0.00     0.086 C 
BRANCH  20  21
HETATM   21  C10 UNL     1      40.244  40.074  10.120  1.00  0.00     0.135 C 
HETATM   22  N3  UNL     1      40.551  38.834  10.232  1.00  0.00    -0.251 N 
ATOM     23  H3  UNL     1      41.446  38.561  10.638  1.00  0.00     0.196 HD
BRANCH  21  24
HETATM   24  O2  UNL     1      41.124  41.047  10.548  1.00  0.00    -0.348 OA
ATOM     25  H2  UNL     1      40.859  41.658  11.227  1.00  0.00     0.219 HD
ENDBRANCH  21  24
BRANCH  22  26
HETATM   26  O3  UNL     1      39.677  37.882   9.805  1.00  0.00    -0.288 OA
ATOM     27  H3  UNL     1      39.875  37.377   9.026  1.00  0.00     0.244 HD
ENDBRANCH  22  26
ENDBRANCH  20  21
ENDBRANCH  19  20
ENDBRANCH  18  19
ENDBRANCH   4  18
BRANCH  10  28
HETATM   28  C13 UNL     1      34.098  43.232  14.089  1.00  0.00     0.106 C 
BRANCH  28  29
HETATM   29  C14 UNL     1      33.200  44.005  14.922  1.00  0.00    -0.020 A 
HETATM   30  C15 UNL     1      32.397  43.376  15.840  1.00  0.00     0.014 A 
HETATM   31  C16 UNL     1      31.501  44.042  16.657  1.00  0.00     0.020 A 
HETATM   32  C17 UNL     1      31.434  45.419  16.513  1.00  0.00     0.011 A 
HETATM   33 BR1  UNL     1      30.201  46.369  17.632  1.00  0.00    -0.051 Br
HETATM   34  C18 UNL     1      32.213  46.096  15.613  1.00  0.00     0.020 A 
HETATM   35  C19 UNL     1      33.102  45.367  14.815  1.00  0.00     0.014 A 
ENDBRANCH  28  29
ENDBRANCH  10  28
TORSDOF 11
ENDMDL
MODEL 4
REMARK VINA RESULT: -6.223626972      4.703      7.546
REMARK  11 active torsions:
REMARK  status: ('A' for Active; 'I' for Inactive)
REMARK    1  A    between atoms: C2_2  and  N1_3 
REMARK    2  A    between atoms: C2_2  and  C3_7 
REMARK    3  A    between atoms: C3_7  and  C4_8 
REMARK       I    between atoms: N2_10  and  C6_11 
REMARK    4  A    between atoms: C6_11  and  C7_13 
REMARK    5  A    between atoms: C7_13  and  C8_14 
REMARK    6  A    between atoms: C8_14  and  C9_15 
REMARK    7  A    between atoms: C9_15  and  C10_16 
REMARK    8  A    between atoms: C10_16  and  O2_17 
REMARK    9  A    between atoms: N3_19  and  O3_21 
REMARK   10  A    between atoms: N4_27  and  C13_28 
REMARK   11  A    between atoms: C13_28  and  C14_29 
ROOT
HETATM    1  C4  UNL     1      36.371  43.612  13.089  1.00  0.00     0.115 C 
HETATM    2  C5  UNL     1      35.625  43.113  11.877  1.00  0.00     0.064 C 
HETATM    3  N2  UNL     1      37.623  42.981  13.297  1.00  0.00    -0.316 N 
HETATM    4  C6  UNL     1      38.146  41.815  12.694  1.00  0.00     0.222 C 
HETATM    5  O1  UNL     1      39.348  41.498  13.050  1.00  0.00    -0.273 OA
HETATM    6  C11 UNL     1      38.583  43.543  14.299  1.00  0.00     0.210 C 
HETATM    7  S1  UNL     1      37.614  44.043  15.747  1.00  0.00    -0.080 SA
HETATM    8  C12 UNL     1      36.063  43.222  15.490  1.00  0.00     0.144 C 
HETATM    9  S2  UNL     1      35.466  42.316  16.666  1.00  0.00    -0.052 SA
HETATM   10  N4  UNL     1      35.434  43.404  14.250  1.00  0.00    -0.314 N 
ENDROOT
BRANCH   1  11
HETATM   11  C3  UNL     1      36.383  45.114  12.925  1.00  0.00     0.086 C 
BRANCH  11  12
HETATM   12  C2  UNL     1      36.979  45.638  11.672  1.00  0.00     0.183 C 
HETATM   13  C1  UNL     1      36.206  46.896  11.222  1.00  0.00     0.040 C 
BRANCH  12  14
HETATM   14  N1  UNL     1      38.358  46.004  11.726  1.00  0.00    -0.075 N 
ATOM     15  H13 UNL     1      38.888  45.475  12.418  1.00  0.00     0.274 HD
ATOM     16  H12 UNL     1      38.886  45.706  10.906  1.00  0.00     0.274 HD
ATOM     17  H11 UNL     1      38.387  47.011  11.879  1.00  0.00     0.274 HD
ENDBRANCH  12  14
ENDBRANCH  11  12
ENDBRANCH   1  11
BRANCH   4  18
HETATM   18  C7  UNL     1      37.562  40.888  11.729  1.00  0.00     0.103 C 
BRANCH  18  19
HETATM   19  C8  UNL     1      38.046  39.448  11.967  1.00  0.00     0.017 C 
BRANCH  19  20
HETATM   20  C9  UNL     1      38.744  39.028  10.682  1.00  0.00     0.086 C 
BRANCH  20  21
HETATM   21  C10 UNL     1      40.045  39.683  10.517  1.00  0.00     0.135 C 
HETATM   22  N3  UNL     1      40.258  40.442   9.506  1.00  0.00    -0.251 N 
ATOM     23  H3  UNL     1      41.163  40.899   9.389  1.00  0.00     0.196 HD
BRANCH  21  24
HETATM   24  O2  UNL     1      41.037  39.480  11.454  1.00  0.00    -0.348 OA
ATOM     25  H2  UNL     1      41.091  40.048  12.215  1.00  0.00     0.219 HD
ENDBRANCH  21  24
BRANCH  22  26
HETATM   26  O3  UNL     1      39.272  40.635   8.588  1.00  0.00    -0.288 OA
ATOM     27  H3  UNL     1      39.498  40.756   7.673  1.00  0.00     0.244 HD
ENDBRANCH  22  26
ENDBRANCH  20  21
ENDBRANCH  19  20
ENDBRANCH  18  19
ENDBRANCH   4  18
BRANCH  10  28
HETATM   28  C13 UNL     1      34.035  43.403  14.010  1.00  0.00     0.106 C 
BRANCH  28  29
HETATM   29  C14 UNL     1      33.193  44.303  14.770  1.00  0.00    -0.020 A 
HETATM   30  C15 UNL     1      32.081  43.828  15.416  1.00  0.00     0.014 A 
HETATM   31  C16 UNL     1      31.218  44.628  16.145  1.00  0.00     0.020 A 
HETATM   32  C17 UNL     1      31.524  45.978  16.205  1.00  0.00     0.011 A 
HETATM   33 BR1  UNL     1      30.346  47.112  17.208  1.00  0.00    -0.051 Br
HETATM   34  C18 UNL     1      32.622  46.505  15.578  1.00  0.00     0.020 A 
HETATM   35  C19 UNL     1      33.457  45.645  14.857  1.00  0.00     0.014 A 
ENDBRANCH  28  29
ENDBRANCH  10  28
TORSDOF 11
ENDMDL
MODEL 5
REMARK VINA RESULT: -5.918761059      1.419      1.732
REMARK  11 active torsions:
REMARK  status: ('A' for Active; 'I' for Inactive)
REMARK    1  A    between atoms: C2_2  and  N1_3 
REMARK    2  A    between atoms: C2_2  and  C3_7 
REMARK    3  A    between atoms: C3_7  and  C4_8 
REMARK       I    between atoms: N2_10  and  C6_11 
REMARK    4  A    between atoms: C6_11  and  C7_13 
REMARK    5  A    between atoms: C7_13  and  C8_14 
REMARK    6  A    between atoms: C8_14  and  C9_15 
REMARK    7  A    between atoms: C9_15  and  C10_16 
REMARK    8  A    between atoms: C10_16  and  O2_17 
REMARK    9  A    between atoms: N3_19  and  O3_21 
REMARK   10  A    between atoms: N4_27  and  C13_28 
REMARK   11  A    between atoms: C13_28  and  C14_29 
ROOT
HETATM    1  C4  UNL     1      35.631  43.889  14.135  1.00  0.00     0.115 C 
HETATM    2  C5  UNL     1      34.514  43.245  13.353  1.00  0.00     0.064 C 
HETATM    3  N2  UNL     1      35.202  44.570  15.301  1.00  0.00    -0.316 N 
HETATM    4  C6  UNL     1      33.894  44.935  15.690  1.00  0.00     0.222 C 
HETATM    5  O1  UNL     1      33.799  45.516  16.842  1.00  0.00    -0.273 OA
HETATM    6  C11 UNL     1      36.210  45.034  16.307  1.00  0.00     0.210 C 
HETATM    7  S1  UNL     1      37.620  45.700  15.383  1.00  0.00    -0.080 SA
HETATM    8  C12 UNL     1      36.962  45.911  13.750  1.00  0.00     0.144 C 
HETATM    9  S2  UNL     1      37.118  47.334  13.034  1.00  0.00    -0.052 SA
HETATM   10  N4  UNL     1      36.323  44.810  13.164  1.00  0.00    -0.314 N 
ENDROOT
BRANCH   1  11
HETATM   11  C3  UNL     1      36.637  42.777  14.327  1.00  0.00     0.086 C 
BRANCH  11  12
HETATM   12  C2  UNL     1      36.093  41.400  14.417  1.00  0.00     0.183 C 
HETATM   13  C1  UNL     1      36.891  40.470  13.478  1.00  0.00     0.040 C 
BRANCH  12  14
HETATM   14  N1  UNL     1      36.111  40.791  15.707  1.00  0.00    -0.075 N 
ATOM     15  H13 UNL     1      35.206  40.814  16.176  1.00  0.00     0.274 HD
ATOM     16  H12 UNL     1      36.211  39.776  15.673  1.00  0.00     0.274 HD
ATOM     17  H11 UNL     1      36.852  41.250  16.237  1.00  0.00     0.274 HD
ENDBRANCH  12  14
ENDBRANCH  11  12
ENDBRANCH   1  11
BRANCH   4  18
HETATM   18  C7  UNL     1      32.609  44.773  15.015  1.00  0.00     0.103 C 
BRANCH  18  19
HETATM   19  C8  UNL     1      31.581  45.805  15.506  1.00  0.00     0.017 C 
BRANCH  19  20
HETATM   20  C9  UNL     1      30.637  45.044  16.426  1.00  0.00     0.086 C 
BRANCH  20  21
HETATM   21  C10 UNL     1      30.528  45.668  17.747  1.00  0.00     0.135 C 
HETATM   22  N3  UNL     1      31.185  45.190  18.739  1.00  0.00    -0.251 N 
ATOM     23  H3  UNL     1      31.111  45.623  19.660  1.00  0.00     0.196 HD
BRANCH  21  24
HETATM   24  O2  UNL     1      29.717  46.771  17.920  1.00  0.00    -0.348 OA
ATOM     25  H2  UNL     1      29.964  47.446  18.542  1.00  0.00     0.219 HD
ENDBRANCH  21  24
BRANCH  22  26
HETATM   26  O3  UNL     1      31.983  44.102  18.558  1.00  0.00    -0.288 OA
ATOM     27  H3  UNL     1      32.920  44.179  18.689  1.00  0.00     0.244 HD
ENDBRANCH  22  26
ENDBRANCH  20  21
ENDBRANCH  19  20
ENDBRANCH  18  19
ENDBRANCH   4  18
BRANCH  10  28
HETATM   28  C13 UNL     1      36.273  44.506  11.778  1.00  0.00     0.106 C 
BRANCH  28  29
HETATM   29  C14 UNL     1      37.241  43.580  11.229  1.00  0.00    -0.020 A 
HETATM   30  C15 UNL     1      36.824  42.500  10.494  1.00  0.00     0.014 A 
HETATM   31  C16 UNL     1      37.687  41.562   9.954  1.00  0.00     0.020 A 
HETATM   32  C17 UNL     1      39.039  41.753  10.189  1.00  0.00     0.011 A 
HETATM   33 BR1  UNL     1      40.258  40.469   9.454  1.00  0.00    -0.051 Br
HETATM   34  C18 UNL     1      39.509  42.814  10.917  1.00  0.00     0.020 A 
HETATM   35  C19 UNL     1      38.588  43.730  11.436  1.00  0.00     0.014 A 
ENDBRANCH  28  29
ENDBRANCH  10  28
TORSDOF 11
ENDMDL
