MODEL 1
REMARK VINA RESULT: -4.888915610      0.000      0.000
REMARK  4 active torsions:
REMARK  status: ('A' for Active; 'I' for Inactive)
REMARK    1  A    between atoms: C1_2  and  C2_4 
REMARK    2  A    between atoms: C2_4  and  N1_5 
REMARK    3  A    between atoms: C2_4  and  C6_14 
REMARK    4  A    between atoms: N1_5  and  C3_7 
ROOT
HETATM    1  N1  UNL     1      -3.416  14.672 -16.126  1.00  0.00    -0.339 N 
ATOM      2  H1  UNL     1      -2.706  15.229 -15.651  1.00  0.00     0.164 HD
ENDROOT
BRANCH   1   3
HETATM    3  C2  UNL     1      -3.437  13.250 -15.889  1.00  0.00     0.287 C 
BRANCH   3   4
HETATM    4  C1  UNL     1      -2.504  12.627 -16.891  1.00  0.00     0.207 C 
HETATM    5  O1  UNL     1      -1.344  12.301 -16.537  1.00  0.00    -0.646 OA
HETATM    6  O2  UNL     1      -2.952  12.436 -18.179  1.00  0.00    -0.646 OA
ENDBRANCH   3   4
BRANCH   3   7
HETATM    7  C6  UNL     1      -2.975  12.873 -14.525  1.00  0.00     0.207 C 
HETATM    8  O3  UNL     1      -2.489  13.761 -13.791  1.00  0.00    -0.646 OA
HETATM    9  O4  UNL     1      -3.065  11.574 -14.040  1.00  0.00    -0.646 OA
ENDBRANCH   3   7
ENDBRANCH   1   3
BRANCH   1  10
HETATM   10  C3  UNL     1      -4.345  15.350 -16.997  1.00  0.00     0.172 A 
HETATM   11  N2  UNL     1      -5.348  16.063 -16.616  1.00  0.00    -0.361 N 
HETATM   12  C4  UNL     1      -6.089  16.606 -17.718  1.00  0.00     0.142 A 
ATOM     13  H2  UNL     1      -5.588  16.224 -15.638  1.00  0.00     0.162 HD
HETATM   14  C5  UNL     1      -5.334  16.215 -18.933  1.00  0.00     0.142 A 
HETATM   15  N3  UNL     1      -4.292  15.330 -18.397  1.00  0.00    -0.361 N 
ATOM     16  H3  UNL     1      -3.634  14.787 -18.956  1.00  0.00     0.162 HD
ENDBRANCH   1  10
TORSDOF 4
ENDMDL
MODEL 2
REMARK VINA RESULT: -4.882650592      2.801      3.458
REMARK  4 active torsions:
REMARK  status: ('A' for Active; 'I' for Inactive)
REMARK    1  A    between atoms: C1_2  and  C2_4 
REMARK    2  A    between atoms: C2_4  and  N1_5 
REMARK    3  A    between atoms: C2_4  and  C6_14 
REMARK    4  A    between atoms: N1_5  and  C3_7 
ROOT
HETATM    1  N1  UNL     1      -4.304  12.793 -15.963  1.00  0.00    -0.339 N 
ATOM      2  H1  UNL     1      -4.269  13.767 -16.265  1.00  0.00     0.164 HD
ENDROOT
BRANCH   1   3
HETATM    3  C2  UNL     1      -3.318  12.338 -15.016  1.00  0.00     0.287 C 
BRANCH   3   4
HETATM    4  C1  UNL     1      -2.117  11.905 -15.811  1.00  0.00     0.207 C 
HETATM    5  O1  UNL     1      -1.118  11.431 -15.215  1.00  0.00    -0.646 OA
HETATM    6  O2  UNL     1      -2.146  12.046 -17.181  1.00  0.00    -0.646 OA
ENDBRANCH   3   4
BRANCH   3   7
HETATM    7  C6  UNL     1      -2.887  13.395 -14.061  1.00  0.00     0.207 C 
HETATM    8  O3  UNL     1      -2.526  14.502 -14.515  1.00  0.00    -0.646 OA
HETATM    9  O4  UNL     1      -2.874  13.195 -12.685  1.00  0.00    -0.646 OA
ENDBRANCH   3   7
ENDBRANCH   1   3
BRANCH   1  10
HETATM   10  C3  UNL     1      -5.338  11.946 -16.508  1.00  0.00     0.172 A 
HETATM   11  N2  UNL     1      -5.279  11.317 -17.630  1.00  0.00    -0.361 N 
HETATM   12  C4  UNL     1      -6.466  10.558 -17.900  1.00  0.00     0.142 A 
ATOM     13  H2  UNL     1      -4.476  11.354 -18.259  1.00  0.00     0.162 HD
HETATM   14  C5  UNL     1      -7.310  10.701 -16.689  1.00  0.00     0.142 A 
HETATM   15  N3  UNL     1      -6.568  11.684 -15.890  1.00  0.00    -0.361 N 
ATOM     16  H3  UNL     1      -6.895  12.108 -15.022  1.00  0.00     0.162 HD
ENDBRANCH   1  10
TORSDOF 4
ENDMDL
MODEL 3
REMARK VINA RESULT: -4.823522837      2.367      3.233
REMARK  4 active torsions:
REMARK  status: ('A' for Active; 'I' for Inactive)
REMARK    1  A    between atoms: C1_2  and  C2_4 
REMARK    2  A    between atoms: C2_4  and  N1_5 
REMARK    3  A    between atoms: C2_4  and  C6_14 
REMARK    4  A    between atoms: N1_5  and  C3_7 
ROOT
HETATM    1  N1  UNL     1      -4.567  12.426 -15.887  1.00  0.00    -0.339 N 
ATOM      2  H1  UNL     1      -5.023  12.084 -15.042  1.00  0.00     0.164 HD
ENDROOT
BRANCH   1   3
HETATM    3  C2  UNL     1      -3.165  12.751 -15.821  1.00  0.00     0.287 C 
BRANCH   3   4
HETATM    4  C1  UNL     1      -2.916  13.329 -14.454  1.00  0.00     0.207 C 
HETATM    5  O1  UNL     1      -2.608  14.542 -14.343  1.00  0.00    -0.646 OA
HETATM    6  O2  UNL     1      -3.028  12.503 -13.358  1.00  0.00    -0.646 OA
ENDBRANCH   3   4
BRANCH   3   7
HETATM    7  C6  UNL     1      -2.277  11.569 -15.995  1.00  0.00     0.207 C 
HETATM    8  O3  UNL     1      -2.732  10.559 -16.573  1.00  0.00    -0.646 OA
HETATM    9  O4  UNL     1      -0.964  11.550 -15.540  1.00  0.00    -0.646 OA
ENDBRANCH   3   7
ENDBRANCH   1   3
BRANCH   1  10
HETATM   10  C3  UNL     1      -5.361  12.557 -17.085  1.00  0.00     0.172 A 
HETATM   11  N2  UNL     1      -6.445  13.246 -17.196  1.00  0.00    -0.361 N 
HETATM   12  C4  UNL     1      -7.008  13.179 -18.513  1.00  0.00     0.142 A 
ATOM     13  H2  UNL     1      -6.856  13.779 -16.430  1.00  0.00     0.162 HD
HETATM   14  C5  UNL     1      -6.039  12.398 -19.319  1.00  0.00     0.142 A 
HETATM   15  N3  UNL     1      -5.067  11.950 -18.313  1.00  0.00    -0.361 N 
ATOM     16  H3  UNL     1      -4.300  11.300 -18.481  1.00  0.00     0.162 HD
ENDBRANCH   1  10
TORSDOF 4
ENDMDL
MODEL 4
REMARK VINA RESULT: -4.807343339      4.853      5.718
REMARK  4 active torsions:
REMARK  status: ('A' for Active; 'I' for Inactive)
REMARK    1  A    between atoms: C1_2  and  C2_4 
REMARK    2  A    between atoms: C2_4  and  N1_5 
REMARK    3  A    between atoms: C2_4  and  C6_14 
REMARK    4  A    between atoms: N1_5  and  C3_7 
ROOT
HETATM    1  N1  UNL     1      -2.147  19.043 -15.958  1.00  0.00    -0.339 N 
ATOM      2  H1  UNL     1      -2.572  19.825 -15.458  1.00  0.00     0.164 HD
ENDROOT
BRANCH   1   3
HETATM    3  C2  UNL     1      -2.917  17.835 -16.112  1.00  0.00     0.287 C 
BRANCH   3   4
HETATM    4  C1  UNL     1      -2.055  16.703 -15.626  1.00  0.00     0.207 C 
HETATM    5  O1  UNL     1      -1.949  15.663 -16.322  1.00  0.00    -0.646 OA
HETATM    6  O2  UNL     1      -1.406  16.839 -14.418  1.00  0.00    -0.646 OA
ENDBRANCH   3   4
BRANCH   3   7
HETATM    7  C6  UNL     1      -4.178  17.835 -15.319  1.00  0.00     0.207 C 
HETATM    8  O3  UNL     1      -5.150  17.175 -15.742  1.00  0.00    -0.646 OA
HETATM    9  O4  UNL     1      -4.309  18.540 -14.129  1.00  0.00    -0.646 OA
ENDBRANCH   3   7
ENDBRANCH   1   3
BRANCH   1  10
HETATM   10  C3  UNL     1      -0.809  19.208 -16.473  1.00  0.00     0.172 A 
HETATM   11  N2  UNL     1       0.248  19.406 -15.764  1.00  0.00    -0.361 N 
HETATM   12  C4  UNL     1       1.432  19.535 -16.564  1.00  0.00     0.142 A 
ATOM     13  H2  UNL     1       0.244  19.465 -14.746  1.00  0.00     0.162 HD
HETATM   14  C5  UNL     1       0.997  19.276 -17.958  1.00  0.00     0.142 A 
HETATM   15  N3  UNL     1      -0.463  19.178 -17.830  1.00  0.00    -0.361 N 
ATOM     16  H3  UNL     1      -1.120  19.100 -18.606  1.00  0.00     0.162 HD
ENDBRANCH   1  10
TORSDOF 4
ENDMDL
MODEL 5
REMARK VINA RESULT: -4.803118156      4.844      5.790
REMARK  4 active torsions:
REMARK  status: ('A' for Active; 'I' for Inactive)
REMARK    1  A    between atoms: C1_2  and  C2_4 
REMARK    2  A    between atoms: C2_4  and  N1_5 
REMARK    3  A    between atoms: C2_4  and  C6_14 
REMARK    4  A    between atoms: N1_5  and  C3_7 
ROOT
HETATM    1  N1  UNL     1      -2.122  18.975 -15.933  1.00  0.00    -0.339 N 
ATOM      2  H1  UNL     1      -2.548  19.773 -15.462  1.00  0.00     0.164 HD
ENDROOT
BRANCH   1   3
HETATM    3  C2  UNL     1      -2.925  17.795 -16.132  1.00  0.00     0.287 C 
BRANCH   3   4
HETATM    4  C1  UNL     1      -2.124  16.630 -15.618  1.00  0.00     0.207 C 
HETATM    5  O1  UNL     1      -2.053  15.579 -16.302  1.00  0.00    -0.646 OA
HETATM    6  O2  UNL     1      -1.493  16.749 -14.400  1.00  0.00    -0.646 OA
ENDBRANCH   3   4
BRANCH   3   7
HETATM    7  C6  UNL     1      -4.219  17.832 -15.397  1.00  0.00     0.207 C 
HETATM    8  O3  UNL     1      -5.218  17.289 -15.915  1.00  0.00    -0.646 OA
HETATM    9  O4  UNL     1      -4.354  18.446 -14.157  1.00  0.00    -0.646 OA
ENDBRANCH   3   7
ENDBRANCH   1   3
BRANCH   1  10
HETATM   10  C3  UNL     1      -0.749  19.088 -16.362  1.00  0.00     0.172 A 
HETATM   11  N2  UNL     1      -0.345  19.107 -17.586  1.00  0.00    -0.361 N 
HETATM   12  C4  UNL     1       1.081  19.226 -17.693  1.00  0.00     0.142 A 
ATOM     13  H2  UNL     1      -0.969  19.043 -18.389  1.00  0.00     0.162 HD
HETATM   14  C5  UNL     1       1.569  19.397 -16.303  1.00  0.00     0.142 A 
HETATM   15  N3  UNL     1       0.353  19.195 -15.505  1.00  0.00    -0.361 N 
ATOM     16  H3  UNL     1       0.317  19.141 -14.487  1.00  0.00     0.162 HD
ENDBRANCH   1  10
TORSDOF 4
ENDMDL
