MODEL 1
REMARK VINA RESULT: -7.829487706      0.000      0.000
REMARK  9 active torsions:
REMARK  status: ('A' for Active; 'I' for Inactive)
REMARK    1  A    between atoms: N1_1  and  C1_4 
REMARK    2  A    between atoms: C3_11  and  N4_12 
REMARK    3  A    between atoms: N4_12  and  C4_14 
REMARK    4  A    between atoms: C4_14  and  C5_15 
REMARK    5  A    between atoms: C5_15  and  O2_16 
REMARK    6  A    between atoms: C5_15  and  C6_18 
REMARK    7  A    between atoms: C6_18  and  N5_19 
REMARK    8  A    between atoms: C6_18  and  C7_23 
REMARK    9  A    between atoms: C7_23  and  C8_24 
ROOT
HETATM    1  N4  UNL     1      26.863  18.816  61.761  1.00  0.00    -0.223 N 
ATOM      2  H4  UNL     1      26.106  19.060  61.123  1.00  0.00     0.177 HD
ENDROOT
BRANCH   1   3
HETATM    3  C3  UNL     1      26.988  19.585  62.752  1.00  0.00     0.685 C 
HETATM    4  N3  UNL     1      28.243  20.042  62.973  1.00  0.00    -0.141 N 
HETATM    5  C2  UNL     1      28.711  20.954  63.848  1.00  0.00     0.340 C 
ATOM      6  H3  UNL     1      28.957  19.623  62.376  1.00  0.00     0.189 HD
HETATM    7  N2  UNL     1      27.985  21.849  64.577  1.00  0.00    -0.290 N 
HETATM    8  O1  UNL     1      29.968  20.985  64.014  1.00  0.00    -0.246 OA
HETATM    9  C1  UNL     1      26.638  21.921  64.724  1.00  0.00     0.173 C 
ATOM     10  H2  UNL     1      28.524  22.557  65.077  1.00  0.00     0.172 HD
HETATM   11  C11 UNL     1      25.747  20.924  64.386  1.00  0.00     0.303 C 
HETATM   12  N8  UNL     1      25.921  19.904  63.506  1.00  0.00    -0.153 N 
HETATM   13  O3  UNL     1      24.655  20.980  64.969  1.00  0.00    -0.263 OA
ATOM     14  H8  UNL     1      25.118  19.284  63.402  1.00  0.00     0.187 HD
BRANCH   9  15
HETATM   15  N1  UNL     1      26.163  23.015  65.218  1.00  0.00    -0.381 N 
ATOM     16  H12 UNL     1      26.034  23.066  66.228  1.00  0.00     0.157 HD
ATOM     17  H11 UNL     1      25.947  23.763  64.559  1.00  0.00     0.157 HD
ENDBRANCH   9  15
ENDBRANCH   1   3
BRANCH   1  18
HETATM   18  C4  UNL     1      27.600  17.672  61.396  1.00  0.00     0.171 C 
BRANCH  18  19
HETATM   19  C5  UNL     1      27.598  17.572  59.865  1.00  0.00     0.167 C 
BRANCH  19  20
HETATM   20  O2  UNL     1      27.513  18.839  59.361  1.00  0.00    -0.392 OA
ATOM     21  H2  UNL     1      28.093  19.396  59.868  1.00  0.00     0.210 HD
ENDBRANCH  19  20
BRANCH  19  22
HETATM   22  C6  UNL     1      26.553  16.650  59.369  1.00  0.00     0.219 C 
BRANCH  22  23
HETATM   23  N5  UNL     1      26.376  16.837  57.913  1.00  0.00    -0.072 N 
ATOM     24  H53 UNL     1      27.101  17.430  57.510  1.00  0.00     0.274 HD
ATOM     25  H52 UNL     1      26.575  15.985  57.389  1.00  0.00     0.274 HD
ATOM     26  H51 UNL     1      25.439  17.194  57.725  1.00  0.00     0.274 HD
ENDBRANCH  22  23
BRANCH  22  27
HETATM   27  C7  UNL     1      26.727  15.197  59.663  1.00  0.00     0.094 C 
BRANCH  27  28
HETATM   28  C8  UNL     1      25.743  14.606  60.578  1.00  0.00     0.027 A 
HETATM   29  C9  UNL     1      25.905  13.578  61.488  1.00  0.00     0.114 A 
HETATM   30  N6  UNL     1      24.739  13.379  62.099  1.00  0.00    -0.360 N 
HETATM   31  C10 UNL     1      23.823  14.231  61.630  1.00  0.00     0.180 A 
ATOM     32  H6  UNL     1      24.571  12.678  62.821  1.00  0.00     0.166 HD
HETATM   33  N7  UNL     1      24.434  14.978  60.704  1.00  0.00    -0.355 N 
ATOM     34  H7  UNL     1      23.986  15.722  60.168  1.00  0.00     0.166 HD
ENDBRANCH  27  28
ENDBRANCH  22  27
ENDBRANCH  19  22
ENDBRANCH  18  19
ENDBRANCH   1  18
TORSDOF 9
ENDMDL
MODEL 2
REMARK VINA RESULT: -7.632501324      1.098      1.239
REMARK  9 active torsions:
REMARK  status: ('A' for Active; 'I' for Inactive)
REMARK    1  A    between atoms: N1_1  and  C1_4 
REMARK    2  A    between atoms: C3_11  and  N4_12 
REMARK    3  A    between atoms: N4_12  and  C4_14 
REMARK    4  A    between atoms: C4_14  and  C5_15 
REMARK    5  A    between atoms: C5_15  and  O2_16 
REMARK    6  A    between atoms: C5_15  and  C6_18 
REMARK    7  A    between atoms: C6_18  and  N5_19 
REMARK    8  A    between atoms: C6_18  and  C7_23 
REMARK    9  A    between atoms: C7_23  and  C8_24 
ROOT
HETATM    1  N4  UNL     1      26.857  18.834  61.518  1.00  0.00    -0.223 N 
ATOM      2  H4  UNL     1      27.059  19.290  60.629  1.00  0.00     0.177 HD
ENDROOT
BRANCH   1   3
HETATM    3  C3  UNL     1      27.008  19.565  62.534  1.00  0.00     0.685 C 
HETATM    4  N3  UNL     1      28.267  20.021  62.733  1.00  0.00    -0.141 N 
HETATM    5  C2  UNL     1      28.757  20.902  63.629  1.00  0.00     0.340 C 
ATOM      6  H3  UNL     1      28.964  19.632  62.098  1.00  0.00     0.189 HD
HETATM    7  N2  UNL     1      28.048  21.762  64.415  1.00  0.00    -0.290 N 
HETATM    8  O1  UNL     1      30.018  20.936  63.755  1.00  0.00    -0.246 OA
HETATM    9  C1  UNL     1      26.706  21.819  64.606  1.00  0.00     0.173 C 
ATOM     10  H2  UNL     1      28.598  22.454  64.925  1.00  0.00     0.172 HD
HETATM   11  C11 UNL     1      25.811  20.828  64.258  1.00  0.00     0.303 C 
HETATM   12  N8  UNL     1      25.964  19.845  63.334  1.00  0.00    -0.153 N 
HETATM   13  O3  UNL     1      24.739  20.853  64.876  1.00  0.00    -0.263 OA
ATOM     14  H8  UNL     1      25.162  19.223  63.230  1.00  0.00     0.187 HD
BRANCH   9  15
HETATM   15  N1  UNL     1      26.241  22.888  65.158  1.00  0.00    -0.381 N 
ATOM     16  H12 UNL     1      26.817  23.354  65.860  1.00  0.00     0.157 HD
ATOM     17  H11 UNL     1      25.318  23.200  64.853  1.00  0.00     0.157 HD
ENDBRANCH   9  15
ENDBRANCH   1   3
BRANCH   1  18
HETATM   18  C4  UNL     1      26.452  17.488  61.415  1.00  0.00     0.171 C 
BRANCH  18  19
HETATM   19  C5  UNL     1      27.049  16.907  60.127  1.00  0.00     0.167 C 
BRANCH  19  20
HETATM   20  O2  UNL     1      26.065  16.888  59.178  1.00  0.00    -0.392 OA
ATOM     21  H2  UNL     1      26.476  16.993  58.328  1.00  0.00     0.210 HD
ENDBRANCH  19  20
BRANCH  19  22
HETATM   22  C6  UNL     1      27.698  15.597  60.355  1.00  0.00     0.219 C 
BRANCH  22  23
HETATM   23  N5  UNL     1      28.103  15.484  61.774  1.00  0.00    -0.072 N 
ATOM     24  H53 UNL     1      28.275  16.395  62.198  1.00  0.00     0.274 HD
ATOM     25  H52 UNL     1      27.332  15.187  62.371  1.00  0.00     0.274 HD
ATOM     26  H51 UNL     1      28.911  14.866  61.850  1.00  0.00     0.274 HD
ENDBRANCH  22  23
BRANCH  22  27
HETATM   27  C7  UNL     1      26.934  14.378  59.961  1.00  0.00     0.094 C 
BRANCH  27  28
HETATM   28  C8  UNL     1      25.704  14.120  60.721  1.00  0.00     0.027 A 
HETATM   29  C9  UNL     1      25.531  13.375  61.873  1.00  0.00     0.114 A 
HETATM   30  N6  UNL     1      24.242  13.419  62.204  1.00  0.00    -0.360 N 
HETATM   31  C10 UNL     1      23.566  14.161  61.322  1.00  0.00     0.180 A 
ATOM     32  H6  UNL     1      23.831  12.954  63.014  1.00  0.00     0.166 HD
HETATM   33  N7  UNL     1      24.456  14.587  60.419  1.00  0.00    -0.355 N 
ATOM     34  H7  UNL     1      24.235  15.179  59.618  1.00  0.00     0.166 HD
ENDBRANCH  27  28
ENDBRANCH  22  27
ENDBRANCH  19  22
ENDBRANCH  18  19
ENDBRANCH   1  18
TORSDOF 9
ENDMDL
MODEL 3
REMARK VINA RESULT: -7.618347892      1.306      2.441
REMARK  9 active torsions:
REMARK  status: ('A' for Active; 'I' for Inactive)
REMARK    1  A    between atoms: N1_1  and  C1_4 
REMARK    2  A    between atoms: C3_11  and  N4_12 
REMARK    3  A    between atoms: N4_12  and  C4_14 
REMARK    4  A    between atoms: C4_14  and  C5_15 
REMARK    5  A    between atoms: C5_15  and  O2_16 
REMARK    6  A    between atoms: C5_15  and  C6_18 
REMARK    7  A    between atoms: C6_18  and  N5_19 
REMARK    8  A    between atoms: C6_18  and  C7_23 
REMARK    9  A    between atoms: C7_23  and  C8_24 
ROOT
HETATM    1  N4  UNL     1      27.070  18.384  63.055  1.00  0.00    -0.223 N 
ATOM      2  H4  UNL     1      26.149  17.990  62.865  1.00  0.00     0.177 HD
ENDROOT
BRANCH   1   3
HETATM    3  C3  UNL     1      27.062  19.580  63.452  1.00  0.00     0.685 C 
HETATM    4  N3  UNL     1      25.845  20.173  63.474  1.00  0.00    -0.141 N 
HETATM    5  C2  UNL     1      25.455  21.375  63.943  1.00  0.00     0.340 C 
ATOM      6  H3  UNL     1      25.095  19.615  63.064  1.00  0.00     0.189 HD
HETATM    7  N2  UNL     1      26.158  22.212  64.758  1.00  0.00    -0.290 N 
HETATM    8  O1  UNL     1      24.305  21.773  63.588  1.00  0.00    -0.246 OA
HETATM    9  C1  UNL     1      27.455  22.119  65.145  1.00  0.00     0.173 C 
ATOM     10  H2  UNL     1      25.642  23.012  65.125  1.00  0.00     0.172 HD
HETATM   11  C11 UNL     1      28.403  21.305  64.560  1.00  0.00     0.303 C 
HETATM   12  N8  UNL     1      28.207  20.183  63.821  1.00  0.00    -0.153 N 
HETATM   13  O3  UNL     1      29.577  21.657  64.741  1.00  0.00    -0.263 OA
ATOM     14  H8  UNL     1      29.058  19.728  63.494  1.00  0.00     0.187 HD
BRANCH   9  15
HETATM   15  N1  UNL     1      27.820  22.854  66.142  1.00  0.00    -0.381 N 
ATOM     16  H12 UNL     1      27.189  23.595  66.446  1.00  0.00     0.157 HD
ATOM     17  H11 UNL     1      28.725  22.642  66.563  1.00  0.00     0.157 HD
ENDBRANCH   9  15
ENDBRANCH   1   3
BRANCH   1  18
HETATM   18  C4  UNL     1      28.147  17.504  62.831  1.00  0.00     0.171 C 
BRANCH  18  19
HETATM   19  C5  UNL     1      28.561  17.620  61.359  1.00  0.00     0.167 C 
BRANCH  19  20
HETATM   20  O2  UNL     1      29.488  18.619  61.259  1.00  0.00    -0.392 OA
ATOM     21  H2  UNL     1      30.329  18.265  61.524  1.00  0.00     0.210 HD
ENDBRANCH  19  20
BRANCH  19  22
HETATM   22  C6  UNL     1      27.394  17.783  60.464  1.00  0.00     0.219 C 
BRANCH  22  23
HETATM   23  N5  UNL     1      27.638  18.901  59.527  1.00  0.00    -0.072 N 
ATOM     24  H53 UNL     1      27.806  19.781  60.014  1.00  0.00     0.274 HD
ATOM     25  H52 UNL     1      28.540  18.818  59.058  1.00  0.00     0.274 HD
ATOM     26  H51 UNL     1      26.864  18.969  58.866  1.00  0.00     0.274 HD
ENDBRANCH  22  23
BRANCH  22  27
HETATM   27  C7  UNL     1      26.948  16.584  59.697  1.00  0.00     0.094 C 
BRANCH  27  28
HETATM   28  C8  UNL     1      25.881  15.787  60.316  1.00  0.00     0.027 A 
HETATM   29  C9  UNL     1      25.926  14.490  60.792  1.00  0.00     0.114 A 
HETATM   30  N6  UNL     1      24.722  14.182  61.268  1.00  0.00    -0.360 N 
HETATM   31  C10 UNL     1      23.893  15.220  61.127  1.00  0.00     0.180 A 
ATOM     32  H6  UNL     1      24.469  13.284  61.681  1.00  0.00     0.166 HD
HETATM   33  N7  UNL     1      24.599  16.197  60.547  1.00  0.00    -0.355 N 
ATOM     34  H7  UNL     1      24.231  17.120  60.311  1.00  0.00     0.166 HD
ENDBRANCH  27  28
ENDBRANCH  22  27
ENDBRANCH  19  22
ENDBRANCH  18  19
ENDBRANCH   1  18
TORSDOF 9
ENDMDL
MODEL 4
REMARK VINA RESULT: -7.519231067      0.631      2.151
REMARK  9 active torsions:
REMARK  status: ('A' for Active; 'I' for Inactive)
REMARK    1  A    between atoms: N1_1  and  C1_4 
REMARK    2  A    between atoms: C3_11  and  N4_12 
REMARK    3  A    between atoms: N4_12  and  C4_14 
REMARK    4  A    between atoms: C4_14  and  C5_15 
REMARK    5  A    between atoms: C5_15  and  O2_16 
REMARK    6  A    between atoms: C5_15  and  C6_18 
REMARK    7  A    between atoms: C6_18  and  N5_19 
REMARK    8  A    between atoms: C6_18  and  C7_23 
REMARK    9  A    between atoms: C7_23  and  C8_24 
ROOT
HETATM    1  N4  UNL     1      26.838  18.113  62.163  1.00  0.00    -0.223 N 
ATOM      2  H4  UNL     1      25.893  17.730  62.170  1.00  0.00     0.177 HD
ENDROOT
BRANCH   1   3
HETATM    3  C3  UNL     1      26.957  19.237  62.721  1.00  0.00     0.685 C 
HETATM    4  N3  UNL     1      25.831  19.717  63.298  1.00  0.00    -0.141 N 
HETATM    5  C2  UNL     1      25.626  20.805  64.068  1.00  0.00     0.340 C 
ATOM      6  H3  UNL     1      24.994  19.162  63.120  1.00  0.00     0.189 HD
HETATM    7  N2  UNL     1      26.571  21.575  64.679  1.00  0.00    -0.290 N 
HETATM    8  O1  UNL     1      24.419  21.152  64.245  1.00  0.00    -0.246 OA
HETATM    9  C1  UNL     1      27.919  21.537  64.524  1.00  0.00     0.173 C 
ATOM     10  H2  UNL     1      26.220  22.270  65.338  1.00  0.00     0.172 HD
HETATM   11  C11 UNL     1      28.584  20.896  63.500  1.00  0.00     0.303 C 
HETATM   12  N8  UNL     1      28.141  19.876  62.720  1.00  0.00    -0.153 N 
HETATM   13  O3  UNL     1      29.727  21.315  63.276  1.00  0.00    -0.263 OA
ATOM     14  H8  UNL     1      28.810  19.544  62.025  1.00  0.00     0.187 HD
BRANCH   9  15
HETATM   15  N1  UNL     1      28.625  22.153  65.412  1.00  0.00    -0.381 N 
ATOM     16  H12 UNL     1      29.637  22.026  65.391  1.00  0.00     0.157 HD
ATOM     17  H11 UNL     1      28.119  22.732  66.083  1.00  0.00     0.157 HD
ENDBRANCH   9  15
ENDBRANCH   1   3
BRANCH   1  18
HETATM   18  C4  UNL     1      27.801  17.301  61.532  1.00  0.00     0.171 C 
BRANCH  18  19
HETATM   19  C5  UNL     1      27.624  17.441  60.015  1.00  0.00     0.167 C 
BRANCH  19  20
HETATM   20  O2  UNL     1      27.508  18.772  59.726  1.00  0.00    -0.392 OA
ATOM     21  H2  UNL     1      28.258  19.024  59.201  1.00  0.00     0.210 HD
ENDBRANCH  19  20
BRANCH  19  22
HETATM   22  C6  UNL     1      26.511  16.610  59.505  1.00  0.00     0.219 C 
BRANCH  22  23
HETATM   23  N5  UNL     1      26.267  16.926  58.081  1.00  0.00    -0.072 N 
ATOM     24  H53 UNL     1      26.459  17.904  57.866  1.00  0.00     0.274 HD
ATOM     25  H52 UNL     1      26.964  16.501  57.469  1.00  0.00     0.274 HD
ATOM     26  H51 UNL     1      25.317  16.655  57.828  1.00  0.00     0.274 HD
ENDBRANCH  22  23
BRANCH  22  27
HETATM   27  C7  UNL     1      26.631  15.132  59.670  1.00  0.00     0.094 C 
BRANCH  27  28
HETATM   28  C8  UNL     1      25.670  14.510  60.590  1.00  0.00     0.027 A 
HETATM   29  C9  UNL     1      25.896  13.591  61.598  1.00  0.00     0.114 A 
HETATM   30  N6  UNL     1      24.728  13.310  62.171  1.00  0.00    -0.360 N 
HETATM   31  C10 UNL     1      23.749  14.005  61.584  1.00  0.00     0.180 A 
ATOM     32  H6  UNL     1      24.600  12.659  62.945  1.00  0.00     0.166 HD
HETATM   33  N7  UNL     1      24.323  14.736  60.622  1.00  0.00    -0.355 N 
ATOM     34  H7  UNL     1      23.824  15.372  59.999  1.00  0.00     0.166 HD
ENDBRANCH  27  28
ENDBRANCH  22  27
ENDBRANCH  19  22
ENDBRANCH  18  19
ENDBRANCH   1  18
TORSDOF 9
ENDMDL
MODEL 5
REMARK VINA RESULT: -7.382187514      2.627      3.928
REMARK  9 active torsions:
REMARK  status: ('A' for Active; 'I' for Inactive)
REMARK    1  A    between atoms: N1_1  and  C1_4 
REMARK    2  A    between atoms: C3_11  and  N4_12 
REMARK    3  A    between atoms: N4_12  and  C4_14 
REMARK    4  A    between atoms: C4_14  and  C5_15 
REMARK    5  A    between atoms: C5_15  and  O2_16 
REMARK    6  A    between atoms: C5_15  and  C6_18 
REMARK    7  A    between atoms: C6_18  and  N5_19 
REMARK    8  A    between atoms: C6_18  and  C7_23 
REMARK    9  A    between atoms: C7_23  and  C8_24 
ROOT
HETATM    1  N4  UNL     1      23.754  16.719  62.805  1.00  0.00    -0.223 N 
ATOM      2  H4  UNL     1      23.092  17.221  62.214  1.00  0.00     0.177 HD
ENDROOT
BRANCH   1   3
HETATM    3  C3  UNL     1      24.277  17.411  63.719  1.00  0.00     0.685 C 
HETATM    4  N3  UNL     1      25.617  17.271  63.853  1.00  0.00    -0.141 N 
HETATM    5  C2  UNL     1      26.502  17.930  64.628  1.00  0.00     0.340 C 
ATOM      6  H3  UNL     1      26.027  16.542  63.270  1.00  0.00     0.189 HD
HETATM    7  N2  UNL     1      26.301  19.099  65.301  1.00  0.00    -0.290 N 
HETATM    8  O1  UNL     1      27.651  17.407  64.743  1.00  0.00    -0.246 OA
HETATM    9  C1  UNL     1      25.139  19.774  65.490  1.00  0.00     0.173 C 
ATOM     10  H2  UNL     1      27.132  19.520  65.718  1.00  0.00     0.172 HD
HETATM   11  C11 UNL     1      23.877  19.261  65.274  1.00  0.00     0.303 C 
HETATM   12  N8  UNL     1      23.518  18.219  64.481  1.00  0.00    -0.153 N 
HETATM   13  O3  UNL     1      22.968  19.835  65.889  1.00  0.00    -0.263 OA
ATOM     14  H8  UNL     1      22.519  18.017  64.461  1.00  0.00     0.187 HD
BRANCH   9  15
HETATM   15  N1  UNL     1      25.235  20.993  65.904  1.00  0.00    -0.381 N 
ATOM     16  H12 UNL     1      26.067  21.255  66.432  1.00  0.00     0.157 HD
ATOM     17  H11 UNL     1      24.463  21.620  65.673  1.00  0.00     0.157 HD
ENDBRANCH   9  15
ENDBRANCH   1   3
BRANCH   1  18
HETATM   18  C4  UNL     1      23.936  15.362  62.470  1.00  0.00     0.171 C 
BRANCH  18  19
HETATM   19  C5  UNL     1      24.233  15.277  60.967  1.00  0.00     0.167 C 
BRANCH  19  20
HETATM   20  O2  UNL     1      23.492  14.252  60.449  1.00  0.00    -0.392 OA
ATOM     21  H2  UNL     1      23.326  13.629  61.147  1.00  0.00     0.210 HD
ENDBRANCH  19  20
BRANCH  19  22
HETATM   22  C6  UNL     1      25.684  15.177  60.692  1.00  0.00     0.219 C 
BRANCH  22  23
HETATM   23  N5  UNL     1      25.949  13.988  59.854  1.00  0.00    -0.072 N 
ATOM     24  H53 UNL     1      26.660  13.381  60.262  1.00  0.00     0.274 HD
ATOM     25  H52 UNL     1      25.171  13.329  59.865  1.00  0.00     0.274 HD
ATOM     26  H51 UNL     1      26.192  14.282  58.908  1.00  0.00     0.274 HD
ENDBRANCH  22  23
BRANCH  22  27
HETATM   27  C7  UNL     1      26.347  16.367  60.084  1.00  0.00     0.094 C 
BRANCH  27  28
HETATM   28  C8  UNL     1      27.507  16.896  60.814  1.00  0.00     0.027 A 
HETATM   29  C9  UNL     1      28.407  16.228  61.622  1.00  0.00     0.114 A 
HETATM   30  N6  UNL     1      29.294  17.112  62.073  1.00  0.00    -0.360 N 
HETATM   31  C10 UNL     1      29.014  18.328  61.593  1.00  0.00     0.180 A 
ATOM     32  H6  UNL     1      30.074  16.893  62.693  1.00  0.00     0.166 HD
HETATM   33  N7  UNL     1      27.926  18.196  60.827  1.00  0.00    -0.355 N 
ATOM     34  H7  UNL     1      27.474  18.959  60.323  1.00  0.00     0.166 HD
ENDBRANCH  27  28
ENDBRANCH  22  27
ENDBRANCH  19  22
ENDBRANCH  18  19
ENDBRANCH   1  18
TORSDOF 9
ENDMDL
