MODEL 1
REMARK VINA RESULT: -7.317542439      0.000      0.000
REMARK  7 active torsions:
REMARK  status: ('A' for Active; 'I' for Inactive)
REMARK       I    between atoms: C1_4  and  N3_6 
REMARK    1  A    between atoms: N3_6  and  C2_8 
REMARK    2  A    between atoms: C2_8  and  C3_9 
REMARK    3  A    between atoms: C3_9  and  C4_10 
REMARK    4  A    between atoms: C4_10  and  N4_11 
REMARK       I    between atoms: C5_13  and  N6_15 
REMARK    5  A    between atoms: N6_15  and  S1_17 
REMARK    6  A    between atoms: S1_17  and  N7_20 
REMARK    7  A    between atoms: N7_20  and  C6_22 
ROOT
HETATM    1  N4  UNL     1      26.465  15.720  59.629  1.00  0.00    -0.364 N 
ATOM      2  H4  UNL     1      25.953  15.895  58.765  1.00  0.00     0.162 HD
HETATM    3  C5  UNL     1      27.211  16.630  60.148  1.00  0.00     0.199 C 
HETATM    4  N5  UNL     1      27.287  17.872  59.469  1.00  0.00    -0.063 NA
HETATM    5  N6  UNL     1      27.958  16.479  61.346  1.00  0.00    -0.240 N 
ATOM      6  H6  UNL     1      28.089  15.546  61.737  1.00  0.00     0.183 HD
ENDROOT
BRANCH   5   7
HETATM    7  S1  UNL     1      28.657  17.852  62.168  1.00  0.00     0.339 S 
HETATM    8  O1  UNL     1      28.916  17.414  63.615  1.00  0.00    -0.182 OA
HETATM    9  O2  UNL     1      29.980  18.078  61.562  1.00  0.00    -0.182 OA
BRANCH   7  10
HETATM   10  N7  UNL     1      27.585  19.139  62.211  1.00  0.00    -0.099 N 
ATOM     11  H7  UNL     1      27.118  19.305  61.320  1.00  0.00     0.199 HD
BRANCH  10  12
HETATM   12  C6  UNL     1      27.236  19.941  63.111  1.00  0.00     0.701 A 
HETATM   13  N8  UNL     1      28.062  20.740  63.788  1.00  0.00    -0.140 N 
HETATM   14  C7  UNL     1      27.562  21.546  64.732  1.00  0.00     0.342 A 
ATOM     15  H8  UNL     1      29.063  20.737  63.589  1.00  0.00     0.189 HD
HETATM   16  O3  UNL     1      28.356  22.295  65.363  1.00  0.00    -0.246 OA
HETATM   17  N9  UNL     1      26.244  21.587  65.031  1.00  0.00    -0.260 N 
HETATM   18  C8  UNL     1      25.394  20.790  64.359  1.00  0.00     0.342 A 
ATOM     19  H9  UNL     1      25.898  22.216  65.756  1.00  0.00     0.175 HD
HETATM   20  O4  UNL     1      24.152  20.813  64.625  1.00  0.00    -0.246 OA
HETATM   21  N10 UNL     1      25.892  19.983  63.415  1.00  0.00    -0.140 N 
ATOM     22  H10 UNL     1      25.253  19.375  62.902  1.00  0.00     0.189 HD
ENDBRANCH  10  12
ENDBRANCH   7  10
ENDBRANCH   5   7
BRANCH   1  23
HETATM   23  C4  UNL     1      26.372  14.453  60.296  1.00  0.00     0.124 C 
BRANCH  23  24
HETATM   24  C3  UNL     1      24.974  14.105  60.728  1.00  0.00     0.039 C 
BRANCH  24  25
HETATM   25  C2  UNL     1      24.775  14.095  62.211  1.00  0.00     0.123 C 
BRANCH  25  26
HETATM   26  N3  UNL     1      23.851  15.170  62.566  1.00  0.00    -0.365 N 
HETATM   27  C1  UNL     1      24.189  16.532  62.400  1.00  0.00     0.181 C 
HETATM   28  N1  UNL     1      23.598  17.310  61.562  1.00  0.00    -0.374 N 
HETATM   29  N2  UNL     1      25.228  17.084  63.183  1.00  0.00    -0.064 NA
ATOM     30  H12 UNL     1      23.841  18.294  61.442  1.00  0.00     0.158 HD
ATOM     31  H11 UNL     1      22.848  16.912  60.997  1.00  0.00     0.158 HD
ATOM     32  H3  UNL     1      22.935  14.930  62.945  1.00  0.00     0.162 HD
ENDBRANCH  25  26
ENDBRANCH  24  25
ENDBRANCH  23  24
ENDBRANCH   1  23
TORSDOF 7
ENDMDL
MODEL 2
REMARK VINA RESULT: -7.243325920      0.485      1.724
REMARK  7 active torsions:
REMARK  status: ('A' for Active; 'I' for Inactive)
REMARK       I    between atoms: C1_4  and  N3_6 
REMARK    1  A    between atoms: N3_6  and  C2_8 
REMARK    2  A    between atoms: C2_8  and  C3_9 
REMARK    3  A    between atoms: C3_9  and  C4_10 
REMARK    4  A    between atoms: C4_10  and  N4_11 
REMARK       I    between atoms: C5_13  and  N6_15 
REMARK    5  A    between atoms: N6_15  and  S1_17 
REMARK    6  A    between atoms: S1_17  and  N7_20 
REMARK    7  A    between atoms: N7_20  and  C6_22 
ROOT
HETATM    1  N4  UNL     1      26.570  15.454  59.860  1.00  0.00    -0.364 N 
ATOM      2  H4  UNL     1      25.964  15.570  59.048  1.00  0.00     0.162 HD
HETATM    3  C5  UNL     1      27.268  16.437  60.306  1.00  0.00     0.199 C 
HETATM    4  N5  UNL     1      27.158  17.674  59.623  1.00  0.00    -0.063 NA
HETATM    5  N6  UNL     1      28.135  16.371  61.429  1.00  0.00    -0.240 N 
ATOM      6  H6  UNL     1      28.393  15.459  61.806  1.00  0.00     0.183 HD
ENDROOT
BRANCH   5   7
HETATM    7  S1  UNL     1      28.770  17.814  62.181  1.00  0.00     0.339 S 
HETATM    8  O1  UNL     1      29.027  17.466  63.652  1.00  0.00    -0.182 OA
HETATM    9  O2  UNL     1      30.091  18.058  61.577  1.00  0.00    -0.182 OA
BRANCH   7  10
HETATM   10  N7  UNL     1      27.648  19.058  62.141  1.00  0.00    -0.099 N 
ATOM     11  H7  UNL     1      27.273  19.232  61.209  1.00  0.00     0.199 HD
BRANCH  10  12
HETATM   12  C6  UNL     1      27.174  19.820  63.018  1.00  0.00     0.701 A 
HETATM   13  N8  UNL     1      25.879  19.927  63.322  1.00  0.00    -0.140 N 
HETATM   14  C7  UNL     1      25.502  20.787  64.276  1.00  0.00     0.342 A 
ATOM     15  H8  UNL     1      25.185  19.360  62.834  1.00  0.00     0.189 HD
HETATM   16  O3  UNL     1      24.276  20.876  64.551  1.00  0.00    -0.246 OA
HETATM   17  N9  UNL     1      26.384  21.557  64.951  1.00  0.00    -0.260 N 
HETATM   18  C8  UNL     1      27.694  21.464  64.660  1.00  0.00     0.342 A 
ATOM     19  H9  UNL     1      26.060  22.201  65.673  1.00  0.00     0.175 HD
HETATM   20  O4  UNL     1      28.539  22.181  65.283  1.00  0.00    -0.246 OA
HETATM   21  N10 UNL     1      28.074  20.606  63.706  1.00  0.00    -0.140 N 
ATOM     22  H10 UNL     1      29.065  20.531  63.479  1.00  0.00     0.189 HD
ENDBRANCH  10  12
ENDBRANCH   7  10
ENDBRANCH   5   7
BRANCH   1  23
HETATM   23  C4  UNL     1      26.664  14.190  60.533  1.00  0.00     0.124 C 
BRANCH  23  24
HETATM   24  C3  UNL     1      25.544  13.945  61.507  1.00  0.00     0.039 C 
BRANCH  24  25
HETATM   25  C2  UNL     1      24.291  14.707  61.206  1.00  0.00     0.123 C 
BRANCH  25  26
HETATM   26  N3  UNL     1      23.760  15.246  62.456  1.00  0.00    -0.365 N 
HETATM   27  C1  UNL     1      24.006  16.577  62.861  1.00  0.00     0.181 C 
HETATM   28  N1  UNL     1      23.083  17.470  62.953  1.00  0.00    -0.374 N 
HETATM   29  N2  UNL     1      25.325  16.966  63.184  1.00  0.00    -0.064 NA
ATOM     30  H12 UNL     1      23.260  18.431  63.246  1.00  0.00     0.158 HD
ATOM     31  H11 UNL     1      22.131  17.189  62.720  1.00  0.00     0.158 HD
ATOM     32  H3  UNL     1      23.196  14.643  63.054  1.00  0.00     0.162 HD
ENDBRANCH  25  26
ENDBRANCH  24  25
ENDBRANCH  23  24
ENDBRANCH   1  23
TORSDOF 7
ENDMDL
MODEL 3
REMARK VINA RESULT: -7.176218478      2.276      3.501
REMARK  7 active torsions:
REMARK  status: ('A' for Active; 'I' for Inactive)
REMARK       I    between atoms: C1_4  and  N3_6 
REMARK    1  A    between atoms: N3_6  and  C2_8 
REMARK    2  A    between atoms: C2_8  and  C3_9 
REMARK    3  A    between atoms: C3_9  and  C4_10 
REMARK    4  A    between atoms: C4_10  and  N4_11 
REMARK       I    between atoms: C5_13  and  N6_15 
REMARK    5  A    between atoms: N6_15  and  S1_17 
REMARK    6  A    between atoms: S1_17  and  N7_20 
REMARK    7  A    between atoms: N7_20  and  C6_22 
ROOT
HETATM    1  N4  UNL     1      26.984  18.761  60.722  1.00  0.00    -0.364 N 
ATOM      2  H4  UNL     1      26.479  19.491  60.221  1.00  0.00     0.162 HD
HETATM    3  C5  UNL     1      27.028  18.754  62.006  1.00  0.00     0.199 C 
HETATM    4  N5  UNL     1      26.351  19.798  62.685  1.00  0.00    -0.063 NA
HETATM    5  N6  UNL     1      27.702  17.780  62.789  1.00  0.00    -0.240 N 
ATOM      6  H6  UNL     1      28.363  17.148  62.336  1.00  0.00     0.183 HD
ENDROOT
BRANCH   5   7
HETATM    7  S1  UNL     1      27.428  17.635  64.507  1.00  0.00     0.339 S 
HETATM    8  O1  UNL     1      27.918  16.240  64.915  1.00  0.00    -0.182 OA
HETATM    9  O2  UNL     1      28.331  18.598  65.161  1.00  0.00    -0.182 OA
BRANCH   7  10
HETATM   10  N7  UNL     1      25.794  17.724  64.866  1.00  0.00    -0.099 N 
ATOM     11  H7  UNL     1      25.228  17.063  64.334  1.00  0.00     0.199 HD
BRANCH  10  12
HETATM   12  C6  UNL     1      25.121  18.435  65.652  1.00  0.00     0.701 A 
HETATM   13  N8  UNL     1      24.070  18.013  66.358  1.00  0.00    -0.140 N 
HETATM   14  C7  UNL     1      23.432  18.877  67.156  1.00  0.00     0.342 A 
ATOM     15  H8  UNL     1      23.758  17.044  66.291  1.00  0.00     0.189 HD
HETATM   16  O3  UNL     1      22.442  18.463  67.817  1.00  0.00    -0.246 OA
HETATM   17  N9  UNL     1      23.809  20.169  67.280  1.00  0.00    -0.260 N 
HETATM   18  C8  UNL     1      24.865  20.614  66.577  1.00  0.00     0.342 A 
ATOM     19  H9  UNL     1      23.299  20.799  67.899  1.00  0.00     0.175 HD
HETATM   20  O4  UNL     1      25.235  21.825  66.678  1.00  0.00    -0.246 OA
HETATM   21  N10 UNL     1      25.505  19.753  65.777  1.00  0.00    -0.140 N 
ATOM     22  H10 UNL     1      26.307  20.083  65.240  1.00  0.00     0.189 HD
ENDBRANCH  10  12
ENDBRANCH   7  10
ENDBRANCH   5   7
BRANCH   1  23
HETATM   23  C4  UNL     1      27.663  17.716  60.010  1.00  0.00     0.124 C 
BRANCH  23  24
HETATM   24  C3  UNL     1      26.735  16.808  59.250  1.00  0.00     0.039 C 
BRANCH  24  25
HETATM   25  C2  UNL     1      26.515  15.476  59.894  1.00  0.00     0.123 C 
BRANCH  25  26
HETATM   26  N3  UNL     1      25.104  15.359  60.255  1.00  0.00    -0.365 N 
HETATM   27  C1  UNL     1      24.532  16.121  61.299  1.00  0.00     0.181 C 
HETATM   28  N1  UNL     1      23.638  17.026  61.105  1.00  0.00    -0.374 N 
HETATM   29  N2  UNL     1      24.953  15.892  62.628  1.00  0.00    -0.064 NA
ATOM     30  H12 UNL     1      23.225  17.577  61.859  1.00  0.00     0.158 HD
ATOM     31  H11 UNL     1      23.334  17.191  60.146  1.00  0.00     0.158 HD
ATOM     32  H3  UNL     1      24.514  14.707  59.738  1.00  0.00     0.162 HD
ENDBRANCH  25  26
ENDBRANCH  24  25
ENDBRANCH  23  24
ENDBRANCH   1  23
TORSDOF 7
ENDMDL
MODEL 4
REMARK VINA RESULT: -7.090882517      2.335      3.249
REMARK  7 active torsions:
REMARK  status: ('A' for Active; 'I' for Inactive)
REMARK       I    between atoms: C1_4  and  N3_6 
REMARK    1  A    between atoms: N3_6  and  C2_8 
REMARK    2  A    between atoms: C2_8  and  C3_9 
REMARK    3  A    between atoms: C3_9  and  C4_10 
REMARK    4  A    between atoms: C4_10  and  N4_11 
REMARK       I    between atoms: C5_13  and  N6_15 
REMARK    5  A    between atoms: N6_15  and  S1_17 
REMARK    6  A    between atoms: S1_17  and  N7_20 
REMARK    7  A    between atoms: N7_20  and  C6_22 
ROOT
HETATM    1  N4  UNL     1      26.962  18.756  60.758  1.00  0.00    -0.364 N 
ATOM      2  H4  UNL     1      26.441  19.481  60.266  1.00  0.00     0.162 HD
HETATM    3  C5  UNL     1      27.026  18.748  62.042  1.00  0.00     0.199 C 
HETATM    4  N5  UNL     1      26.348  19.784  62.732  1.00  0.00    -0.063 NA
HETATM    5  N6  UNL     1      27.722  17.780  62.813  1.00  0.00    -0.240 N 
ATOM      6  H6  UNL     1      28.382  17.156  62.349  1.00  0.00     0.183 HD
ENDROOT
BRANCH   5   7
HETATM    7  S1  UNL     1      27.476  17.631  64.535  1.00  0.00     0.339 S 
HETATM    8  O1  UNL     1      27.932  16.219  64.924  1.00  0.00    -0.182 OA
HETATM    9  O2  UNL     1      28.418  18.562  65.179  1.00  0.00    -0.182 OA
BRANCH   7  10
HETATM   10  N7  UNL     1      25.852  17.765  64.925  1.00  0.00    -0.099 N 
ATOM     11  H7  UNL     1      25.264  17.088  64.441  1.00  0.00     0.199 HD
BRANCH  10  12
HETATM   12  C6  UNL     1      25.208  18.526  65.688  1.00  0.00     0.701 A 
HETATM   13  N8  UNL     1      25.463  19.822  65.873  1.00  0.00    -0.140 N 
HETATM   14  C7  UNL     1      24.703  20.522  66.725  1.00  0.00     0.342 A 
ATOM     15  H8  UNL     1      26.228  20.275  65.372  1.00  0.00     0.189 HD
HETATM   16  O3  UNL     1      24.957  21.745  66.888  1.00  0.00    -0.246 OA
HETATM   17  N9  UNL     1      23.679  19.967  67.410  1.00  0.00    -0.260 N 
HETATM   18  C8  UNL     1      23.405  18.661  67.238  1.00  0.00     0.342 A 
ATOM     19  H9  UNL     1      23.120  20.531  68.051  1.00  0.00     0.175 HD
HETATM   20  O4  UNL     1      22.447  18.121  67.874  1.00  0.00    -0.246 OA
HETATM   21  N10 UNL     1      24.163  17.959  66.388  1.00  0.00    -0.140 N 
ATOM     22  H10 UNL     1      23.962  16.969  66.253  1.00  0.00     0.189 HD
ENDBRANCH  10  12
ENDBRANCH   7  10
ENDBRANCH   5   7
BRANCH   1  23
HETATM   23  C4  UNL     1      27.641  17.718  60.035  1.00  0.00     0.124 C 
BRANCH  23  24
HETATM   24  C3  UNL     1      26.712  16.816  59.269  1.00  0.00     0.039 C 
BRANCH  24  25
HETATM   25  C2  UNL     1      26.494  15.479  59.904  1.00  0.00     0.123 C 
BRANCH  25  26
HETATM   26  N3  UNL     1      25.085  15.359  60.269  1.00  0.00    -0.365 N 
HETATM   27  C1  UNL     1      24.510  16.138  61.299  1.00  0.00     0.181 C 
HETATM   28  N1  UNL     1      23.610  17.034  61.089  1.00  0.00    -0.374 N 
HETATM   29  N2  UNL     1      24.935  15.939  62.632  1.00  0.00    -0.064 NA
ATOM     30  H12 UNL     1      23.194  17.596  61.833  1.00  0.00     0.158 HD
ATOM     31  H11 UNL     1      23.303  17.177  60.128  1.00  0.00     0.158 HD
ATOM     32  H3  UNL     1      24.498  14.693  59.767  1.00  0.00     0.162 HD
ENDBRANCH  25  26
ENDBRANCH  24  25
ENDBRANCH  23  24
ENDBRANCH   1  23
TORSDOF 7
ENDMDL
MODEL 5
REMARK VINA RESULT: -7.082642131      4.339      6.850
REMARK  7 active torsions:
REMARK  status: ('A' for Active; 'I' for Inactive)
REMARK       I    between atoms: C1_4  and  N3_6 
REMARK    1  A    between atoms: N3_6  and  C2_8 
REMARK    2  A    between atoms: C2_8  and  C3_9 
REMARK    3  A    between atoms: C3_9  and  C4_10 
REMARK    4  A    between atoms: C4_10  and  N4_11 
REMARK       I    between atoms: C5_13  and  N6_15 
REMARK    5  A    between atoms: N6_15  and  S1_17 
REMARK    6  A    between atoms: S1_17  and  N7_20 
REMARK    7  A    between atoms: N7_20  and  C6_22 
ROOT
HETATM    1  N4  UNL     1      23.825  18.538  66.608  1.00  0.00    -0.364 N 
ATOM      2  H4  UNL     1      22.834  18.557  66.845  1.00  0.00     0.162 HD
HETATM    3  C5  UNL     1      24.207  18.469  65.383  1.00  0.00     0.199 C 
HETATM    4  N5  UNL     1      23.198  18.422  64.389  1.00  0.00    -0.063 NA
HETATM    5  N6  UNL     1      25.562  18.440  64.957  1.00  0.00    -0.240 N 
ATOM      6  H6  UNL     1      26.295  18.263  65.643  1.00  0.00     0.183 HD
ENDROOT
BRANCH   5   7
HETATM    7  S1  UNL     1      26.003  18.701  63.287  1.00  0.00     0.339 S 
HETATM    8  O1  UNL     1      25.729  20.180  62.985  1.00  0.00    -0.182 OA
HETATM    9  O2  UNL     1      27.463  18.525  63.204  1.00  0.00    -0.182 OA
BRANCH   7  10
HETATM   10  N7  UNL     1      25.044  17.787  62.262  1.00  0.00    -0.099 N 
ATOM     11  H7  UNL     1      24.272  18.315  61.854  1.00  0.00     0.199 HD
BRANCH  10  12
HETATM   12  C6  UNL     1      25.075  16.588  61.891  1.00  0.00     0.701 A 
HETATM   13  N8  UNL     1      25.906  16.091  60.973  1.00  0.00    -0.140 N 
HETATM   14  C7  UNL     1      25.831  14.792  60.660  1.00  0.00     0.342 A 
ATOM     15  H8  UNL     1      26.590  16.694  60.514  1.00  0.00     0.189 HD
HETATM   16  O3  UNL     1      26.623  14.338  59.792  1.00  0.00    -0.246 OA
HETATM   17  N9  UNL     1      24.943  13.954  61.241  1.00  0.00    -0.260 N 
HETATM   18  C8  UNL     1      24.097  14.435  62.169  1.00  0.00     0.342 A 
ATOM     19  H9  UNL     1      24.916  12.968  60.979  1.00  0.00     0.175 HD
HETATM   20  O4  UNL     1      23.255  13.664  62.726  1.00  0.00    -0.246 OA
HETATM   21  N10 UNL     1      24.169  15.734  62.483  1.00  0.00    -0.140 N 
ATOM     22  H10 UNL     1      23.530  16.106  63.185  1.00  0.00     0.189 HD
ENDBRANCH  10  12
ENDBRANCH   7  10
ENDBRANCH   5   7
BRANCH   1  23
HETATM   23  C4  UNL     1      24.828  18.586  67.634  1.00  0.00     0.124 C 
BRANCH  23  24
HETATM   24  C3  UNL     1      24.414  17.903  68.908  1.00  0.00     0.039 C 
BRANCH  24  25
HETATM   25  C2  UNL     1      23.106  17.180  68.821  1.00  0.00     0.123 C 
BRANCH  25  26
HETATM   26  N3  UNL     1      22.126  17.886  69.643  1.00  0.00    -0.365 N 
HETATM   27  C1  UNL     1      20.959  18.459  69.090  1.00  0.00     0.181 C 
HETATM   28  N1  UNL     1      19.771  18.039  69.355  1.00  0.00    -0.374 N 
HETATM   29  N2  UNL     1      21.083  19.547  68.197  1.00  0.00    -0.064 NA
ATOM     30  H12 UNL     1      18.928  18.453  68.956  1.00  0.00     0.158 HD
ATOM     31  H11 UNL     1      19.682  17.254  70.000  1.00  0.00     0.158 HD
ATOM     32  H3  UNL     1      22.290  17.967  70.646  1.00  0.00     0.162 HD
ENDBRANCH  25  26
ENDBRANCH  24  25
ENDBRANCH  23  24
ENDBRANCH   1  23
TORSDOF 7
ENDMDL
