MODEL 1
REMARK VINA RESULT: -7.491995202      0.000      0.000
REMARK  17 active torsions:
REMARK  status: ('A' for Active; 'I' for Inactive)
REMARK    1  A    between atoms: O1_2  and  C2_3 
REMARK    2  A    between atoms: C2_3  and  C3_5 
REMARK    3  A    between atoms: C3_5  and  N1_6 
REMARK       I    between atoms: N1_6  and  C4_8 
REMARK    4  A    between atoms: C4_8  and  C5_10 
REMARK       I    between atoms: C5_10  and  N2_12 
REMARK    5  A    between atoms: N2_12  and  N3_14 
REMARK    6  A    between atoms: C8_19  and  N4_20 
REMARK    7  A    between atoms: N4_20  and  C9_22 
REMARK    8  A    between atoms: C9_22  and  O5_23 
REMARK    9  A    between atoms: C9_22  and  C10_25 
REMARK   10  A    between atoms: C10_25  and  C11_26 
REMARK   11  A    between atoms: C10_25  and  N5_28 
REMARK   12  A    between atoms: N5_28  and  C12_31 
REMARK   13  A    between atoms: C12_31  and  C13_32 
REMARK   14  A    between atoms: C13_32  and  C14_33 
REMARK   15  A    between atoms: C14_33  and  N6_34 
REMARK   16  A    between atoms: C17_39  and  N8_40 
REMARK   17  A    between atoms: C18_45  and  N10_46 
ROOT
HETATM    1  C10 UNL     1      -6.827   2.985  64.562  1.00  0.00     0.294 C 
ENDROOT
BRANCH   1   2
HETATM    2  C9  UNL     1      -8.260   3.162  64.290  1.00  0.00     0.251 C 
BRANCH   2   3
HETATM    3  N4  UNL     1      -9.025   2.072  63.949  1.00  0.00    -0.387 N 
ATOM      4  H4  UNL     1      -8.662   1.479  63.203  1.00  0.00     0.156 HD
BRANCH   3   5
HETATM    5  C8  UNL     1     -10.252   1.684  64.515  1.00  0.00     0.105 C 
HETATM    6  C7  UNL     1     -10.328   1.818  65.956  1.00  0.00    -0.003 C 
HETATM    7  C6  UNL     1     -11.445   2.455  66.279  1.00  0.00     0.012 C 
HETATM    8  C3  UNL     1     -12.265   2.828  65.094  1.00  0.00     0.141 C 
HETATM    9  C20 UNL     1     -11.415   2.482  63.962  1.00  0.00     0.075 C 
BRANCH   8  10
HETATM   10  C2  UNL     1     -13.472   1.907  65.232  1.00  0.00     0.291 C 
HETATM   11  O2  UNL     1     -14.121   1.600  64.252  1.00  0.00    -0.262 OA
BRANCH  10  12
HETATM   12  O1  UNL     1     -13.770   1.463  66.485  1.00  0.00    -0.324 OA
HETATM   13  C1  UNL     1     -15.040   1.203  67.013  1.00  0.00     0.213 C 
ENDBRANCH  10  12
ENDBRANCH   8  10
BRANCH   8  14
HETATM   14  N1  UNL     1     -12.711   4.194  65.162  1.00  0.00    -0.331 N 
HETATM   15  C4  UNL     1     -11.880   5.338  65.213  1.00  0.00     0.312 C 
HETATM   16  O3  UNL     1     -10.654   5.233  65.231  1.00  0.00    -0.262 OA
ATOM     17  H1  UNL     1     -13.719   4.352  65.176  1.00  0.00     0.164 HD
BRANCH  15  18
HETATM   18  C5  UNL     1     -12.478   6.697  65.243  1.00  0.00     0.327 C 
HETATM   19  O4  UNL     1     -13.675   6.883  64.944  1.00  0.00    -0.261 OA
HETATM   20  N2  UNL     1     -11.694   7.817  65.617  1.00  0.00    -0.268 N 
ATOM     21  H2  UNL     1     -10.714   7.694  65.873  1.00  0.00     0.190 HD
BRANCH  20  22
HETATM   22  N3  UNL     1     -12.268   9.082  65.632  1.00  0.00    -0.342 N 
ATOM     23  H32 UNL     1     -12.910   9.346  64.884  1.00  0.00     0.176 HD
ATOM     24  H31 UNL     1     -12.042   9.728  66.388  1.00  0.00     0.176 HD
ENDBRANCH  20  22
ENDBRANCH  15  18
ENDBRANCH   8  14
ENDBRANCH   3   5
ENDBRANCH   2   3
BRANCH   2  25
HETATM   25  O5  UNL     1      -8.428   4.211  63.313  1.00  0.00    -0.375 OA
ATOM     26  H5  UNL     1      -7.928   4.978  63.567  1.00  0.00     0.212 HD
ENDBRANCH   2  25
ENDBRANCH   1   2
BRANCH   1  27
HETATM   27  C11 UNL     1      -6.540   1.558  64.925  1.00  0.00     0.268 C 
HETATM   28  O6  UNL     1      -6.411   0.664  64.111  1.00  0.00    -0.304 OA
ENDBRANCH   1  27
BRANCH   1  29
HETATM   29  N5  UNL     1      -6.420   3.728  65.791  1.00  0.00    -0.060 N 
ATOM     30  H52 UNL     1      -5.412   3.868  65.864  1.00  0.00     0.278 HD
ATOM     31  H51 UNL     1      -6.683   4.714  65.774  1.00  0.00     0.278 HD
BRANCH  29  32
HETATM   32  C12 UNL     1      -6.978   3.007  66.910  1.00  0.00     0.235 C 
BRANCH  32  33
HETATM   33  C13 UNL     1      -6.113   3.132  68.147  1.00  0.00     0.048 C 
BRANCH  33  34
HETATM   34  C14 UNL     1      -4.760   3.671  67.771  1.00  0.00     0.133 C 
BRANCH  34  35
HETATM   35  N6  UNL     1      -3.799   3.122  68.709  1.00  0.00    -0.327 N 
HETATM   36  C15 UNL     1      -4.127   2.151  69.614  1.00  0.00     0.185 A 
HETATM   37  N7  UNL     1      -3.053   1.845  70.353  1.00  0.00    -0.346 N 
HETATM   38  C16 UNL     1      -2.017   2.631  69.918  1.00  0.00     0.123 A 
ATOM     39  H7  UNL     1      -3.013   1.154  71.103  1.00  0.00     0.167 HD
HETATM   40  C17 UNL     1      -0.705   2.718  70.328  1.00  0.00     0.145 A 
HETATM   41  C19 UNL     1      -2.517   3.416  68.892  1.00  0.00     0.155 A 
HETATM   42  N9  UNL     1       0.103   3.599  69.701  1.00  0.00    -0.175 N 
HETATM   43  C18 UNL     1      -0.401   4.353  68.704  1.00  0.00     0.679 A 
ATOM     44  H9  UNL     1       1.081   3.693  69.978  1.00  0.00     0.186 HD
HETATM   45  N11 UNL     1      -1.661   4.288  68.290  1.00  0.00    -0.174 N 
ATOM     46  H11 UNL     1      -1.985   4.886  67.529  1.00  0.00     0.186 HD
BRANCH  40  47
HETATM   47  N8  UNL     1      -0.286   1.979  71.270  1.00  0.00    -0.383 N 
ATOM     48  H82 UNL     1      -0.561   2.136  72.240  1.00  0.00     0.157 HD
ATOM     49  H81 UNL     1       0.347   1.205  71.068  1.00  0.00     0.157 HD
ENDBRANCH  40  47
BRANCH  43  50
HETATM   50  N10 UNL     1       0.412   5.196  68.107  1.00  0.00    -0.234 N 
ATOM     51 2H10 UNL     1       0.926   5.864  68.681  1.00  0.00     0.174 HD
ATOM     52 1H10 UNL     1       0.485   5.143  67.091  1.00  0.00     0.174 HD
ENDBRANCH  43  50
ENDBRANCH  34  35
ENDBRANCH  33  34
ENDBRANCH  32  33
ENDBRANCH  29  32
ENDBRANCH   1  29
TORSDOF 17
ENDMDL
MODEL 2
REMARK VINA RESULT: -7.327131072      2.209      4.099
REMARK  17 active torsions:
REMARK  status: ('A' for Active; 'I' for Inactive)
REMARK    1  A    between atoms: O1_2  and  C2_3 
REMARK    2  A    between atoms: C2_3  and  C3_5 
REMARK    3  A    between atoms: C3_5  and  N1_6 
REMARK       I    between atoms: N1_6  and  C4_8 
REMARK    4  A    between atoms: C4_8  and  C5_10 
REMARK       I    between atoms: C5_10  and  N2_12 
REMARK    5  A    between atoms: N2_12  and  N3_14 
REMARK    6  A    between atoms: C8_19  and  N4_20 
REMARK    7  A    between atoms: N4_20  and  C9_22 
REMARK    8  A    between atoms: C9_22  and  O5_23 
REMARK    9  A    between atoms: C9_22  and  C10_25 
REMARK   10  A    between atoms: C10_25  and  C11_26 
REMARK   11  A    between atoms: C10_25  and  N5_28 
REMARK   12  A    between atoms: N5_28  and  C12_31 
REMARK   13  A    between atoms: C12_31  and  C13_32 
REMARK   14  A    between atoms: C13_32  and  C14_33 
REMARK   15  A    between atoms: C14_33  and  N6_34 
REMARK   16  A    between atoms: C17_39  and  N8_40 
REMARK   17  A    between atoms: C18_45  and  N10_46 
ROOT
HETATM    1  C10 UNL     1      -6.576   3.235  65.576  1.00  0.00     0.294 C 
ENDROOT
BRANCH   1   2
HETATM    2  C9  UNL     1      -7.604   4.262  65.356  1.00  0.00     0.251 C 
BRANCH   2   3
HETATM    3  N4  UNL     1      -8.436   4.167  64.267  1.00  0.00    -0.387 N 
ATOM      4  H4  UNL     1      -8.029   4.405  63.363  1.00  0.00     0.156 HD
BRANCH   3   5
HETATM    5  C8  UNL     1      -9.787   3.776  64.260  1.00  0.00     0.105 C 
HETATM    6  C7  UNL     1     -10.062   2.546  63.545  1.00  0.00    -0.003 C 
HETATM    7  C6  UNL     1     -10.804   1.753  64.306  1.00  0.00     0.012 C 
HETATM    8  C3  UNL     1     -11.125   2.353  65.629  1.00  0.00     0.141 C 
HETATM    9  C20 UNL     1     -10.332   3.574  65.660  1.00  0.00     0.075 C 
BRANCH   8  10
HETATM   10  C2  UNL     1     -12.621   2.620  65.510  1.00  0.00     0.291 C 
HETATM   11  O2  UNL     1     -13.141   3.493  66.176  1.00  0.00    -0.262 OA
BRANCH  10  12
HETATM   12  O1  UNL     1     -13.319   1.844  64.634  1.00  0.00    -0.324 OA
HETATM   13  C1  UNL     1     -14.679   1.940  64.313  1.00  0.00     0.213 C 
ENDBRANCH  10  12
ENDBRANCH   8  10
BRANCH   8  14
HETATM   14  N1  UNL     1     -10.904   1.422  66.704  1.00  0.00    -0.331 N 
HETATM   15  C4  UNL     1      -9.880   0.446  66.760  1.00  0.00     0.312 C 
HETATM   16  O3  UNL     1      -9.086   0.304  65.831  1.00  0.00    -0.262 OA
ATOM     17  H1  UNL     1     -11.543   1.470  67.497  1.00  0.00     0.164 HD
BRANCH  15  18
HETATM   18  C5  UNL     1      -9.744  -0.428  67.954  1.00  0.00     0.327 C 
HETATM   19  O4  UNL     1     -10.486  -1.417  68.117  1.00  0.00    -0.261 OA
HETATM   20  N2  UNL     1      -8.761  -0.151  68.935  1.00  0.00    -0.268 N 
ATOM     21  H2  UNL     1      -8.136   0.648  68.825  1.00  0.00     0.190 HD
BRANCH  20  22
HETATM   22  N3  UNL     1      -8.653  -0.975  70.049  1.00  0.00    -0.342 N 
ATOM     23  H32 UNL     1      -8.543  -1.980  69.917  1.00  0.00     0.176 HD
ATOM     24  H31 UNL     1      -8.686  -0.565  70.983  1.00  0.00     0.176 HD
ENDBRANCH  20  22
ENDBRANCH  15  18
ENDBRANCH   8  14
ENDBRANCH   3   5
ENDBRANCH   2   3
BRANCH   2  25
HETATM   25  O5  UNL     1      -6.984   5.565  65.395  1.00  0.00    -0.375 OA
ATOM     26  H5  UNL     1      -7.623   6.225  65.637  1.00  0.00     0.212 HD
ENDBRANCH   2  25
ENDBRANCH   1   2
BRANCH   1  27
HETATM   27  C11 UNL     1      -6.505   2.312  64.395  1.00  0.00     0.268 C 
HETATM   28  O6  UNL     1      -6.124   1.159  64.459  1.00  0.00    -0.304 OA
ENDBRANCH   1  27
BRANCH   1  29
HETATM   29  N5  UNL     1      -6.963   2.319  66.690  1.00  0.00    -0.060 N 
ATOM     30  H52 UNL     1      -7.586   1.568  66.396  1.00  0.00     0.278 HD
ATOM     31  H51 UNL     1      -6.196   1.729  67.012  1.00  0.00     0.278 HD
BRANCH  29  32
HETATM   32  C12 UNL     1      -7.521   3.151  67.729  1.00  0.00     0.235 C 
BRANCH  32  33
HETATM   33  C13 UNL     1      -6.530   3.391  68.849  1.00  0.00     0.048 C 
BRANCH  33  34
HETATM   34  C14 UNL     1      -5.644   2.187  69.012  1.00  0.00     0.133 C 
BRANCH  34  35
HETATM   35  N6  UNL     1      -4.271   2.656  69.005  1.00  0.00    -0.327 N 
HETATM   36  C15 UNL     1      -3.793   3.519  68.059  1.00  0.00     0.185 A 
HETATM   37  N7  UNL     1      -2.498   3.770  68.292  1.00  0.00    -0.346 N 
HETATM   38  C16 UNL     1      -2.136   3.057  69.406  1.00  0.00     0.123 A 
ATOM     39  H7  UNL     1      -1.893   4.380  67.741  1.00  0.00     0.167 HD
HETATM   40  C17 UNL     1      -0.935   2.957  70.072  1.00  0.00     0.145 A 
HETATM   41  C19 UNL     1      -3.265   2.374  69.826  1.00  0.00     0.155 A 
HETATM   42  N9  UNL     1      -0.874   2.165  71.163  1.00  0.00    -0.175 N 
HETATM   43  C18 UNL     1      -1.983   1.509  71.557  1.00  0.00     0.679 A 
ATOM     44  H9  UNL     1      -0.001   2.064  71.683  1.00  0.00     0.186 HD
HETATM   45  N11 UNL     1      -3.153   1.588  70.933  1.00  0.00    -0.174 N 
ATOM     46  H11 UNL     1      -3.958   1.066  71.279  1.00  0.00     0.186 HD
BRANCH  40  47
HETATM   47  N8  UNL     1       0.076   3.602  69.657  1.00  0.00    -0.383 N 
ATOM     48  H82 UNL     1       0.245   4.570  69.930  1.00  0.00     0.157 HD
ATOM     49  H81 UNL     1       0.745   3.154  69.030  1.00  0.00     0.157 HD
ENDBRANCH  40  47
BRANCH  43  50
HETATM   50  N10 UNL     1      -1.895   0.751  72.628  1.00  0.00    -0.234 N 
ATOM     51 2H10 UNL     1      -1.772   1.203  73.534  1.00  0.00     0.174 HD
ATOM     52 1H10 UNL     1      -1.950  -0.260  72.498  1.00  0.00     0.174 HD
ENDBRANCH  43  50
ENDBRANCH  34  35
ENDBRANCH  33  34
ENDBRANCH  32  33
ENDBRANCH  29  32
ENDBRANCH   1  29
TORSDOF 17
ENDMDL
MODEL 3
REMARK VINA RESULT: -7.310611539      3.187      6.550
REMARK  17 active torsions:
REMARK  status: ('A' for Active; 'I' for Inactive)
REMARK    1  A    between atoms: O1_2  and  C2_3 
REMARK    2  A    between atoms: C2_3  and  C3_5 
REMARK    3  A    between atoms: C3_5  and  N1_6 
REMARK       I    between atoms: N1_6  and  C4_8 
REMARK    4  A    between atoms: C4_8  and  C5_10 
REMARK       I    between atoms: C5_10  and  N2_12 
REMARK    5  A    between atoms: N2_12  and  N3_14 
REMARK    6  A    between atoms: C8_19  and  N4_20 
REMARK    7  A    between atoms: N4_20  and  C9_22 
REMARK    8  A    between atoms: C9_22  and  O5_23 
REMARK    9  A    between atoms: C9_22  and  C10_25 
REMARK   10  A    between atoms: C10_25  and  C11_26 
REMARK   11  A    between atoms: C10_25  and  N5_28 
REMARK   12  A    between atoms: N5_28  and  C12_31 
REMARK   13  A    between atoms: C12_31  and  C13_32 
REMARK   14  A    between atoms: C13_32  and  C14_33 
REMARK   15  A    between atoms: C14_33  and  N6_34 
REMARK   16  A    between atoms: C17_39  and  N8_40 
REMARK   17  A    between atoms: C18_45  and  N10_46 
ROOT
HETATM    1  C10 UNL     1     -10.089   5.958  68.572  1.00  0.00     0.294 C 
ENDROOT
BRANCH   1   2
HETATM    2  C9  UNL     1     -10.275   5.312  67.264  1.00  0.00     0.251 C 
BRANCH   2   3
HETATM    3  N4  UNL     1      -9.208   5.194  66.408  1.00  0.00    -0.387 N 
ATOM      4  H4  UNL     1      -8.681   6.047  66.220  1.00  0.00     0.156 HD
BRANCH   3   5
HETATM    5  C8  UNL     1      -8.760   4.028  65.762  1.00  0.00     0.105 C 
HETATM    6  C7  UNL     1      -7.850   4.255  64.657  1.00  0.00    -0.003 C 
HETATM    7  C6  UNL     1      -6.793   3.467  64.791  1.00  0.00     0.012 C 
HETATM    8  C3  UNL     1      -6.860   2.605  66.003  1.00  0.00     0.141 C 
HETATM    9  C20 UNL     1      -8.039   3.090  66.709  1.00  0.00     0.075 C 
BRANCH   8  10
HETATM   10  C2  UNL     1      -7.056   1.217  65.404  1.00  0.00     0.291 C 
HETATM   11  O2  UNL     1      -6.315   0.821  64.527  1.00  0.00    -0.262 OA
BRANCH  10  12
HETATM   12  O1  UNL     1      -8.083   0.471  65.899  1.00  0.00    -0.324 OA
HETATM   13  C1  UNL     1      -9.374   0.350  65.372  1.00  0.00     0.213 C 
ENDBRANCH  10  12
ENDBRANCH   8  10
BRANCH   8  14
HETATM   14  N1  UNL     1      -5.624   2.624  66.739  1.00  0.00    -0.331 N 
HETATM   15  C4  UNL     1      -5.210   3.631  67.643  1.00  0.00     0.312 C 
HETATM   16  O3  UNL     1      -5.905   4.625  67.850  1.00  0.00    -0.262 OA
ATOM     17  H1  UNL     1      -4.988   1.839  66.595  1.00  0.00     0.164 HD
BRANCH  15  18
HETATM   18  C5  UNL     1      -3.919   3.502  68.367  1.00  0.00     0.327 C 
HETATM   19  O4  UNL     1      -3.879   3.130  69.556  1.00  0.00    -0.261 OA
HETATM   20  N2  UNL     1      -2.699   3.803  67.712  1.00  0.00    -0.268 N 
ATOM     21  H2  UNL     1      -2.700   4.104  66.737  1.00  0.00     0.190 HD
BRANCH  20  22
HETATM   22  N3  UNL     1      -1.501   3.685  68.406  1.00  0.00    -0.342 N 
ATOM     23  H32 UNL     1      -1.505   3.278  69.341  1.00  0.00     0.176 HD
ATOM     24  H31 UNL     1      -0.635   4.007  67.974  1.00  0.00     0.176 HD
ENDBRANCH  20  22
ENDBRANCH  15  18
ENDBRANCH   8  14
ENDBRANCH   3   5
ENDBRANCH   2   3
BRANCH   2  25
HETATM   25  O5  UNL     1     -11.389   5.934  66.587  1.00  0.00    -0.375 OA
ATOM     26  H5  UNL     1     -11.791   6.585  67.150  1.00  0.00     0.212 HD
ENDBRANCH   2  25
ENDBRANCH   1   2
BRANCH   1  27
HETATM   27  C11 UNL     1     -10.028   7.448  68.410  1.00  0.00     0.268 C 
HETATM   28  O6  UNL     1      -9.400   8.009  67.533  1.00  0.00    -0.304 OA
ENDBRANCH   1  27
BRANCH   1  29
HETATM   29  N5  UNL     1      -8.749   5.631  69.144  1.00  0.00    -0.060 N 
ATOM     30  H52 UNL     1      -8.114   5.207  68.468  1.00  0.00     0.278 HD
ATOM     31  H51 UNL     1      -8.185   6.457  69.348  1.00  0.00     0.278 HD
BRANCH  29  32
HETATM   32  C12 UNL     1      -8.988   4.802  70.301  1.00  0.00     0.235 C 
BRANCH  32  33
HETATM   33  C13 UNL     1      -8.013   3.645  70.374  1.00  0.00     0.048 C 
BRANCH  33  34
HETATM   34  C14 UNL     1      -8.719   2.415  70.875  1.00  0.00     0.133 C 
BRANCH  34  35
HETATM   35  N6  UNL     1      -8.141   1.275  70.189  1.00  0.00    -0.327 N 
HETATM   36  C15 UNL     1      -8.846   0.521  69.292  1.00  0.00     0.185 A 
HETATM   37  N7  UNL     1      -8.069  -0.466  68.826  1.00  0.00    -0.346 N 
HETATM   38  C16 UNL     1      -6.845  -0.346  69.433  1.00  0.00     0.123 A 
ATOM     39  H7  UNL     1      -8.339  -1.176  68.145  1.00  0.00     0.167 HD
HETATM   40  C17 UNL     1      -5.693  -1.092  69.313  1.00  0.00     0.145 A 
HETATM   41  C19 UNL     1      -6.924   0.749  70.276  1.00  0.00     0.155 A 
HETATM   42  N9  UNL     1      -4.620  -0.730  70.048  1.00  0.00    -0.175 N 
HETATM   43  C18 UNL     1      -4.716   0.339  70.862  1.00  0.00     0.679 A 
ATOM     44  H9  UNL     1      -3.749  -1.258  69.987  1.00  0.00     0.186 HD
HETATM   45  N11 UNL     1      -5.814   1.074  70.995  1.00  0.00    -0.174 N 
ATOM     46  H11 UNL     1      -5.826   1.874  71.629  1.00  0.00     0.186 HD
BRANCH  40  47
HETATM   47  N8  UNL     1      -5.661  -2.086  68.527  1.00  0.00    -0.383 N 
ATOM     48  H82 UNL     1      -4.958  -2.168  67.793  1.00  0.00     0.157 HD
ATOM     49  H81 UNL     1      -6.352  -2.831  68.618  1.00  0.00     0.157 HD
ENDBRANCH  40  47
BRANCH  43  50
HETATM   50  N10 UNL     1      -3.651   0.672  71.559  1.00  0.00    -0.234 N 
ATOM     51 2H10 UNL     1      -2.960   1.285  71.127  1.00  0.00     0.174 HD
ATOM     52 1H10 UNL     1      -3.568   0.295  72.503  1.00  0.00     0.174 HD
ENDBRANCH  43  50
ENDBRANCH  34  35
ENDBRANCH  33  34
ENDBRANCH  32  33
ENDBRANCH  29  32
ENDBRANCH   1  29
TORSDOF 17
ENDMDL
MODEL 4
REMARK VINA RESULT: -7.295942959      3.334      7.938
REMARK  17 active torsions:
REMARK  status: ('A' for Active; 'I' for Inactive)
REMARK    1  A    between atoms: O1_2  and  C2_3 
REMARK    2  A    between atoms: C2_3  and  C3_5 
REMARK    3  A    between atoms: C3_5  and  N1_6 
REMARK       I    between atoms: N1_6  and  C4_8 
REMARK    4  A    between atoms: C4_8  and  C5_10 
REMARK       I    between atoms: C5_10  and  N2_12 
REMARK    5  A    between atoms: N2_12  and  N3_14 
REMARK    6  A    between atoms: C8_19  and  N4_20 
REMARK    7  A    between atoms: N4_20  and  C9_22 
REMARK    8  A    between atoms: C9_22  and  O5_23 
REMARK    9  A    between atoms: C9_22  and  C10_25 
REMARK   10  A    between atoms: C10_25  and  C11_26 
REMARK   11  A    between atoms: C10_25  and  N5_28 
REMARK   12  A    between atoms: N5_28  and  C12_31 
REMARK   13  A    between atoms: C12_31  and  C13_32 
REMARK   14  A    between atoms: C13_32  and  C14_33 
REMARK   15  A    between atoms: C14_33  and  N6_34 
REMARK   16  A    between atoms: C17_39  and  N8_40 
REMARK   17  A    between atoms: C18_45  and  N10_46 
ROOT
HETATM    1  C10 UNL     1      -8.466   0.829  64.780  1.00  0.00     0.294 C 
ENDROOT
BRANCH   1   2
HETATM    2  C9  UNL     1      -8.470   0.694  66.244  1.00  0.00     0.251 C 
BRANCH   2   3
HETATM    3  N4  UNL     1      -7.289   0.464  66.906  1.00  0.00    -0.387 N 
ATOM      4  H4  UNL     1      -6.491   0.195  66.330  1.00  0.00     0.156 HD
BRANCH   3   5
HETATM    5  C8  UNL     1      -7.057   0.558  68.290  1.00  0.00     0.105 C 
HETATM    6  C7  UNL     1      -6.373  -0.580  68.871  1.00  0.00    -0.003 C 
HETATM    7  C6  UNL     1      -5.365  -0.150  69.617  1.00  0.00     0.012 C 
HETATM    8  C3  UNL     1      -5.245   1.333  69.635  1.00  0.00     0.141 C 
HETATM    9  C20 UNL     1      -6.224   1.772  68.649  1.00  0.00     0.075 C 
BRANCH   8  10
HETATM   10  C2  UNL     1      -5.648   1.674  71.065  1.00  0.00     0.291 C 
HETATM   11  O2  UNL     1      -4.895   1.430  71.986  1.00  0.00    -0.262 OA
BRANCH  10  12
HETATM   12  O1  UNL     1      -6.868   2.254  71.241  1.00  0.00    -0.324 OA
HETATM   13  C1  UNL     1      -7.958   1.737  71.952  1.00  0.00     0.213 C 
ENDBRANCH  10  12
ENDBRANCH   8  10
BRANCH   8  14
HETATM   14  N1  UNL     1      -3.888   1.761  69.419  1.00  0.00    -0.331 N 
HETATM   15  C4  UNL     1      -3.473   3.073  69.091  1.00  0.00     0.312 C 
HETATM   16  O3  UNL     1      -4.291   3.978  68.931  1.00  0.00    -0.262 OA
ATOM     17  H1  UNL     1      -3.160   1.053  69.512  1.00  0.00     0.164 HD
BRANCH  15  18
HETATM   18  C5  UNL     1      -2.029   3.384  68.933  1.00  0.00     0.327 C 
HETATM   19  O4  UNL     1      -1.176   2.900  69.705  1.00  0.00    -0.261 OA
HETATM   20  N2  UNL     1      -1.590   4.242  67.895  1.00  0.00    -0.268 N 
ATOM     21  H2  UNL     1      -2.264   4.647  67.244  1.00  0.00     0.190 HD
BRANCH  20  22
HETATM   22  N3  UNL     1      -0.236   4.528  67.768  1.00  0.00    -0.342 N 
ATOM     23  H32 UNL     1       0.120   5.416  68.119  1.00  0.00     0.176 HD
ATOM     24  H31 UNL     1       0.382   3.847  67.326  1.00  0.00     0.176 HD
ENDBRANCH  20  22
ENDBRANCH  15  18
ENDBRANCH   8  14
ENDBRANCH   3   5
ENDBRANCH   2   3
BRANCH   2  25
HETATM   25  O5  UNL     1      -9.452  -0.294  66.622  1.00  0.00    -0.375 OA
ATOM     26  H5  UNL     1      -9.828  -0.695  65.847  1.00  0.00     0.212 HD
ENDBRANCH   2  25
ENDBRANCH   1   2
BRANCH   1  27
HETATM   27  C11 UNL     1      -7.061   0.976  64.276  1.00  0.00     0.268 C 
HETATM   28  O6  UNL     1      -6.510   2.047  64.107  1.00  0.00    -0.304 OA
ENDBRANCH   1  27
BRANCH   1  29
HETATM   29  N5  UNL     1      -9.105   2.112  64.360  1.00  0.00    -0.060 N 
ATOM     30  H52 UNL     1      -8.929   2.881  65.005  1.00  0.00     0.278 HD
ATOM     31  H51 UNL     1      -8.665   2.532  63.540  1.00  0.00     0.278 HD
BRANCH  29  32
HETATM   32  C12 UNL     1     -10.508   1.831  64.175  1.00  0.00     0.235 C 
BRANCH  32  33
HETATM   33  C13 UNL     1     -11.378   2.724  65.037  1.00  0.00     0.048 C 
BRANCH  33  34
HETATM   34  C14 UNL     1     -11.039   4.166  64.779  1.00  0.00     0.133 C 
BRANCH  34  35
HETATM   35  N6  UNL     1     -10.511   4.714  66.015  1.00  0.00    -0.327 N 
HETATM   36  C15 UNL     1     -11.307   5.303  66.958  1.00  0.00     0.185 A 
HETATM   37  N7  UNL     1     -10.554   5.724  67.982  1.00  0.00    -0.346 N 
HETATM   38  C16 UNL     1      -9.253   5.401  67.695  1.00  0.00     0.123 A 
ATOM     39  H7  UNL     1     -10.888   6.198  68.822  1.00  0.00     0.167 HD
HETATM   40  C17 UNL     1      -8.088   5.601  68.402  1.00  0.00     0.145 A 
HETATM   41  C19 UNL     1      -9.261   4.772  66.462  1.00  0.00     0.155 A 
HETATM   42  N9  UNL     1      -6.930   5.166  67.862  1.00  0.00    -0.175 N 
HETATM   43  C18 UNL     1      -6.959   4.555  66.661  1.00  0.00     0.679 A 
ATOM     44  H9  UNL     1      -6.046   5.297  68.355  1.00  0.00     0.186 HD
HETATM   45  N11 UNL     1      -8.068   4.350  65.959  1.00  0.00    -0.174 N 
ATOM     46  H11 UNL     1      -8.026   3.881  65.054  1.00  0.00     0.186 HD
BRANCH  40  47
HETATM   47  N8  UNL     1      -8.123   6.179  69.531  1.00  0.00    -0.383 N 
ATOM     48  H82 UNL     1      -7.476   6.930  69.771  1.00  0.00     0.157 HD
ATOM     49  H81 UNL     1      -8.811   5.895  70.228  1.00  0.00     0.157 HD
ENDBRANCH  40  47
BRANCH  43  50
HETATM   50  N10 UNL     1      -5.816   4.135  66.163  1.00  0.00    -0.234 N 
ATOM     51 2H10 UNL     1      -5.204   3.576  66.758  1.00  0.00     0.174 HD
ATOM     52 1H10 UNL     1      -5.596   4.394  65.201  1.00  0.00     0.174 HD
ENDBRANCH  43  50
ENDBRANCH  34  35
ENDBRANCH  33  34
ENDBRANCH  32  33
ENDBRANCH  29  32
ENDBRANCH   1  29
TORSDOF 17
ENDMDL
MODEL 5
REMARK VINA RESULT: -7.266392282      3.227      8.078
REMARK  17 active torsions:
REMARK  status: ('A' for Active; 'I' for Inactive)
REMARK    1  A    between atoms: O1_2  and  C2_3 
REMARK    2  A    between atoms: C2_3  and  C3_5 
REMARK    3  A    between atoms: C3_5  and  N1_6 
REMARK       I    between atoms: N1_6  and  C4_8 
REMARK    4  A    between atoms: C4_8  and  C5_10 
REMARK       I    between atoms: C5_10  and  N2_12 
REMARK    5  A    between atoms: N2_12  and  N3_14 
REMARK    6  A    between atoms: C8_19  and  N4_20 
REMARK    7  A    between atoms: N4_20  and  C9_22 
REMARK    8  A    between atoms: C9_22  and  O5_23 
REMARK    9  A    between atoms: C9_22  and  C10_25 
REMARK   10  A    between atoms: C10_25  and  C11_26 
REMARK   11  A    between atoms: C10_25  and  N5_28 
REMARK   12  A    between atoms: N5_28  and  C12_31 
REMARK   13  A    between atoms: C12_31  and  C13_32 
REMARK   14  A    between atoms: C13_32  and  C14_33 
REMARK   15  A    between atoms: C14_33  and  N6_34 
REMARK   16  A    between atoms: C17_39  and  N8_40 
REMARK   17  A    between atoms: C18_45  and  N10_46 
ROOT
HETATM    1  C10 UNL     1     -10.805   3.878  68.341  1.00  0.00     0.294 C 
ENDROOT
BRANCH   1   2
HETATM    2  C9  UNL     1      -9.458   3.340  68.581  1.00  0.00     0.251 C 
BRANCH   2   3
HETATM    3  N4  UNL     1      -9.283   2.337  69.504  1.00  0.00    -0.387 N 
ATOM      4  H4  UNL     1      -9.714   2.482  70.418  1.00  0.00     0.156 HD
BRANCH   3   5
HETATM    5  C8  UNL     1      -8.576   1.134  69.330  1.00  0.00     0.105 C 
HETATM    6  C7  UNL     1      -8.187   0.849  67.963  1.00  0.00    -0.003 C 
HETATM    7  C6  UNL     1      -6.903   0.522  67.933  1.00  0.00     0.012 C 
HETATM    8  C3  UNL     1      -6.265   0.544  69.277  1.00  0.00     0.141 C 
HETATM    9  C20 UNL     1      -7.297   1.100  70.142  1.00  0.00     0.075 C 
BRANCH   8  10
HETATM   10  C2  UNL     1      -6.007  -0.936  69.537  1.00  0.00     0.291 C 
HETATM   11  O2  UNL     1      -5.990  -1.724  68.613  1.00  0.00    -0.262 OA
BRANCH  10  12
HETATM   12  O1  UNL     1      -5.802  -1.310  70.831  1.00  0.00    -0.324 OA
HETATM   13  C1  UNL     1      -4.598  -1.723  71.414  1.00  0.00     0.213 C 
ENDBRANCH  10  12
ENDBRANCH   8  10
BRANCH   8  14
HETATM   14  N1  UNL     1      -5.006   1.239  69.259  1.00  0.00    -0.331 N 
HETATM   15  C4  UNL     1      -4.809   2.591  68.888  1.00  0.00     0.312 C 
HETATM   16  O3  UNL     1      -5.748   3.290  68.508  1.00  0.00    -0.262 OA
ATOM     17  H1  UNL     1      -4.180   0.710  69.539  1.00  0.00     0.164 HD
BRANCH  15  18
HETATM   18  C5  UNL     1      -3.453   3.194  68.952  1.00  0.00     0.327 C 
HETATM   19  O4  UNL     1      -2.887   3.395  70.045  1.00  0.00    -0.261 OA
HETATM   20  N2  UNL     1      -2.772   3.554  67.762  1.00  0.00    -0.268 N 
ATOM     21  H2  UNL     1      -3.208   3.395  66.853  1.00  0.00     0.190 HD
BRANCH  20  22
HETATM   22  N3  UNL     1      -1.508   4.125  67.842  1.00  0.00    -0.342 N 
ATOM     23  H32 UNL     1      -1.336   4.861  68.526  1.00  0.00     0.176 HD
ATOM     24  H31 UNL     1      -0.770   3.801  67.216  1.00  0.00     0.176 HD
ENDBRANCH  20  22
ENDBRANCH  15  18
ENDBRANCH   8  14
ENDBRANCH   3   5
ENDBRANCH   2   3
BRANCH   2  25
HETATM   25  O5  UNL     1      -8.557   4.434  68.859  1.00  0.00    -0.375 OA
ATOM     26  H5  UNL     1      -8.781   5.185  68.323  1.00  0.00     0.212 HD
ENDBRANCH   2  25
ENDBRANCH   1   2
BRANCH   1  27
HETATM   27  C11 UNL     1     -11.527   4.067  69.642  1.00  0.00     0.268 C 
HETATM   28  O6  UNL     1     -11.006   4.510  70.648  1.00  0.00    -0.304 OA
ENDBRANCH   1  27
BRANCH   1  29
HETATM   29  N5  UNL     1     -11.660   2.882  67.629  1.00  0.00    -0.060 N 
ATOM     30  H52 UNL     1     -11.126   2.132  67.190  1.00  0.00     0.278 HD
ATOM     31  H51 UNL     1     -12.207   2.295  68.260  1.00  0.00     0.278 HD
BRANCH  29  32
HETATM   32  C12 UNL     1     -12.470   3.628  66.697  1.00  0.00     0.235 C 
BRANCH  32  33
HETATM   33  C13 UNL     1     -12.463   3.000  65.318  1.00  0.00     0.048 C 
BRANCH  33  34
HETATM   34  C14 UNL     1     -11.615   3.823  64.388  1.00  0.00     0.133 C 
BRANCH  34  35
HETATM   35  N6  UNL     1     -10.295   3.220  64.358  1.00  0.00    -0.327 N 
HETATM   36  C15 UNL     1     -10.056   2.000  63.788  1.00  0.00     0.185 A 
HETATM   37  N7  UNL     1      -8.760   1.691  63.915  1.00  0.00    -0.346 N 
HETATM   38  C16 UNL     1      -8.153   2.728  64.577  1.00  0.00     0.123 A 
ATOM     39  H7  UNL     1      -8.306   0.840  63.581  1.00  0.00     0.167 HD
HETATM   40  C17 UNL     1      -6.844   2.922  64.961  1.00  0.00     0.145 A 
HETATM   41  C19 UNL     1      -9.139   3.665  64.838  1.00  0.00     0.155 A 
HETATM   42  N9  UNL     1      -6.532   4.064  65.609  1.00  0.00    -0.175 N 
HETATM   43  C18 UNL     1      -7.505   4.964  65.853  1.00  0.00     0.679 A 
ATOM     44  H9  UNL     1      -5.573   4.244  65.910  1.00  0.00     0.186 HD
HETATM   45  N11 UNL     1      -8.773   4.801  65.494  1.00  0.00    -0.174 N 
ATOM     46  H11 UNL     1      -9.466   5.519  65.707  1.00  0.00     0.186 HD
BRANCH  40  47
HETATM   47  N8  UNL     1      -5.970   2.041  64.700  1.00  0.00    -0.383 N 
ATOM     48  H82 UNL     1      -5.475   2.022  63.809  1.00  0.00     0.157 HD
ATOM     49  H81 UNL     1      -5.747   1.324  65.390  1.00  0.00     0.157 HD
ENDBRANCH  40  47
BRANCH  43  50
HETATM   50  N10 UNL     1      -7.169   6.071  66.480  1.00  0.00    -0.234 N 
ATOM     51 2H10 UNL     1      -7.190   6.077  67.499  1.00  0.00     0.174 HD
ATOM     52 1H10 UNL     1      -6.906   6.875  65.910  1.00  0.00     0.174 HD
ENDBRANCH  43  50
ENDBRANCH  34  35
ENDBRANCH  33  34
ENDBRANCH  32  33
ENDBRANCH  29  32
ENDBRANCH   1  29
TORSDOF 17
ENDMDL
