MODEL 1
REMARK VINA RESULT: -10.211920878      0.000      0.000
REMARK  13 active torsions:
REMARK  status: ('A' for Active; 'I' for Inactive)
REMARK    1  A    between atoms: C2_2  and  C4_4 
REMARK    2  A    between atoms: C4_4  and  C5_5 
REMARK    3  A    between atoms: C5_5  and  N1_6 
REMARK    4  A    between atoms: C5_5  and  C25_38 
REMARK    5  A    between atoms: N1_6  and  C6_8 
REMARK    6  A    between atoms: C6_8  and  O1_9 
REMARK    7  A    between atoms: C7_11  and  N2_12 
REMARK    8  A    between atoms: C7_11  and  C21_34 
REMARK       I    between atoms: N2_12  and  C8_14 
REMARK    9  A    between atoms: C8_14  and  O3_16 
REMARK   10  A    between atoms: O3_16  and  C9_17 
REMARK   11  A    between atoms: C9_17  and  C11_19 
REMARK       I    between atoms: C11_19  and  N3_21 
REMARK   12  A    between atoms: N3_21  and  C12_23 
REMARK       I    between atoms: N4_26  and  C15_27 
REMARK   13  A    between atoms: C15_27  and  C16_29 
REMARK       I    between atoms: C25_38  and  N5_40 
ROOT
HETATM    1  C6  UNL     1     -14.714 -21.490  17.299  1.00  0.00     0.160 C 
HETATM    2  C7  UNL     1     -15.256 -21.082  16.067  1.00  0.00     0.072 C 
ENDROOT
BRANCH   2   3
HETATM    3  N2  UNL     1     -14.577 -20.551  14.946  1.00  0.00    -0.301 N 
HETATM    4  C8  UNL     1     -13.223 -20.877  14.581  1.00  0.00     0.365 C 
HETATM    5  O2  UNL     1     -12.480 -21.687  15.018  1.00  0.00    -0.238 OA
ATOM      6  H2  UNL     1     -15.082 -19.892  14.354  1.00  0.00     0.171 HD
BRANCH   4   7
HETATM    7  O3  UNL     1     -12.734 -20.006  13.517  1.00  0.00    -0.289 OA
BRANCH   7   8
HETATM    8  C9  UNL     1     -12.796 -18.654  13.712  1.00  0.00     0.221 C 
HETATM    9  C10 UNL     1     -12.202 -18.165  12.242  1.00  0.00     0.050 C 
BRANCH   8  10
HETATM   10  C11 UNL     1     -11.860 -17.954  14.568  1.00  0.00     0.251 C 
HETATM   11  O4  UNL     1     -12.171 -17.598  15.725  1.00  0.00    -0.270 OA
HETATM   12  N3  UNL     1     -10.583 -17.697  14.048  1.00  0.00    -0.332 N 
ATOM     13  H3  UNL     1     -10.499 -17.981  13.072  1.00  0.00     0.168 HD
BRANCH  12  14
HETATM   14  C12 UNL     1      -9.409 -17.151  14.538  1.00  0.00    -0.007 C 
HETATM   15  C13 UNL     1      -9.074 -15.683  14.424  1.00  0.00     0.072 C 
HETATM   16  C14 UNL     1      -8.077 -15.387  15.564  1.00  0.00     0.131 C 
HETATM   17  N4  UNL     1      -6.990 -16.353  15.591  1.00  0.00    -0.351 N 
HETATM   18  C15 UNL     1      -5.701 -15.894  15.925  1.00  0.00     0.224 C 
HETATM   19  C19 UNL     1      -7.223 -17.762  15.402  1.00  0.00     0.131 C 
HETATM   20  O5  UNL     1      -5.608 -14.656  16.280  1.00  0.00    -0.273 OA
HETATM   21  C20 UNL     1      -8.175 -17.979  14.255  1.00  0.00     0.072 C 
BRANCH  18  22
HETATM   22  C16 UNL     1      -4.428 -16.620  15.928  1.00  0.00     0.078 A 
HETATM   23  C17 UNL     1      -4.168 -17.305  17.304  1.00  0.00     0.015 A 
HETATM   24  C18 UNL     1      -3.220 -16.328  16.677  1.00  0.00     0.015 A 
ENDBRANCH  18  22
ENDBRANCH  12  14
ENDBRANCH   8  10
ENDBRANCH   7   8
ENDBRANCH   4   7
ENDBRANCH   2   3
BRANCH   2  25
HETATM   25  C21 UNL     1     -16.312 -22.124  15.547  1.00  0.00    -0.004 C 
HETATM   26  C22 UNL     1     -16.873 -22.901  16.693  1.00  0.00     0.021 C 
HETATM   27  C23 UNL     1     -17.504 -21.326  14.977  1.00  0.00     0.021 C 
HETATM   28  C24 UNL     1     -15.782 -22.951  14.440  1.00  0.00     0.021 C 
ENDBRANCH   2  25
BRANCH   1  29
HETATM   29  N1  UNL     1     -13.630 -22.334  17.690  1.00  0.00    -0.356 N 
ATOM     30  H1  UNL     1     -13.505 -23.256  17.273  1.00  0.00     0.162 HD
BRANCH  29  31
HETATM   31  C5  UNL     1     -12.691 -21.831  18.721  1.00  0.00     0.176 C 
BRANCH  31  32
HETATM   32  C4  UNL     1     -12.574 -23.141  19.610  1.00  0.00     0.038 C 
BRANCH  32  33
HETATM   33  C2  UNL     1     -13.087 -23.024  20.972  1.00  0.00    -0.020 C 
HETATM   34  C1  UNL     1     -13.403 -21.604  21.381  1.00  0.00     0.009 C 
HETATM   35  C3  UNL     1     -14.388 -23.814  21.117  1.00  0.00     0.009 C 
ENDBRANCH  32  33
ENDBRANCH  31  32
BRANCH  31  36
HETATM   36  C25 UNL     1     -11.339 -21.569  18.287  1.00  0.00     0.242 C 
HETATM   37  O6  UNL     1     -10.679 -22.449  17.685  1.00  0.00    -0.271 OA
HETATM   38  N5  UNL     1     -10.666 -20.339  18.528  1.00  0.00    -0.350 N 
HETATM   39  C26 UNL     1      -9.233 -20.115  18.404  1.00  0.00     0.131 C 
HETATM   40  C29 UNL     1     -11.155 -19.001  18.851  1.00  0.00     0.131 C 
HETATM   41  C27 UNL     1      -9.000 -19.468  19.789  1.00  0.00     0.018 A 
HETATM   42  C28 UNL     1     -10.283 -18.573  19.966  1.00  0.00     0.018 A 
HETATM   43  C30 UNL     1      -8.944 -18.017  19.954  1.00  0.00    -0.036 A 
HETATM   44  C31 UNL     1      -8.306 -17.248  18.832  1.00  0.00     0.015 C 
HETATM   45  C32 UNL     1      -8.427 -17.576  21.337  1.00  0.00     0.015 C 
ENDBRANCH  31  36
ENDBRANCH  29  31
ENDBRANCH   1  29
BRANCH   1  46
HETATM   46  O1  UNL     1     -15.339 -21.000  18.377  1.00  0.00    -0.345 OA
ATOM     47  H1  UNL     1     -15.847 -21.680  18.803  1.00  0.00     0.219 HD
ENDBRANCH   1  46
TORSDOF 13
ENDMDL
MODEL 2
REMARK VINA RESULT: -9.791977016      2.675      5.948
REMARK  13 active torsions:
REMARK  status: ('A' for Active; 'I' for Inactive)
REMARK    1  A    between atoms: C2_2  and  C4_4 
REMARK    2  A    between atoms: C4_4  and  C5_5 
REMARK    3  A    between atoms: C5_5  and  N1_6 
REMARK    4  A    between atoms: C5_5  and  C25_38 
REMARK    5  A    between atoms: N1_6  and  C6_8 
REMARK    6  A    between atoms: C6_8  and  O1_9 
REMARK    7  A    between atoms: C7_11  and  N2_12 
REMARK    8  A    between atoms: C7_11  and  C21_34 
REMARK       I    between atoms: N2_12  and  C8_14 
REMARK    9  A    between atoms: C8_14  and  O3_16 
REMARK   10  A    between atoms: O3_16  and  C9_17 
REMARK   11  A    between atoms: C9_17  and  C11_19 
REMARK       I    between atoms: C11_19  and  N3_21 
REMARK   12  A    between atoms: N3_21  and  C12_23 
REMARK       I    between atoms: N4_26  and  C15_27 
REMARK   13  A    between atoms: C15_27  and  C16_29 
REMARK       I    between atoms: C25_38  and  N5_40 
ROOT
HETATM    1  C6  UNL     1     -13.704 -23.745  18.691  1.00  0.00     0.160 C 
HETATM    2  C7  UNL     1     -12.637 -23.094  19.333  1.00  0.00     0.072 C 
ENDROOT
BRANCH   2   3
HETATM    3  N2  UNL     1     -11.862 -22.009  18.862  1.00  0.00    -0.301 N 
HETATM    4  C8  UNL     1     -10.840 -22.113  17.855  1.00  0.00     0.365 C 
HETATM    5  O2  UNL     1     -10.529 -23.018  17.159  1.00  0.00    -0.238 OA
ATOM      6  H2  UNL     1     -12.042 -21.089  19.263  1.00  0.00     0.171 HD
BRANCH   4   7
HETATM    7  O3  UNL     1     -10.072 -20.877  17.747  1.00  0.00    -0.289 OA
BRANCH   7   8
HETATM    8  C9  UNL     1     -10.372 -19.855  18.605  1.00  0.00     0.221 C 
HETATM    9  C10 UNL     1     -10.046 -18.580  17.595  1.00  0.00     0.050 C 
BRANCH   8  10
HETATM   10  C11 UNL     1      -9.501 -19.490  19.704  1.00  0.00     0.251 C 
HETATM   11  O4  UNL     1      -9.880 -19.565  20.893  1.00  0.00    -0.270 OA
HETATM   12  N3  UNL     1      -8.208 -19.052  19.380  1.00  0.00    -0.332 N 
ATOM     13  H3  UNL     1      -8.067 -18.975  18.373  1.00  0.00     0.168 HD
BRANCH  12  14
HETATM   14  C12 UNL     1      -7.077 -18.700  20.096  1.00  0.00    -0.007 C 
HETATM   15  C13 UNL     1      -7.135 -18.009  21.437  1.00  0.00     0.072 C 
HETATM   16  C14 UNL     1      -5.806 -18.346  22.146  1.00  0.00     0.131 C 
HETATM   17  N4  UNL     1      -4.661 -18.105  21.282  1.00  0.00    -0.351 N 
HETATM   18  C15 UNL     1      -3.485 -17.592  21.865  1.00  0.00     0.224 C 
HETATM   19  C19 UNL     1      -4.667 -18.481  19.892  1.00  0.00     0.131 C 
HETATM   20  O5  UNL     1      -3.489 -17.471  23.151  1.00  0.00    -0.273 OA
HETATM   21  C20 UNL     1      -5.976 -18.091  19.256  1.00  0.00     0.072 C 
BRANCH  18  22
HETATM   22  C16 UNL     1      -2.239 -17.167  21.222  1.00  0.00     0.078 A 
HETATM   23  C17 UNL     1      -1.225 -18.346  21.115  1.00  0.00     0.015 A 
HETATM   24  C18 UNL     1      -0.915 -17.051  21.803  1.00  0.00     0.015 A 
ENDBRANCH  18  22
ENDBRANCH  12  14
ENDBRANCH   8  10
ENDBRANCH   7   8
ENDBRANCH   4   7
ENDBRANCH   2   3
BRANCH   2  25
HETATM   25  C21 UNL     1     -12.972 -22.830  20.848  1.00  0.00    -0.004 C 
HETATM   26  C22 UNL     1     -11.719 -22.845  21.661  1.00  0.00     0.021 C 
HETATM   27  C23 UNL     1     -13.507 -21.386  20.955  1.00  0.00     0.021 C 
HETATM   28  C24 UNL     1     -14.043 -23.721  21.345  1.00  0.00     0.021 C 
ENDBRANCH   2  25
BRANCH   1  29
HETATM   29  N1  UNL     1     -14.901 -23.313  18.040  1.00  0.00    -0.356 N 
ATOM     30  H1  UNL     1     -15.818 -23.528  18.431  1.00  0.00     0.162 HD
BRANCH  29  31
HETATM   31  C5  UNL     1     -14.771 -22.544  16.780  1.00  0.00     0.176 C 
BRANCH  31  32
HETATM   32  C4  UNL     1     -16.293 -22.546  16.330  1.00  0.00     0.038 C 
BRANCH  32  33
HETATM   33  C2  UNL     1     -16.539 -22.164  14.943  1.00  0.00    -0.020 C 
HETATM   34  C1  UNL     1     -17.030 -23.301  14.078  1.00  0.00     0.009 C 
HETATM   35  C3  UNL     1     -17.612 -21.077  14.875  1.00  0.00     0.009 C 
ENDBRANCH  32  33
ENDBRANCH  31  32
BRANCH  31  36
HETATM   36  C25 UNL     1     -14.436 -21.146  16.911  1.00  0.00     0.242 C 
HETATM   37  O6  UNL     1     -14.981 -20.438  17.791  1.00  0.00    -0.271 OA
HETATM   38  N5  UNL     1     -13.512 -20.480  16.059  1.00  0.00    -0.350 N 
HETATM   39  C26 UNL     1     -13.361 -19.038  15.928  1.00  0.00     0.131 C 
HETATM   40  C29 UNL     1     -12.445 -20.976  15.192  1.00  0.00     0.131 C 
HETATM   41  C27 UNL     1     -13.451 -18.955  14.387  1.00  0.00     0.018 A 
HETATM   42  C28 UNL     1     -12.649 -20.232  13.931  1.00  0.00     0.018 A 
HETATM   43  C30 UNL     1     -12.251 -18.889  13.555  1.00  0.00    -0.036 A 
HETATM   44  C31 UNL     1     -11.097 -18.109  14.118  1.00  0.00     0.015 C 
HETATM   45  C32 UNL     1     -12.541 -18.529  12.085  1.00  0.00     0.015 C 
ENDBRANCH  31  36
ENDBRANCH  29  31
ENDBRANCH   1  29
BRANCH   1  46
HETATM   46  O1  UNL     1     -13.618 -25.081  18.672  1.00  0.00    -0.345 OA
ATOM     47  H1  UNL     1     -12.799 -25.356  18.277  1.00  0.00     0.219 HD
ENDBRANCH   1  46
TORSDOF 13
ENDMDL
MODEL 3
REMARK VINA RESULT: -9.605087979      2.030      5.928
REMARK  13 active torsions:
REMARK  status: ('A' for Active; 'I' for Inactive)
REMARK    1  A    between atoms: C2_2  and  C4_4 
REMARK    2  A    between atoms: C4_4  and  C5_5 
REMARK    3  A    between atoms: C5_5  and  N1_6 
REMARK    4  A    between atoms: C5_5  and  C25_38 
REMARK    5  A    between atoms: N1_6  and  C6_8 
REMARK    6  A    between atoms: C6_8  and  O1_9 
REMARK    7  A    between atoms: C7_11  and  N2_12 
REMARK    8  A    between atoms: C7_11  and  C21_34 
REMARK       I    between atoms: N2_12  and  C8_14 
REMARK    9  A    between atoms: C8_14  and  O3_16 
REMARK   10  A    between atoms: O3_16  and  C9_17 
REMARK   11  A    between atoms: C9_17  and  C11_19 
REMARK       I    between atoms: C11_19  and  N3_21 
REMARK   12  A    between atoms: N3_21  and  C12_23 
REMARK       I    between atoms: N4_26  and  C15_27 
REMARK   13  A    between atoms: C15_27  and  C16_29 
REMARK       I    between atoms: C25_38  and  N5_40 
ROOT
HETATM    1  C6  UNL     1     -11.992 -18.437  15.075  1.00  0.00     0.160 C 
HETATM    2  C7  UNL     1     -11.124 -17.773  15.960  1.00  0.00     0.072 C 
ENDROOT
BRANCH   2   3
HETATM    3  N2  UNL     1     -10.839 -18.091  17.308  1.00  0.00    -0.301 N 
HETATM    4  C8  UNL     1     -11.815 -18.121  18.364  1.00  0.00     0.365 C 
HETATM    5  O2  UNL     1     -12.994 -18.027  18.329  1.00  0.00    -0.238 OA
ATOM      6  H2  UNL     1      -9.873 -18.314  17.548  1.00  0.00     0.171 HD
BRANCH   4   7
HETATM    7  O3  UNL     1     -11.182 -18.259  19.671  1.00  0.00    -0.289 OA
BRANCH   7   8
HETATM    8  C9  UNL     1     -10.379 -19.346  19.887  1.00  0.00     0.221 C 
HETATM    9  C10 UNL     1      -9.923 -19.011  21.446  1.00  0.00     0.050 C 
BRANCH   8  10
HETATM   10  C11 UNL     1      -9.062 -19.462  19.296  1.00  0.00     0.251 C 
HETATM   11  O4  UNL     1      -8.819 -20.297  18.398  1.00  0.00    -0.270 OA
HETATM   12  N3  UNL     1      -8.068 -18.592  19.766  1.00  0.00    -0.332 N 
ATOM     13  H3  UNL     1      -8.394 -18.018  20.545  1.00  0.00     0.168 HD
BRANCH  12  14
HETATM   14  C12 UNL     1      -6.752 -18.323  19.431  1.00  0.00    -0.007 C 
HETATM   15  C13 UNL     1      -5.615 -18.416  20.420  1.00  0.00     0.072 C 
HETATM   16  C14 UNL     1      -4.343 -18.656  19.581  1.00  0.00     0.131 C 
HETATM   17  N4  UNL     1      -4.238 -17.710  18.481  1.00  0.00    -0.351 N 
HETATM   18  C15 UNL     1      -2.959 -17.231  18.136  1.00  0.00     0.224 C 
HETATM   19  C19 UNL     1      -5.379 -17.351  17.679  1.00  0.00     0.131 C 
HETATM   20  O5  UNL     1      -1.962 -17.755  18.768  1.00  0.00    -0.273 OA
HETATM   21  C20 UNL     1      -6.573 -17.097  18.562  1.00  0.00     0.072 C 
BRANCH  18  22
HETATM   22  C16 UNL     1      -2.583 -16.211  17.153  1.00  0.00     0.078 A 
HETATM   23  C17 UNL     1      -2.401 -16.829  15.734  1.00  0.00     0.015 A 
HETATM   24  C18 UNL     1      -1.328 -16.058  16.441  1.00  0.00     0.015 A 
ENDBRANCH  18  22
ENDBRANCH  12  14
ENDBRANCH   8  10
ENDBRANCH   7   8
ENDBRANCH   4   7
ENDBRANCH   2   3
BRANCH   2  25
HETATM   25  C21 UNL     1      -9.769 -17.411  15.248  1.00  0.00    -0.004 C 
HETATM   26  C22 UNL     1      -9.051 -16.353  16.020  1.00  0.00     0.021 C 
HETATM   27  C23 UNL     1      -8.861 -18.656  15.328  1.00  0.00     0.021 C 
HETATM   28  C24 UNL     1      -9.957 -17.109  13.812  1.00  0.00     0.021 C 
ENDBRANCH   2  25
BRANCH   1  29
HETATM   29  N1  UNL     1     -12.181 -19.798  14.683  1.00  0.00    -0.356 N 
ATOM     30  H1  UNL     1     -11.819 -20.143  13.794  1.00  0.00     0.162 HD
BRANCH  29  31
HETATM   31  C5  UNL     1     -12.919 -20.694  15.605  1.00  0.00     0.176 C 
BRANCH  31  32
HETATM   32  C4  UNL     1     -13.414 -21.777  14.556  1.00  0.00     0.038 C 
BRANCH  32  33
HETATM   33  C2  UNL     1     -14.580 -22.557  14.960  1.00  0.00    -0.020 C 
HETATM   34  C1  UNL     1     -15.750 -21.712  15.404  1.00  0.00     0.009 C 
HETATM   35  C3  UNL     1     -15.080 -23.406  13.790  1.00  0.00     0.009 C 
ENDBRANCH  32  33
ENDBRANCH  31  32
BRANCH  31  36
HETATM   36  C25 UNL     1     -12.123 -21.444  16.547  1.00  0.00     0.242 C 
HETATM   37  O6  UNL     1     -10.950 -21.786  16.264  1.00  0.00    -0.271 OA
HETATM   38  N5  UNL     1     -12.605 -21.863  17.819  1.00  0.00    -0.350 N 
HETATM   39  C26 UNL     1     -11.989 -22.867  18.674  1.00  0.00     0.131 C 
HETATM   40  C29 UNL     1     -13.714 -21.397  18.648  1.00  0.00     0.131 C 
HETATM   41  C27 UNL     1     -13.245 -23.732  18.924  1.00  0.00     0.018 A 
HETATM   42  C28 UNL     1     -14.379 -22.648  19.070  1.00  0.00     0.018 A 
HETATM   43  C30 UNL     1     -14.050 -23.578  20.135  1.00  0.00    -0.036 A 
HETATM   44  C31 UNL     1     -13.296 -23.261  21.395  1.00  0.00     0.015 C 
HETATM   45  C32 UNL     1     -15.081 -24.705  20.335  1.00  0.00     0.015 C 
ENDBRANCH  31  36
ENDBRANCH  29  31
ENDBRANCH   1  29
BRANCH   1  46
HETATM   46  O1  UNL     1     -12.850 -17.640  14.425  1.00  0.00    -0.345 OA
ATOM     47  H1  UNL     1     -13.088 -16.897  14.967  1.00  0.00     0.219 HD
ENDBRANCH   1  46
TORSDOF 13
ENDMDL
MODEL 4
REMARK VINA RESULT: -9.556606162      1.991      5.377
REMARK  13 active torsions:
REMARK  status: ('A' for Active; 'I' for Inactive)
REMARK    1  A    between atoms: C2_2  and  C4_4 
REMARK    2  A    between atoms: C4_4  and  C5_5 
REMARK    3  A    between atoms: C5_5  and  N1_6 
REMARK    4  A    between atoms: C5_5  and  C25_38 
REMARK    5  A    between atoms: N1_6  and  C6_8 
REMARK    6  A    between atoms: C6_8  and  O1_9 
REMARK    7  A    between atoms: C7_11  and  N2_12 
REMARK    8  A    between atoms: C7_11  and  C21_34 
REMARK       I    between atoms: N2_12  and  C8_14 
REMARK    9  A    between atoms: C8_14  and  O3_16 
REMARK   10  A    between atoms: O3_16  and  C9_17 
REMARK   11  A    between atoms: C9_17  and  C11_19 
REMARK       I    between atoms: C11_19  and  N3_21 
REMARK   12  A    between atoms: N3_21  and  C12_23 
REMARK       I    between atoms: N4_26  and  C15_27 
REMARK   13  A    between atoms: C15_27  and  C16_29 
REMARK       I    between atoms: C25_38  and  N5_40 
ROOT
HETATM    1  C6  UNL     1     -13.637 -23.685  18.684  1.00  0.00     0.160 C 
HETATM    2  C7  UNL     1     -12.597 -23.023  19.359  1.00  0.00     0.072 C 
ENDROOT
BRANCH   2   3
HETATM    3  N2  UNL     1     -11.861 -21.892  18.937  1.00  0.00    -0.301 N 
HETATM    4  C8  UNL     1     -10.821 -21.918  17.943  1.00  0.00     0.365 C 
HETATM    5  O2  UNL     1     -10.463 -22.785  17.222  1.00  0.00    -0.238 OA
ATOM      6  H2  UNL     1     -12.084 -20.994  19.366  1.00  0.00     0.171 HD
BRANCH   4   7
HETATM    7  O3  UNL     1     -10.103 -20.649  17.889  1.00  0.00    -0.289 OA
BRANCH   7   8
HETATM    8  C9  UNL     1     -10.052 -19.889  19.026  1.00  0.00     0.221 C 
HETATM    9  C10 UNL     1     -11.124 -18.704  18.580  1.00  0.00     0.050 C 
BRANCH   8  10
HETATM   10  C11 UNL     1      -8.916 -19.046  19.340  1.00  0.00     0.251 C 
HETATM   11  O4  UNL     1      -8.634 -18.741  20.519  1.00  0.00    -0.270 OA
HETATM   12  N3  UNL     1      -8.139 -18.590  18.266  1.00  0.00    -0.332 N 
ATOM     13  H3  UNL     1      -8.531 -18.860  17.363  1.00  0.00     0.168 HD
BRANCH  12  14
HETATM   14  C12 UNL     1      -6.969 -17.862  18.133  1.00  0.00    -0.007 C 
HETATM   15  C13 UNL     1      -5.896 -17.829  19.195  1.00  0.00     0.072 C 
HETATM   16  C14 UNL     1      -4.587 -17.468  18.463  1.00  0.00     0.131 C 
HETATM   17  N4  UNL     1      -4.755 -16.309  17.600  1.00  0.00    -0.351 N 
HETATM   18  C15 UNL     1      -3.687 -15.396  17.499  1.00  0.00     0.224 C 
HETATM   19  C19 UNL     1      -5.923 -16.141  16.775  1.00  0.00     0.131 C 
HETATM   20  O5  UNL     1      -2.596 -15.720  18.109  1.00  0.00    -0.273 OA
HETATM   21  C20 UNL     1      -7.164 -16.475  17.562  1.00  0.00     0.072 C 
BRANCH  18  22
HETATM   22  C16 UNL     1      -3.626 -14.112  16.795  1.00  0.00     0.078 A 
HETATM   23  C17 UNL     1      -3.220 -14.302  15.301  1.00  0.00     0.015 A 
HETATM   24  C18 UNL     1      -2.465 -13.429  16.257  1.00  0.00     0.015 A 
ENDBRANCH  18  22
ENDBRANCH  12  14
ENDBRANCH   8  10
ENDBRANCH   7   8
ENDBRANCH   4   7
ENDBRANCH   2   3
BRANCH   2  25
HETATM   25  C21 UNL     1     -12.947 -22.835  20.881  1.00  0.00    -0.004 C 
HETATM   26  C22 UNL     1     -11.698 -22.856  21.700  1.00  0.00     0.021 C 
HETATM   27  C23 UNL     1     -13.519 -21.412  21.049  1.00  0.00     0.021 C 
HETATM   28  C24 UNL     1     -13.997 -23.775  21.331  1.00  0.00     0.021 C 
ENDBRANCH   2  25
BRANCH   1  29
HETATM   29  N1  UNL     1     -14.847 -23.270  18.046  1.00  0.00    -0.356 N 
ATOM     30  H1  UNL     1     -15.756 -23.492  18.450  1.00  0.00     0.162 HD
BRANCH  29  31
HETATM   31  C5  UNL     1     -14.741 -22.507  16.780  1.00  0.00     0.176 C 
BRANCH  31  32
HETATM   32  C4  UNL     1     -16.270 -22.519  16.355  1.00  0.00     0.038 C 
BRANCH  32  33
HETATM   33  C2  UNL     1     -16.540 -22.156  14.967  1.00  0.00    -0.020 C 
HETATM   34  C1  UNL     1     -16.976 -23.321  14.109  1.00  0.00     0.009 C 
HETATM   35  C3  UNL     1     -17.668 -21.125  14.899  1.00  0.00     0.009 C 
ENDBRANCH  32  33
ENDBRANCH  31  32
BRANCH  31  36
HETATM   36  C25 UNL     1     -14.412 -21.107  16.898  1.00  0.00     0.242 C 
HETATM   37  O6  UNL     1     -14.962 -20.392  17.770  1.00  0.00    -0.271 OA
HETATM   38  N5  UNL     1     -13.488 -20.446  16.042  1.00  0.00    -0.350 N 
HETATM   39  C26 UNL     1     -13.341 -19.005  15.897  1.00  0.00     0.131 C 
HETATM   40  C29 UNL     1     -12.416 -20.947  15.184  1.00  0.00     0.131 C 
HETATM   41  C27 UNL     1     -13.426 -18.937  14.355  1.00  0.00     0.018 A 
HETATM   42  C28 UNL     1     -12.619 -20.216  13.915  1.00  0.00     0.018 A 
HETATM   43  C30 UNL     1     -12.224 -18.875  13.526  1.00  0.00    -0.036 A 
HETATM   44  C31 UNL     1     -11.075 -18.086  14.086  1.00  0.00     0.015 C 
HETATM   45  C32 UNL     1     -12.511 -18.531  12.053  1.00  0.00     0.015 C 
ENDBRANCH  31  36
ENDBRANCH  29  31
ENDBRANCH   1  29
BRANCH   1  46
HETATM   46  O1  UNL     1     -13.502 -25.015  18.609  1.00  0.00    -0.345 OA
ATOM     47  H1  UNL     1     -13.620 -25.410  19.465  1.00  0.00     0.219 HD
ENDBRANCH   1  46
TORSDOF 13
ENDMDL
MODEL 5
REMARK VINA RESULT: -9.550293180      3.788      9.557
REMARK  13 active torsions:
REMARK  status: ('A' for Active; 'I' for Inactive)
REMARK    1  A    between atoms: C2_2  and  C4_4 
REMARK    2  A    between atoms: C4_4  and  C5_5 
REMARK    3  A    between atoms: C5_5  and  N1_6 
REMARK    4  A    between atoms: C5_5  and  C25_38 
REMARK    5  A    between atoms: N1_6  and  C6_8 
REMARK    6  A    between atoms: C6_8  and  O1_9 
REMARK    7  A    between atoms: C7_11  and  N2_12 
REMARK    8  A    between atoms: C7_11  and  C21_34 
REMARK       I    between atoms: N2_12  and  C8_14 
REMARK    9  A    between atoms: C8_14  and  O3_16 
REMARK   10  A    between atoms: O3_16  and  C9_17 
REMARK   11  A    between atoms: C9_17  and  C11_19 
REMARK       I    between atoms: C11_19  and  N3_21 
REMARK   12  A    between atoms: N3_21  and  C12_23 
REMARK       I    between atoms: N4_26  and  C15_27 
REMARK   13  A    between atoms: C15_27  and  C16_29 
REMARK       I    between atoms: C25_38  and  N5_40 
ROOT
HETATM    1  C6  UNL     1     -13.324 -21.705  20.238  1.00  0.00     0.160 C 
HETATM    2  C7  UNL     1     -14.431 -22.287  19.595  1.00  0.00     0.072 C 
ENDROOT
BRANCH   2   3
HETATM    3  N2  UNL     1     -14.811 -22.177  18.238  1.00  0.00    -0.301 N 
HETATM    4  C8  UNL     1     -15.083 -20.936  17.563  1.00  0.00     0.365 C 
HETATM    5  O2  UNL     1     -14.938 -19.816  17.918  1.00  0.00    -0.238 OA
ATOM      6  H2  UNL     1     -14.898 -23.039  17.699  1.00  0.00     0.171 HD
BRANCH   4   7
HETATM    7  O3  UNL     1     -15.665 -21.163  16.245  1.00  0.00    -0.289 OA
BRANCH   7   8
HETATM    8  C9  UNL     1     -15.752 -22.450  15.792  1.00  0.00     0.221 C 
HETATM    9  C10 UNL     1     -14.447 -22.441  14.768  1.00  0.00     0.050 C 
BRANCH   8  10
HETATM   10  C11 UNL     1     -16.767 -22.868  14.846  1.00  0.00     0.251 C 
HETATM   11  O4  UNL     1     -17.718 -22.120  14.534  1.00  0.00    -0.270 OA
HETATM   12  N3  UNL     1     -16.635 -24.148  14.287  1.00  0.00    -0.332 N 
ATOM     13  H3  UNL     1     -15.854 -24.666  14.689  1.00  0.00     0.168 HD
BRANCH  12  14
HETATM   14  C12 UNL     1     -17.309 -24.877  13.323  1.00  0.00    -0.007 C 
HETATM   15  C13 UNL     1     -17.357 -26.386  13.318  1.00  0.00     0.072 C 
HETATM   16  C14 UNL     1     -18.631 -26.766  12.533  1.00  0.00     0.131 C 
HETATM   17  N4  UNL     1     -18.712 -26.058  11.265  1.00  0.00    -0.351 N 
HETATM   18  C15 UNL     1     -19.237 -26.746  10.153  1.00  0.00     0.224 C 
HETATM   19  C19 UNL     1     -18.381 -24.661  11.154  1.00  0.00     0.131 C 
HETATM   20  O5  UNL     1     -19.702 -27.930  10.378  1.00  0.00    -0.273 OA
HETATM   21  C20 UNL     1     -17.112 -24.369  11.911  1.00  0.00     0.072 C 
BRANCH  18  22
HETATM   22  C16 UNL     1     -19.336 -26.314   8.756  1.00  0.00     0.078 A 
HETATM   23  C17 UNL     1     -20.676 -25.563   8.488  1.00  0.00     0.015 A 
HETATM   24  C18 UNL     1     -20.246 -26.780   7.727  1.00  0.00     0.015 A 
ENDBRANCH  18  22
ENDBRANCH  12  14
ENDBRANCH   8  10
ENDBRANCH   7   8
ENDBRANCH   4   7
ENDBRANCH   2   3
BRANCH   2  25
HETATM   25  C21 UNL     1     -14.606 -23.789  20.030  1.00  0.00    -0.004 C 
HETATM   26  C22 UNL     1     -14.260 -23.948  21.474  1.00  0.00     0.021 C 
HETATM   27  C23 UNL     1     -16.109 -24.124  19.933  1.00  0.00     0.021 C 
HETATM   28  C24 UNL     1     -13.901 -24.717  19.119  1.00  0.00     0.021 C 
ENDBRANCH   2  25
BRANCH   1  29
HETATM   29  N1  UNL     1     -11.923 -21.635  19.962  1.00  0.00    -0.356 N 
ATOM     30  H1  UNL     1     -11.269 -22.282  20.402  1.00  0.00     0.162 HD
BRANCH  29  31
HETATM   31  C5  UNL     1     -11.449 -20.594  19.020  1.00  0.00     0.176 C 
BRANCH  31  32
HETATM   32  C4  UNL     1      -9.895 -20.665  19.334  1.00  0.00     0.038 C 
BRANCH  32  33
HETATM   33  C2  UNL     1      -9.284 -19.414  19.770  1.00  0.00    -0.020 C 
HETATM   34  C1  UNL     1      -8.571 -18.669  18.665  1.00  0.00     0.009 C 
HETATM   35  C3  UNL     1     -10.352 -18.463  20.311  1.00  0.00     0.009 C 
ENDBRANCH  32  33
ENDBRANCH  31  32
BRANCH  31  36
HETATM   36  C25 UNL     1     -11.547 -20.906  17.614  1.00  0.00     0.242 C 
HETATM   37  O6  UNL     1     -11.618 -22.096  17.227  1.00  0.00    -0.271 OA
HETATM   38  N5  UNL     1     -11.543 -19.917  16.592  1.00  0.00    -0.350 N 
HETATM   39  C26 UNL     1     -11.326 -20.159  15.173  1.00  0.00     0.131 C 
HETATM   40  C29 UNL     1     -11.827 -18.483  16.615  1.00  0.00     0.131 C 
HETATM   41  C27 UNL     1     -10.223 -19.101  14.944  1.00  0.00     0.018 A 
HETATM   42  C28 UNL     1     -10.716 -17.898  15.834  1.00  0.00     0.018 A 
HETATM   43  C30 UNL     1     -10.533 -17.780  14.399  1.00  0.00    -0.036 A 
HETATM   44  C31 UNL     1     -11.618 -17.731  13.361  1.00  0.00     0.015 C 
HETATM   45  C32 UNL     1      -9.284 -16.979  13.983  1.00  0.00     0.015 C 
ENDBRANCH  31  36
ENDBRANCH  29  31
ENDBRANCH   1  29
BRANCH   1  46
HETATM   46  O1  UNL     1     -13.608 -21.069  21.381  1.00  0.00    -0.345 OA
ATOM     47  H1  UNL     1     -12.809 -20.824  21.833  1.00  0.00     0.219 HD
ENDBRANCH   1  46
TORSDOF 13
ENDMDL
