MODEL 1
REMARK VINA RESULT: -8.630765142      0.000      0.000
REMARK  14 active torsions:
REMARK  status: ('A' for Active; 'I' for Inactive)
REMARK    1  A    between atoms: C2_2  and  C3_3 
REMARK    2  A    between atoms: C3_3  and  C4_5 
REMARK    3  A    between atoms: C4_5  and  N1_6 
REMARK    4  A    between atoms: C4_5  and  C28_43 
REMARK       I    between atoms: N1_6  and  C5_8 
REMARK    5  A    between atoms: C5_8  and  C6_10 
REMARK    6  A    between atoms: N2_13  and  C9_14 
REMARK    7  A    between atoms: C9_14  and  O3_15 
REMARK    8  A    between atoms: C9_14  and  C10_17 
REMARK    9  A    between atoms: C10_17  and  N3_18 
REMARK   10  A    between atoms: C10_17  and  C24_39 
REMARK       I    between atoms: N3_18  and  C11_20 
REMARK   11  A    between atoms: C11_20  and  C12_22 
REMARK       I    between atoms: N4_26  and  C16_27 
REMARK   12  A    between atoms: C16_27  and  C17_29 
REMARK   13  A    between atoms: C17_29  and  N5_30 
REMARK   14  A    between atoms: C17_29  and  C20_35 
REMARK       I    between atoms: N5_30  and  C18_32 
ROOT
HETATM    1  C10 UNL     1     -17.935  19.469  -8.140  1.00  0.00     0.166 C 
ENDROOT
BRANCH   1   2
HETATM    2  C9  UNL     1     -17.289  19.886  -6.885  1.00  0.00     0.138 C 
BRANCH   2   3
HETATM    3  N2  UNL     1     -16.272  20.841  -6.695  1.00  0.00    -0.350 N 
HETATM    4  C6  UNL     1     -15.883  22.215  -6.788  1.00  0.00     0.179 C 
HETATM    5  C7  UNL     1     -14.442  21.763  -7.042  1.00  0.00     0.055 C 
HETATM    6  C8  UNL     1     -14.879  20.609  -6.205  1.00  0.00     0.128 C 
BRANCH   4   7
HETATM    7  C5  UNL     1     -16.021  23.025  -5.548  1.00  0.00     0.241 C 
HETATM    8  N1  UNL     1     -14.913  23.537  -4.901  1.00  0.00    -0.348 N 
ATOM      9  H1  UNL     1     -14.008  23.331  -5.326  1.00  0.00     0.163 HD
HETATM   10  O2  UNL     1     -17.175  23.222  -5.113  1.00  0.00    -0.271 OA
BRANCH   8  11
HETATM   11  C4  UNL     1     -14.886  24.325  -3.700  1.00  0.00     0.157 C 
BRANCH  11  12
HETATM   12  C3  UNL     1     -13.643  25.142  -3.612  1.00  0.00     0.149 C 
HETATM   13  O1  UNL     1     -13.302  25.907  -4.489  1.00  0.00    -0.296 OA
BRANCH  12  14
HETATM   14  C2  UNL     1     -12.804  25.005  -2.393  1.00  0.00     0.076 C 
HETATM   15  C1  UNL     1     -11.349  25.349  -2.652  1.00  0.00     0.013 C 
ENDBRANCH  12  14
ENDBRANCH  11  12
BRANCH  11  16
HETATM   16  C28 UNL     1     -15.083  23.580  -2.440  1.00  0.00     0.007 C 
HETATM   17  C29 UNL     1     -15.196  22.100  -2.567  1.00  0.00     0.012 C 
HETATM   18  C30 UNL     1     -16.229  24.159  -1.595  1.00  0.00     0.012 C 
ENDBRANCH  11  16
ENDBRANCH   8  11
ENDBRANCH   4   7
ENDBRANCH   2   3
BRANCH   2  19
HETATM   19  O3  UNL     1     -17.707  19.307  -5.786  1.00  0.00    -0.348 OA
ATOM     20  H3  UNL     1     -18.451  18.728  -5.902  1.00  0.00     0.219 HD
ENDBRANCH   2  19
ENDBRANCH   1   2
BRANCH   1  21
HETATM   21  N3  UNL     1     -18.984  18.541  -7.767  1.00  0.00    -0.347 N 
HETATM   22  C11 UNL     1     -20.329  18.529  -8.105  1.00  0.00     0.241 C 
HETATM   23  O4  UNL     1     -20.770  19.431  -8.854  1.00  0.00    -0.271 OA
ATOM     24  H3  UNL     1     -18.687  17.778  -7.160  1.00  0.00     0.163 HD
BRANCH  22  25
HETATM   25  C12 UNL     1     -21.240  17.499  -7.617  1.00  0.00     0.179 C 
HETATM   26  C13 UNL     1     -20.728  16.105  -8.017  1.00  0.00     0.037 C 
HETATM   27  C14 UNL     1     -21.344  15.204  -6.985  1.00  0.00     0.022 C 
HETATM   28  C15 UNL     1     -22.183  16.099  -6.094  1.00  0.00     0.127 C 
HETATM   29  N4  UNL     1     -21.432  17.364  -6.210  1.00  0.00    -0.337 N 
HETATM   30  C16 UNL     1     -21.138  18.144  -5.077  1.00  0.00     0.244 C 
HETATM   31  O5  UNL     1     -20.595  19.265  -5.220  1.00  0.00    -0.271 OA
BRANCH  30  32
HETATM   32  C17 UNL     1     -21.436  17.719  -3.704  1.00  0.00     0.184 C 
BRANCH  32  33
HETATM   33  N5  UNL     1     -22.474  18.654  -3.211  1.00  0.00    -0.347 N 
HETATM   34  C18 UNL     1     -23.854  18.232  -3.204  1.00  0.00     0.214 C 
HETATM   35  C19 UNL     1     -24.945  19.110  -2.736  1.00  0.00     0.117 C 
HETATM   36  O6  UNL     1     -24.128  17.081  -3.610  1.00  0.00    -0.274 OA
ATOM     37  H5  UNL     1     -22.217  19.584  -2.880  1.00  0.00     0.163 HD
ENDBRANCH  32  33
BRANCH  32  38
HETATM   38  C20 UNL     1     -20.300  17.864  -2.728  1.00  0.00    -0.022 C 
HETATM   39  C21 UNL     1     -18.934  17.654  -3.279  1.00  0.00     0.017 C 
HETATM   40  C22 UNL     1     -20.391  19.162  -1.938  1.00  0.00     0.017 C 
HETATM   41  C23 UNL     1     -20.516  16.748  -1.690  1.00  0.00     0.017 C 
ENDBRANCH  32  38
ENDBRANCH  30  32
ENDBRANCH  22  25
ENDBRANCH   1  21
BRANCH   1  42
HETATM   42  C24 UNL     1     -16.963  18.842  -9.093  1.00  0.00    -0.023 C 
HETATM   43  C25 UNL     1     -17.606  18.113 -10.244  1.00  0.00     0.017 C 
HETATM   44  C26 UNL     1     -16.034  19.863  -9.718  1.00  0.00     0.017 C 
HETATM   45  C27 UNL     1     -16.090  17.871  -8.356  1.00  0.00     0.017 C 
ENDBRANCH   1  42
TORSDOF 14
ENDMDL
MODEL 2
REMARK VINA RESULT: -8.451652675      0.809      1.655
REMARK  14 active torsions:
REMARK  status: ('A' for Active; 'I' for Inactive)
REMARK    1  A    between atoms: C2_2  and  C3_3 
REMARK    2  A    between atoms: C3_3  and  C4_5 
REMARK    3  A    between atoms: C4_5  and  N1_6 
REMARK    4  A    between atoms: C4_5  and  C28_43 
REMARK       I    between atoms: N1_6  and  C5_8 
REMARK    5  A    between atoms: C5_8  and  C6_10 
REMARK    6  A    between atoms: N2_13  and  C9_14 
REMARK    7  A    between atoms: C9_14  and  O3_15 
REMARK    8  A    between atoms: C9_14  and  C10_17 
REMARK    9  A    between atoms: C10_17  and  N3_18 
REMARK   10  A    between atoms: C10_17  and  C24_39 
REMARK       I    between atoms: N3_18  and  C11_20 
REMARK   11  A    between atoms: C11_20  and  C12_22 
REMARK       I    between atoms: N4_26  and  C16_27 
REMARK   12  A    between atoms: C16_27  and  C17_29 
REMARK   13  A    between atoms: C17_29  and  N5_30 
REMARK   14  A    between atoms: C17_29  and  C20_35 
REMARK       I    between atoms: N5_30  and  C18_32 
ROOT
HETATM    1  C10 UNL     1     -17.985  19.319  -8.419  1.00  0.00     0.166 C 
ENDROOT
BRANCH   1   2
HETATM    2  C9  UNL     1     -17.243  19.696  -7.203  1.00  0.00     0.138 C 
BRANCH   2   3
HETATM    3  N2  UNL     1     -16.078  20.478  -7.091  1.00  0.00    -0.350 N 
HETATM    4  C6  UNL     1     -15.518  21.792  -7.008  1.00  0.00     0.179 C 
HETATM    5  C7  UNL     1     -14.255  21.270  -7.700  1.00  0.00     0.055 C 
HETATM    6  C8  UNL     1     -14.661  20.005  -7.023  1.00  0.00     0.128 C 
BRANCH   4   7
HETATM    7  C5  UNL     1     -15.251  22.310  -5.639  1.00  0.00     0.241 C 
HETATM    8  N1  UNL     1     -14.222  23.201  -5.400  1.00  0.00    -0.348 N 
ATOM      9  H1  UNL     1     -13.669  23.480  -6.211  1.00  0.00     0.163 HD
HETATM   10  O2  UNL     1     -15.989  21.907  -4.716  1.00  0.00    -0.271 OA
BRANCH   8  11
HETATM   11  C4  UNL     1     -13.839  23.779  -4.141  1.00  0.00     0.157 C 
BRANCH  11  12
HETATM   12  C3  UNL     1     -14.855  24.757  -3.659  1.00  0.00     0.149 C 
HETATM   13  O1  UNL     1     -15.016  25.840  -4.180  1.00  0.00    -0.296 OA
BRANCH  12  14
HETATM   14  C2  UNL     1     -15.696  24.371  -2.496  1.00  0.00     0.076 C 
HETATM   15  C1  UNL     1     -15.009  23.359  -1.598  1.00  0.00     0.013 C 
ENDBRANCH  12  14
ENDBRANCH  11  12
BRANCH  11  16
HETATM   16  C28 UNL     1     -12.497  24.394  -4.100  1.00  0.00     0.007 C 
HETATM   17  C29 UNL     1     -11.462  23.761  -4.965  1.00  0.00     0.012 C 
HETATM   18  C30 UNL     1     -11.987  24.585  -2.663  1.00  0.00     0.012 C 
ENDBRANCH  11  16
ENDBRANCH   8  11
ENDBRANCH   4   7
ENDBRANCH   2   3
BRANCH   2  19
HETATM   19  O3  UNL     1     -17.720  19.260  -6.063  1.00  0.00    -0.348 OA
ATOM     20  H3  UNL     1     -17.157  19.414  -5.313  1.00  0.00     0.219 HD
ENDBRANCH   2  19
ENDBRANCH   1   2
BRANCH   1  21
HETATM   21  N3  UNL     1     -19.041  18.426  -7.988  1.00  0.00    -0.347 N 
HETATM   22  C11 UNL     1     -20.406  18.475  -8.226  1.00  0.00     0.241 C 
HETATM   23  O4  UNL     1     -20.863  19.410  -8.923  1.00  0.00    -0.271 OA
ATOM     24  H3  UNL     1     -18.732  17.638  -7.420  1.00  0.00     0.163 HD
BRANCH  22  25
HETATM   25  C12 UNL     1     -21.321  17.470  -7.693  1.00  0.00     0.179 C 
HETATM   26  C13 UNL     1     -20.848  16.061  -8.086  1.00  0.00     0.037 C 
HETATM   27  C14 UNL     1     -21.449  15.188  -7.021  1.00  0.00     0.022 C 
HETATM   28  C15 UNL     1     -22.241  16.113  -6.119  1.00  0.00     0.127 C 
HETATM   29  N4  UNL     1     -21.471  17.361  -6.278  1.00  0.00    -0.337 N 
HETATM   30  C16 UNL     1     -21.126  18.152  -5.168  1.00  0.00     0.244 C 
HETATM   31  O5  UNL     1     -20.567  19.260  -5.346  1.00  0.00    -0.271 OA
BRANCH  30  32
HETATM   32  C17 UNL     1     -21.388  17.754  -3.780  1.00  0.00     0.184 C 
BRANCH  32  33
HETATM   33  N5  UNL     1     -22.428  18.687  -3.285  1.00  0.00    -0.347 N 
HETATM   34  C18 UNL     1     -23.801  18.245  -3.231  1.00  0.00     0.214 C 
HETATM   35  C19 UNL     1     -24.892  19.119  -2.758  1.00  0.00     0.117 C 
HETATM   36  O6  UNL     1     -24.066  17.079  -3.599  1.00  0.00    -0.274 OA
ATOM     37  H5  UNL     1     -22.176  19.630  -2.986  1.00  0.00     0.163 HD
ENDBRANCH  32  33
BRANCH  32  38
HETATM   38  C20 UNL     1     -20.233  17.936  -2.833  1.00  0.00    -0.022 C 
HETATM   39  C21 UNL     1     -18.881  17.672  -3.393  1.00  0.00     0.017 C 
HETATM   40  C22 UNL     1     -20.290  19.279  -2.118  1.00  0.00     0.017 C 
HETATM   41  C23 UNL     1     -20.449  16.885  -1.728  1.00  0.00     0.017 C 
ENDBRANCH  32  38
ENDBRANCH  30  32
ENDBRANCH  22  25
ENDBRANCH   1  21
BRANCH   1  42
HETATM   42  C24 UNL     1     -17.100  18.671  -9.440  1.00  0.00    -0.023 C 
HETATM   43  C25 UNL     1     -16.149  19.617 -10.125  1.00  0.00     0.017 C 
HETATM   44  C26 UNL     1     -16.237  17.579  -8.841  1.00  0.00     0.017 C 
HETATM   45  C27 UNL     1     -17.943  18.016 -10.493  1.00  0.00     0.017 C 
ENDBRANCH   1  42
TORSDOF 14
ENDMDL
MODEL 3
REMARK VINA RESULT: -8.365707339      2.382      4.599
REMARK  14 active torsions:
REMARK  status: ('A' for Active; 'I' for Inactive)
REMARK    1  A    between atoms: C2_2  and  C3_3 
REMARK    2  A    between atoms: C3_3  and  C4_5 
REMARK    3  A    between atoms: C4_5  and  N1_6 
REMARK    4  A    between atoms: C4_5  and  C28_43 
REMARK       I    between atoms: N1_6  and  C5_8 
REMARK    5  A    between atoms: C5_8  and  C6_10 
REMARK    6  A    between atoms: N2_13  and  C9_14 
REMARK    7  A    between atoms: C9_14  and  O3_15 
REMARK    8  A    between atoms: C9_14  and  C10_17 
REMARK    9  A    between atoms: C10_17  and  N3_18 
REMARK   10  A    between atoms: C10_17  and  C24_39 
REMARK       I    between atoms: N3_18  and  C11_20 
REMARK   11  A    between atoms: C11_20  and  C12_22 
REMARK       I    between atoms: N4_26  and  C16_27 
REMARK   12  A    between atoms: C16_27  and  C17_29 
REMARK   13  A    between atoms: C17_29  and  N5_30 
REMARK   14  A    between atoms: C17_29  and  C20_35 
REMARK       I    between atoms: N5_30  and  C18_32 
ROOT
HETATM    1  C10 UNL     1     -16.013  20.310  -4.884  1.00  0.00     0.166 C 
ENDROOT
BRANCH   1   2
HETATM    2  C9  UNL     1     -14.600  20.172  -5.275  1.00  0.00     0.138 C 
BRANCH   2   3
HETATM    3  N2  UNL     1     -13.891  20.872  -6.269  1.00  0.00    -0.350 N 
HETATM    4  C6  UNL     1     -13.621  22.134  -6.887  1.00  0.00     0.179 C 
HETATM    5  C7  UNL     1     -13.359  21.403  -8.207  1.00  0.00     0.055 C 
HETATM    6  C8  UNL     1     -12.938  20.315  -7.278  1.00  0.00     0.128 C 
BRANCH   4   7
HETATM    7  C5  UNL     1     -12.426  22.869  -6.390  1.00  0.00     0.241 C 
HETATM    8  N1  UNL     1     -12.538  23.833  -5.406  1.00  0.00    -0.348 N 
ATOM      9  H1  UNL     1     -13.478  24.001  -5.045  1.00  0.00     0.163 HD
HETATM   10  O2  UNL     1     -11.321  22.584  -6.896  1.00  0.00    -0.271 OA
BRANCH   8  11
HETATM   11  C4  UNL     1     -11.486  24.626  -4.833  1.00  0.00     0.157 C 
BRANCH  11  12
HETATM   12  C3  UNL     1     -11.708  24.859  -3.379  1.00  0.00     0.149 C 
HETATM   13  O1  UNL     1     -10.842  24.675  -2.550  1.00  0.00    -0.296 OA
BRANCH  12  14
HETATM   14  C2  UNL     1     -13.047  25.337  -2.946  1.00  0.00     0.076 C 
HETATM   15  C1  UNL     1     -13.560  24.592  -1.728  1.00  0.00     0.013 C 
ENDBRANCH  12  14
ENDBRANCH  11  12
BRANCH  11  16
HETATM   16  C28 UNL     1     -11.212  25.911  -5.507  1.00  0.00     0.007 C 
HETATM   17  C29 UNL     1     -10.760  25.822  -6.925  1.00  0.00     0.012 C 
HETATM   18  C30 UNL     1     -10.286  26.818  -4.681  1.00  0.00     0.012 C 
ENDBRANCH  11  16
ENDBRANCH   8  11
ENDBRANCH   4   7
ENDBRANCH   2   3
BRANCH   2  19
HETATM   19  O3  UNL     1     -13.892  19.287  -4.618  1.00  0.00    -0.348 OA
ATOM     20  H3  UNL     1     -13.293  19.654  -3.979  1.00  0.00     0.219 HD
ENDBRANCH   2  19
ENDBRANCH   1   2
BRANCH   1  21
HETATM   21  N3  UNL     1     -16.786  20.179  -6.103  1.00  0.00    -0.347 N 
HETATM   22  C11 UNL     1     -16.795  19.166  -7.050  1.00  0.00     0.241 C 
HETATM   23  O4  UNL     1     -16.045  18.177  -6.884  1.00  0.00    -0.271 OA
ATOM     24  H3  UNL     1     -17.423  20.952  -6.294  1.00  0.00     0.163 HD
BRANCH  22  25
HETATM   25  C12 UNL     1     -17.652  19.219  -8.231  1.00  0.00     0.179 C 
HETATM   26  C13 UNL     1     -16.905  18.663  -9.454  1.00  0.00     0.037 C 
HETATM   27  C14 UNL     1     -18.017  18.207 -10.357  1.00  0.00     0.022 C 
HETATM   28  C15 UNL     1     -19.307  18.550  -9.638  1.00  0.00     0.127 C 
HETATM   29  N4  UNL     1     -18.860  18.459  -8.235  1.00  0.00    -0.337 N 
HETATM   30  C16 UNL     1     -19.630  17.792  -7.266  1.00  0.00     0.244 C 
HETATM   31  O5  UNL     1     -19.278  17.826  -6.064  1.00  0.00    -0.271 OA
BRANCH  30  32
HETATM   32  C17 UNL     1     -20.851  17.041  -7.581  1.00  0.00     0.184 C 
BRANCH  32  33
HETATM   33  N5  UNL     1     -21.614  16.968  -6.313  1.00  0.00    -0.347 N 
HETATM   34  C18 UNL     1     -23.028  17.257  -6.326  1.00  0.00     0.214 C 
HETATM   35  C19 UNL     1     -23.853  17.212  -5.102  1.00  0.00     0.117 C 
HETATM   36  O6  UNL     1     -23.566  17.554  -7.415  1.00  0.00    -0.274 OA
ATOM     37  H5  UNL     1     -21.146  16.716  -5.442  1.00  0.00     0.163 HD
ENDBRANCH  32  33
BRANCH  32  38
HETATM   38  C20 UNL     1     -20.636  15.606  -7.979  1.00  0.00    -0.022 C 
HETATM   39  C21 UNL     1     -19.247  15.233  -8.355  1.00  0.00     0.017 C 
HETATM   40  C22 UNL     1     -21.218  14.640  -6.957  1.00  0.00     0.017 C 
HETATM   41  C23 UNL     1     -21.488  15.408  -9.246  1.00  0.00     0.017 C 
ENDBRANCH  32  38
ENDBRANCH  30  32
ENDBRANCH  22  25
ENDBRANCH   1  21
BRANCH   1  42
HETATM   42  C24 UNL     1     -16.283  21.617  -4.202  1.00  0.00    -0.023 C 
HETATM   43  C25 UNL     1     -15.185  22.070  -3.276  1.00  0.00     0.017 C 
HETATM   44  C26 UNL     1     -16.486  22.748  -5.189  1.00  0.00     0.017 C 
HETATM   45  C27 UNL     1     -17.550  21.517  -3.406  1.00  0.00     0.017 C 
ENDBRANCH   1  42
TORSDOF 14
ENDMDL
MODEL 4
REMARK VINA RESULT: -8.215842747      1.528      2.821
REMARK  14 active torsions:
REMARK  status: ('A' for Active; 'I' for Inactive)
REMARK    1  A    between atoms: C2_2  and  C3_3 
REMARK    2  A    between atoms: C3_3  and  C4_5 
REMARK    3  A    between atoms: C4_5  and  N1_6 
REMARK    4  A    between atoms: C4_5  and  C28_43 
REMARK       I    between atoms: N1_6  and  C5_8 
REMARK    5  A    between atoms: C5_8  and  C6_10 
REMARK    6  A    between atoms: N2_13  and  C9_14 
REMARK    7  A    between atoms: C9_14  and  O3_15 
REMARK    8  A    between atoms: C9_14  and  C10_17 
REMARK    9  A    between atoms: C10_17  and  N3_18 
REMARK   10  A    between atoms: C10_17  and  C24_39 
REMARK       I    between atoms: N3_18  and  C11_20 
REMARK   11  A    between atoms: C11_20  and  C12_22 
REMARK       I    between atoms: N4_26  and  C16_27 
REMARK   12  A    between atoms: C16_27  and  C17_29 
REMARK   13  A    between atoms: C17_29  and  N5_30 
REMARK   14  A    between atoms: C17_29  and  C20_35 
REMARK       I    between atoms: N5_30  and  C18_32 
ROOT
HETATM    1  C10 UNL     1     -18.155  19.399  -8.717  1.00  0.00     0.166 C 
ENDROOT
BRANCH   1   2
HETATM    2  C9  UNL     1     -17.814  20.243  -7.560  1.00  0.00     0.138 C 
BRANCH   2   3
HETATM    3  N2  UNL     1     -17.102  19.895  -6.396  1.00  0.00    -0.350 N 
HETATM    4  C6  UNL     1     -16.014  19.157  -5.830  1.00  0.00     0.179 C 
HETATM    5  C7  UNL     1     -16.818  19.015  -4.534  1.00  0.00     0.055 C 
HETATM    6  C8  UNL     1     -17.384  20.317  -4.990  1.00  0.00     0.128 C 
BRANCH   4   7
HETATM    7  C5  UNL     1     -14.741  19.903  -5.638  1.00  0.00     0.241 C 
HETATM    8  N1  UNL     1     -14.409  20.971  -6.451  1.00  0.00    -0.348 N 
ATOM      9  H1  UNL     1     -15.085  21.213  -7.176  1.00  0.00     0.163 HD
HETATM   10  O2  UNL     1     -13.985  19.528  -4.719  1.00  0.00    -0.271 OA
BRANCH   8  11
HETATM   11  C4  UNL     1     -13.222  21.779  -6.393  1.00  0.00     0.157 C 
BRANCH  11  12
HETATM   12  C3  UNL     1     -13.340  22.848  -5.363  1.00  0.00     0.149 C 
HETATM   13  O1  UNL     1     -12.372  23.394  -4.877  1.00  0.00    -0.296 OA
BRANCH  12  14
HETATM   14  C2  UNL     1     -14.702  23.251  -4.929  1.00  0.00     0.076 C 
HETATM   15  C1  UNL     1     -14.910  23.069  -3.437  1.00  0.00     0.013 C 
ENDBRANCH  12  14
ENDBRANCH  11  12
BRANCH  11  16
HETATM   16  C28 UNL     1     -12.785  22.368  -7.676  1.00  0.00     0.007 C 
HETATM   17  C29 UNL     1     -13.863  22.653  -8.664  1.00  0.00     0.012 C 
HETATM   18  C30 UNL     1     -11.632  21.579  -8.316  1.00  0.00     0.012 C 
ENDBRANCH  11  16
ENDBRANCH   8  11
ENDBRANCH   4   7
ENDBRANCH   2   3
BRANCH   2  19
HETATM   19  O3  UNL     1     -18.213  21.491  -7.603  1.00  0.00    -0.348 OA
ATOM     20  H3  UNL     1     -18.005  21.945  -8.411  1.00  0.00     0.219 HD
ENDBRANCH   2  19
ENDBRANCH   1   2
BRANCH   1  21
HETATM   21  N3  UNL     1     -19.112  18.422  -8.237  1.00  0.00    -0.347 N 
HETATM   22  C11 UNL     1     -20.490  18.375  -8.384  1.00  0.00     0.241 C 
HETATM   23  O4  UNL     1     -21.060  19.286  -9.028  1.00  0.00    -0.271 OA
ATOM     24  H3  UNL     1     -18.709  17.649  -7.709  1.00  0.00     0.163 HD
BRANCH  22  25
HETATM   25  C12 UNL     1     -21.292  17.296  -7.815  1.00  0.00     0.179 C 
HETATM   26  C13 UNL     1     -20.657  15.934  -8.140  1.00  0.00     0.037 C 
HETATM   27  C14 UNL     1     -21.169  15.046  -7.042  1.00  0.00     0.022 C 
HETATM   28  C15 UNL     1     -22.074  15.913  -6.189  1.00  0.00     0.127 C 
HETATM   29  N4  UNL     1     -21.448  17.233  -6.398  1.00  0.00    -0.337 N 
HETATM   30  C16 UNL     1     -21.211  18.106  -5.321  1.00  0.00     0.244 C 
HETATM   31  O5  UNL     1     -20.779  19.261  -5.544  1.00  0.00    -0.271 OA
BRANCH  30  32
HETATM   32  C17 UNL     1     -21.445  17.741  -3.919  1.00  0.00     0.184 C 
BRANCH  32  33
HETATM   33  N5  UNL     1     -22.477  18.684  -3.426  1.00  0.00    -0.347 N 
HETATM   34  C18 UNL     1     -23.854  18.256  -3.376  1.00  0.00     0.214 C 
HETATM   35  C19 UNL     1     -24.938  19.141  -2.906  1.00  0.00     0.117 C 
HETATM   36  O6  UNL     1     -24.130  17.093  -3.745  1.00  0.00    -0.274 OA
ATOM     37  H5  UNL     1     -22.216  19.624  -3.127  1.00  0.00     0.163 HD
ENDBRANCH  32  33
BRANCH  32  38
HETATM   38  C20 UNL     1     -20.272  17.948  -2.999  1.00  0.00    -0.022 C 
HETATM   39  C21 UNL     1     -18.980  17.362  -3.445  1.00  0.00     0.017 C 
HETATM   40  C22 UNL     1     -20.115  19.407  -2.597  1.00  0.00     0.017 C 
HETATM   41  C23 UNL     1     -20.646  17.213  -1.699  1.00  0.00     0.017 C 
ENDBRANCH  32  38
ENDBRANCH  30  32
ENDBRANCH  22  25
ENDBRANCH   1  21
BRANCH   1  42
HETATM   42  C24 UNL     1     -16.946  18.738  -9.307  1.00  0.00    -0.023 C 
HETATM   43  C25 UNL     1     -15.747  19.640  -9.434  1.00  0.00     0.017 C 
HETATM   44  C26 UNL     1     -16.485  17.549  -8.489  1.00  0.00     0.017 C 
HETATM   45  C27 UNL     1     -17.277  18.211 -10.672  1.00  0.00     0.017 C 
ENDBRANCH   1  42
TORSDOF 14
ENDMDL
MODEL 5
REMARK VINA RESULT: -8.140027457      1.776      3.412
REMARK  14 active torsions:
REMARK  status: ('A' for Active; 'I' for Inactive)
REMARK    1  A    between atoms: C2_2  and  C3_3 
REMARK    2  A    between atoms: C3_3  and  C4_5 
REMARK    3  A    between atoms: C4_5  and  N1_6 
REMARK    4  A    between atoms: C4_5  and  C28_43 
REMARK       I    between atoms: N1_6  and  C5_8 
REMARK    5  A    between atoms: C5_8  and  C6_10 
REMARK    6  A    between atoms: N2_13  and  C9_14 
REMARK    7  A    between atoms: C9_14  and  O3_15 
REMARK    8  A    between atoms: C9_14  and  C10_17 
REMARK    9  A    between atoms: C10_17  and  N3_18 
REMARK   10  A    between atoms: C10_17  and  C24_39 
REMARK       I    between atoms: N3_18  and  C11_20 
REMARK   11  A    between atoms: C11_20  and  C12_22 
REMARK       I    between atoms: N4_26  and  C16_27 
REMARK   12  A    between atoms: C16_27  and  C17_29 
REMARK   13  A    between atoms: C17_29  and  N5_30 
REMARK   14  A    between atoms: C17_29  and  C20_35 
REMARK       I    between atoms: N5_30  and  C18_32 
ROOT
HETATM    1  C10 UNL     1     -18.011  18.963  -7.566  1.00  0.00     0.166 C 
ENDROOT
BRANCH   1   2
HETATM    2  C9  UNL     1     -16.562  19.035  -7.315  1.00  0.00     0.138 C 
BRANCH   2   3
HETATM    3  N2  UNL     1     -15.727  20.168  -7.308  1.00  0.00    -0.350 N 
HETATM    4  C6  UNL     1     -15.623  21.582  -7.113  1.00  0.00     0.179 C 
HETATM    5  C7  UNL     1     -14.475  21.612  -8.126  1.00  0.00     0.055 C 
HETATM    6  C8  UNL     1     -14.264  20.229  -7.611  1.00  0.00     0.128 C 
BRANCH   4   7
HETATM    7  C5  UNL     1     -15.206  22.032  -5.758  1.00  0.00     0.241 C 
HETATM    8  N1  UNL     1     -14.368  23.118  -5.592  1.00  0.00    -0.348 N 
ATOM      9  H1  UNL     1     -14.063  23.587  -6.446  1.00  0.00     0.163 HD
HETATM   10  O2  UNL     1     -15.639  21.391  -4.778  1.00  0.00    -0.271 OA
BRANCH   8  11
HETATM   11  C4  UNL     1     -13.876  23.664  -4.357  1.00  0.00     0.157 C 
BRANCH  11  12
HETATM   12  C3  UNL     1     -14.814  24.676  -3.795  1.00  0.00     0.149 C 
HETATM   13  O1  UNL     1     -14.886  25.807  -4.226  1.00  0.00    -0.296 OA
BRANCH  12  14
HETATM   14  C2  UNL     1     -15.688  24.264  -2.667  1.00  0.00     0.076 C 
HETATM   15  C1  UNL     1     -15.034  23.219  -1.782  1.00  0.00     0.013 C 
ENDBRANCH  12  14
ENDBRANCH  11  12
BRANCH  11  16
HETATM   16  C28 UNL     1     -12.509  24.223  -4.403  1.00  0.00     0.007 C 
HETATM   17  C29 UNL     1     -11.523  23.469  -5.228  1.00  0.00     0.012 C 
HETATM   18  C30 UNL     1     -11.954  24.523  -3.002  1.00  0.00     0.012 C 
ENDBRANCH  11  16
ENDBRANCH   8  11
ENDBRANCH   4   7
ENDBRANCH   2   3
BRANCH   2  19
HETATM   19  O3  UNL     1     -15.952  17.904  -7.058  1.00  0.00    -0.348 OA
ATOM     20  H3  UNL     1     -16.526  17.150  -6.997  1.00  0.00     0.219 HD
ENDBRANCH   2  19
ENDBRANCH   1   2
BRANCH   1  21
HETATM   21  N3  UNL     1     -18.579  18.234  -6.450  1.00  0.00    -0.347 N 
HETATM   22  C11 UNL     1     -19.112  18.697  -5.257  1.00  0.00     0.241 C 
HETATM   23  O4  UNL     1     -19.144  19.932  -5.050  1.00  0.00    -0.271 OA
ATOM     24  H3  UNL     1     -18.589  17.220  -6.560  1.00  0.00     0.163 HD
BRANCH  22  25
HETATM   25  C12 UNL     1     -19.638  17.791  -4.241  1.00  0.00     0.179 C 
HETATM   26  C13 UNL     1     -19.569  18.453  -2.854  1.00  0.00     0.037 C 
HETATM   27  C14 UNL     1     -20.645  17.743  -2.082  1.00  0.00     0.022 C 
HETATM   28  C15 UNL     1     -21.232  16.715  -3.030  1.00  0.00     0.127 C 
HETATM   29  N4  UNL     1     -21.004  17.388  -4.323  1.00  0.00    -0.337 N 
HETATM   30  C16 UNL     1     -22.011  17.446  -5.302  1.00  0.00     0.244 C 
HETATM   31  O5  UNL     1     -21.752  17.928  -6.430  1.00  0.00    -0.271 OA
BRANCH  30  32
HETATM   32  C17 UNL     1     -23.380  16.964  -5.083  1.00  0.00     0.184 C 
BRANCH  32  33
HETATM   33  N5  UNL     1     -23.908  16.632  -6.428  1.00  0.00    -0.347 N 
HETATM   34  C18 UNL     1     -24.631  15.397  -6.613  1.00  0.00     0.214 C 
HETATM   35  C19 UNL     1     -25.179  14.994  -7.924  1.00  0.00     0.117 C 
HETATM   36  O6  UNL     1     -24.796  14.648  -5.625  1.00  0.00    -0.274 OA
ATOM     37  H5  UNL     1     -23.762  17.268  -7.212  1.00  0.00     0.163 HD
ENDBRANCH  32  33
BRANCH  32  38
HETATM   38  C20 UNL     1     -24.341  17.987  -4.540  1.00  0.00    -0.022 C 
HETATM   39  C21 UNL     1     -23.736  19.113  -3.780  1.00  0.00     0.017 C 
HETATM   40  C22 UNL     1     -25.303  18.486  -5.609  1.00  0.00     0.017 C 
HETATM   41  C23 UNL     1     -25.221  17.220  -3.537  1.00  0.00     0.017 C 
ENDBRANCH  32  38
ENDBRANCH  30  32
ENDBRANCH  22  25
ENDBRANCH   1  21
BRANCH   1  42
HETATM   42  C24 UNL     1     -18.325  18.299  -8.873  1.00  0.00    -0.023 C 
HETATM   43  C25 UNL     1     -17.317  18.566  -9.960  1.00  0.00     0.017 C 
HETATM   44  C26 UNL     1     -18.407  16.792  -8.745  1.00  0.00     0.017 C 
HETATM   45  C27 UNL     1     -19.667  18.757  -9.360  1.00  0.00     0.017 C 
ENDBRANCH   1  42
TORSDOF 14
ENDMDL
