MODEL 1
REMARK VINA RESULT: -8.412584138      0.000      0.000
REMARK  13 active torsions:
REMARK  status: ('A' for Active; 'I' for Inactive)
REMARK    1  A    between atoms: C2_2  and  C3_3 
REMARK    2  A    between atoms: C4_4  and  C5_5 
REMARK    3  A    between atoms: C5_5  and  N1_6 
REMARK       I    between atoms: N1_6  and  C6_7 
REMARK    4  A    between atoms: C6_7  and  C7_9 
REMARK    5  A    between atoms: C7_9  and  N2_11 
REMARK    6  A    between atoms: N2_11  and  C9_13 
REMARK    7  A    between atoms: C10_16  and  O2_17 
REMARK    8  A    between atoms: C10_16  and  N4_19 
REMARK       I    between atoms: N5_22  and  C13_23 
REMARK    9  A    between atoms: C18_29  and  C19_30 
REMARK   10  A    between atoms: C19_30  and  N6_31 
REMARK   11  A    between atoms: C19_30  and  C27_42 
REMARK       I    between atoms: N6_31  and  C20_33 
REMARK   12  A    between atoms: C20_33  and  C21_35 
REMARK   13  A    between atoms: C21_35  and  C22_37 
ROOT
HETATM    1  C5  UNL     1     -16.527  21.145  -4.720  1.00  0.00     0.143 C 
HETATM    2  C10 UNL     1     -17.300  19.962  -4.478  1.00  0.00     0.176 C 
ENDROOT
BRANCH   1   3
HETATM    3  C4  UNL     1     -16.402  21.814  -6.006  1.00  0.00     0.059 C 
HETATM    4  C3  UNL     1     -16.009  21.115  -7.241  1.00  0.00     0.002 C 
HETATM    5  C18 UNL     1     -15.112  22.266  -7.570  1.00  0.00     0.014 C 
HETATM    6  C17 UNL     1     -15.093  22.625  -6.109  1.00  0.00     0.019 C 
BRANCH   4   7
HETATM    7  C2  UNL     1     -15.535  19.735  -7.246  1.00  0.00     0.001 C 
HETATM    8  C1  UNL     1     -15.751  18.838  -8.382  1.00  0.00     0.005 C 
ENDBRANCH   4   7
BRANCH   5   9
HETATM    9  C19 UNL     1     -13.831  22.082  -8.266  1.00  0.00     0.092 C 
BRANCH   9  10
HETATM   10  N6  UNL     1     -13.280  23.368  -8.730  1.00  0.00    -0.349 N 
HETATM   11  C20 UNL     1     -13.397  23.815 -10.051  1.00  0.00     0.288 C 
HETATM   12  O4  UNL     1     -14.001  23.085 -10.880  1.00  0.00    -0.264 OA
ATOM     13  H6  UNL     1     -12.791  23.959  -8.058  1.00  0.00     0.163 HD
BRANCH  11  14
HETATM   14  C21 UNL     1     -12.819  25.098 -10.427  1.00  0.00     0.224 C 
HETATM   15  O5  UNL     1     -13.535  26.091 -10.682  1.00  0.00    -0.286 OA
BRANCH  14  16
HETATM   16  C22 UNL     1     -11.355  25.214 -10.504  1.00  0.00     0.026 C 
HETATM   17  C23 UNL     1     -10.787  25.918  -9.313  1.00  0.00     0.024 C 
HETATM   18  C24 UNL     1     -10.928  25.812 -11.831  1.00  0.00     0.017 C 
HETATM   19  C25 UNL     1     -10.558  24.420 -12.290  1.00  0.00     0.002 C 
HETATM   20  C26 UNL     1     -10.620  23.948 -10.867  1.00  0.00     0.017 C 
ENDBRANCH  14  16
ENDBRANCH  11  14
ENDBRANCH   9  10
BRANCH   9  21
HETATM   21  C27 UNL     1     -12.755  21.603  -7.265  1.00  0.00     0.001 C 
HETATM   22  C28 UNL     1     -11.737  22.734  -7.055  1.00  0.00     0.011 C 
HETATM   23  C29 UNL     1     -11.952  20.452  -7.784  1.00  0.00     0.011 C 
ENDBRANCH   9  21
ENDBRANCH   5   9
ENDBRANCH   1   3
BRANCH   1  24
HETATM   24  N1  UNL     1     -15.862  21.615  -3.793  1.00  0.00    -0.369 NA
HETATM   25  C6  UNL     1     -15.322  22.127  -2.733  1.00  0.00     0.314 C 
HETATM   26  O1  UNL     1     -14.983  21.516  -1.639  1.00  0.00    -0.255 OA
BRANCH  25  27
HETATM   27  C7  UNL     1     -15.007  23.612  -2.665  1.00  0.00     0.186 C 
HETATM   28  C8  UNL     1     -16.077  24.229  -1.785  1.00  0.00     0.043 C 
BRANCH  27  29
HETATM   29  N2  UNL     1     -13.688  23.882  -2.197  1.00  0.00    -0.355 N 
ATOM     30  H2  UNL     1     -13.458  23.515  -1.274  1.00  0.00     0.162 HD
BRANCH  29  31
HETATM   31  C9  UNL     1     -12.669  24.588  -2.849  1.00  0.00     0.181 C 
HETATM   32  N3  UNL     1     -11.367  24.621  -2.290  1.00  0.00    -0.070 NA
HETATM   33  S1  UNL     1     -12.882  25.387  -4.260  1.00  0.00    -0.044 SA
ENDBRANCH  29  31
ENDBRANCH  27  29
ENDBRANCH  25  27
ENDBRANCH   1  24
BRANCH   2  34
HETATM   34  O2  UNL     1     -17.151  19.487  -3.244  1.00  0.00    -0.344 OA
ATOM     35  H2  UNL     1     -17.818  19.798  -2.644  1.00  0.00     0.219 HD
ENDBRANCH   2  34
BRANCH   2  36
HETATM   36  N4  UNL     1     -18.178  19.187  -5.231  1.00  0.00    -0.356 N 
HETATM   37  C11 UNL     1     -19.313  19.923  -5.856  1.00  0.00     0.145 C 
HETATM   38  C12 UNL     1     -19.284  19.562  -7.324  1.00  0.00     0.145 C 
HETATM   39  N5  UNL     1     -19.614  18.133  -7.353  1.00  0.00    -0.349 N 
HETATM   40  C13 UNL     1     -20.800  17.712  -8.005  1.00  0.00     0.215 C 
HETATM   41  C15 UNL     1     -18.697  17.260  -6.709  1.00  0.00     0.145 C 
HETATM   42  C14 UNL     1     -21.207  16.298  -8.072  1.00  0.00     0.117 C 
HETATM   43  O3  UNL     1     -21.535  18.581  -8.546  1.00  0.00    -0.274 OA
HETATM   44  C16 UNL     1     -18.043  17.795  -5.457  1.00  0.00     0.145 C 
ENDBRANCH   2  36
TORSDOF 13
ENDMDL
MODEL 2
REMARK VINA RESULT: -8.199682517      3.658     10.323
REMARK  13 active torsions:
REMARK  status: ('A' for Active; 'I' for Inactive)
REMARK    1  A    between atoms: C2_2  and  C3_3 
REMARK    2  A    between atoms: C4_4  and  C5_5 
REMARK    3  A    between atoms: C5_5  and  N1_6 
REMARK       I    between atoms: N1_6  and  C6_7 
REMARK    4  A    between atoms: C6_7  and  C7_9 
REMARK    5  A    between atoms: C7_9  and  N2_11 
REMARK    6  A    between atoms: N2_11  and  C9_13 
REMARK    7  A    between atoms: C10_16  and  O2_17 
REMARK    8  A    between atoms: C10_16  and  N4_19 
REMARK       I    between atoms: N5_22  and  C13_23 
REMARK    9  A    between atoms: C18_29  and  C19_30 
REMARK   10  A    between atoms: C19_30  and  N6_31 
REMARK   11  A    between atoms: C19_30  and  C27_42 
REMARK       I    between atoms: N6_31  and  C20_33 
REMARK   12  A    between atoms: C20_33  and  C21_35 
REMARK   13  A    between atoms: C21_35  and  C22_37 
ROOT
HETATM    1  C5  UNL     1     -17.756  19.679  -6.616  1.00  0.00     0.143 C 
HETATM    2  C10 UNL     1     -16.724  20.343  -5.875  1.00  0.00     0.176 C 
ENDROOT
BRANCH   1   3
HETATM    3  C4  UNL     1     -19.174  19.720  -6.295  1.00  0.00     0.059 C 
HETATM    4  C3  UNL     1     -19.757  19.022  -5.136  1.00  0.00     0.002 C 
HETATM    5  C18 UNL     1     -20.889  18.582  -6.011  1.00  0.00     0.014 C 
HETATM    6  C17 UNL     1     -20.000  18.789  -7.207  1.00  0.00     0.019 C 
BRANCH   4   7
HETATM    7  C2  UNL     1     -18.995  18.082  -4.320  1.00  0.00     0.001 C 
HETATM    8  C1  UNL     1     -18.467  18.440  -3.003  1.00  0.00     0.005 C 
ENDBRANCH   4   7
BRANCH   5   9
HETATM    9  C19 UNL     1     -21.544  17.278  -5.839  1.00  0.00     0.092 C 
BRANCH   9  10
HETATM   10  N6  UNL     1     -22.947  17.432  -5.413  1.00  0.00    -0.349 N 
HETATM   11  C20 UNL     1     -23.322  17.625  -4.078  1.00  0.00     0.288 C 
HETATM   12  O4  UNL     1     -22.419  17.669  -3.203  1.00  0.00    -0.264 OA
ATOM     13  H6  UNL     1     -23.678  17.397  -6.124  1.00  0.00     0.163 HD
BRANCH  11  14
HETATM   14  C21 UNL     1     -24.733  17.764  -3.743  1.00  0.00     0.224 C 
HETATM   15  O5  UNL     1     -25.280  17.032  -2.890  1.00  0.00    -0.286 OA
BRANCH  14  16
HETATM   16  C22 UNL     1     -25.521  18.796  -4.434  1.00  0.00     0.026 C 
HETATM   17  C23 UNL     1     -25.094  20.176  -4.047  1.00  0.00     0.024 C 
HETATM   18  C24 UNL     1     -27.007  18.544  -4.267  1.00  0.00     0.017 C 
HETATM   19  C25 UNL     1     -27.027  17.990  -5.674  1.00  0.00     0.002 C 
HETATM   20  C26 UNL     1     -25.681  18.606  -5.921  1.00  0.00     0.017 C 
ENDBRANCH  14  16
ENDBRANCH  11  14
ENDBRANCH   9  10
BRANCH   9  21
HETATM   21  C27 UNL     1     -21.690  16.580  -7.210  1.00  0.00     0.001 C 
HETATM   22  C28 UNL     1     -23.173  16.250  -7.442  1.00  0.00     0.011 C 
HETATM   23  C29 UNL     1     -20.988  15.260  -7.267  1.00  0.00     0.011 C 
ENDBRANCH   9  21
ENDBRANCH   5   9
ENDBRANCH   1   3
BRANCH   1  24
HETATM   24  N1  UNL     1     -17.432  18.966  -7.569  1.00  0.00    -0.369 NA
HETATM   25  C6  UNL     1     -16.933  18.199  -8.487  1.00  0.00     0.314 C 
HETATM   26  O1  UNL     1     -16.884  16.902  -8.498  1.00  0.00    -0.255 OA
BRANCH  25  27
HETATM   27  C7  UNL     1     -16.308  18.794  -9.737  1.00  0.00     0.186 C 
HETATM   28  C8  UNL     1     -17.252  18.463 -10.877  1.00  0.00     0.043 C 
BRANCH  27  29
HETATM   29  N2  UNL     1     -16.054  20.192  -9.622  1.00  0.00    -0.355 N 
ATOM     30  H2  UNL     1     -16.852  20.806  -9.788  1.00  0.00     0.162 HD
BRANCH  29  31
HETATM   31  C9  UNL     1     -14.845  20.826  -9.310  1.00  0.00     0.181 C 
HETATM   32  N3  UNL     1     -13.853  20.128  -8.576  1.00  0.00    -0.070 NA
HETATM   33  S1  UNL     1     -14.481  22.355  -9.763  1.00  0.00    -0.044 SA
ENDBRANCH  29  31
ENDBRANCH  27  29
ENDBRANCH  25  27
ENDBRANCH   1  24
BRANCH   2  34
HETATM   34  O2  UNL     1     -15.501  20.047  -6.309  1.00  0.00    -0.344 OA
ATOM     35  H2  UNL     1     -14.823  20.255  -5.677  1.00  0.00     0.219 HD
ENDBRANCH   2  34
BRANCH   2  36
HETATM   36  N4  UNL     1     -16.694  21.230  -4.803  1.00  0.00    -0.356 N 
HETATM   37  C11 UNL     1     -15.687  20.929  -3.746  1.00  0.00     0.145 C 
HETATM   38  C12 UNL     1     -14.894  22.202  -3.554  1.00  0.00     0.145 C 
HETATM   39  N5  UNL     1     -15.860  23.150  -2.987  1.00  0.00    -0.349 N 
HETATM   40  C13 UNL     1     -15.642  23.661  -1.684  1.00  0.00     0.215 C 
HETATM   41  C15 UNL     1     -16.968  23.490  -3.809  1.00  0.00     0.145 C 
HETATM   42  C14 UNL     1     -16.568  24.609  -1.040  1.00  0.00     0.117 C 
HETATM   43  O3  UNL     1     -14.618  23.288  -1.050  1.00  0.00    -0.274 OA
HETATM   44  C16 UNL     1     -17.513  22.379  -4.676  1.00  0.00     0.145 C 
ENDBRANCH   2  36
TORSDOF 13
ENDMDL
MODEL 3
REMARK VINA RESULT: -8.090277729      3.940      8.929
REMARK  13 active torsions:
REMARK  status: ('A' for Active; 'I' for Inactive)
REMARK    1  A    between atoms: C2_2  and  C3_3 
REMARK    2  A    between atoms: C4_4  and  C5_5 
REMARK    3  A    between atoms: C5_5  and  N1_6 
REMARK       I    between atoms: N1_6  and  C6_7 
REMARK    4  A    between atoms: C6_7  and  C7_9 
REMARK    5  A    between atoms: C7_9  and  N2_11 
REMARK    6  A    between atoms: N2_11  and  C9_13 
REMARK    7  A    between atoms: C10_16  and  O2_17 
REMARK    8  A    between atoms: C10_16  and  N4_19 
REMARK       I    between atoms: N5_22  and  C13_23 
REMARK    9  A    between atoms: C18_29  and  C19_30 
REMARK   10  A    between atoms: C19_30  and  N6_31 
REMARK   11  A    between atoms: C19_30  and  C27_42 
REMARK       I    between atoms: N6_31  and  C20_33 
REMARK   12  A    between atoms: C20_33  and  C21_35 
REMARK   13  A    between atoms: C21_35  and  C22_37 
ROOT
HETATM    1  C5  UNL     1     -16.452  19.790  -4.833  1.00  0.00     0.143 C 
HETATM    2  C10 UNL     1     -16.052  20.704  -3.804  1.00  0.00     0.176 C 
ENDROOT
BRANCH   1   3
HETATM    3  C4  UNL     1     -15.857  19.711  -6.158  1.00  0.00     0.059 C 
HETATM    4  C3  UNL     1     -16.535  20.190  -7.375  1.00  0.00     0.002 C 
HETATM    5  C18 UNL     1     -16.076  18.952  -8.080  1.00  0.00     0.014 C 
HETATM    6  C17 UNL     1     -15.931  18.283  -6.740  1.00  0.00     0.019 C 
BRANCH   4   7
HETATM    7  C2  UNL     1     -17.931  20.614  -7.380  1.00  0.00     0.001 C 
HETATM    8  C1  UNL     1     -18.348  21.937  -6.913  1.00  0.00     0.005 C 
ENDBRANCH   4   7
BRANCH   5   9
HETATM    9  C19 UNL     1     -16.891  18.295  -9.110  1.00  0.00     0.092 C 
BRANCH   9  10
HETATM   10  N6  UNL     1     -18.317  18.267  -8.733  1.00  0.00    -0.349 N 
HETATM   11  C20 UNL     1     -19.069  17.088  -8.684  1.00  0.00     0.288 C 
HETATM   12  O4  UNL     1     -18.502  16.002  -8.975  1.00  0.00    -0.264 OA
ATOM     13  H6  UNL     1     -18.775  19.147  -8.497  1.00  0.00     0.163 HD
BRANCH  11  14
HETATM   14  C21 UNL     1     -20.475  17.151  -8.305  1.00  0.00     0.224 C 
HETATM   15  O5  UNL     1     -21.054  18.242  -8.113  1.00  0.00    -0.286 OA
BRANCH  14  16
HETATM   16  C22 UNL     1     -21.217  15.891  -8.149  1.00  0.00     0.026 C 
HETATM   17  C23 UNL     1     -21.202  15.075  -9.402  1.00  0.00     0.024 C 
HETATM   18  C24 UNL     1     -22.608  16.148  -7.600  1.00  0.00     0.017 C 
HETATM   19  C25 UNL     1     -22.111  15.692  -6.247  1.00  0.00     0.002 C 
HETATM   20  C26 UNL     1     -20.900  15.099  -6.906  1.00  0.00     0.017 C 
ENDBRANCH  14  16
ENDBRANCH  11  14
ENDBRANCH   9  10
BRANCH   9  21
HETATM   21  C27 UNL     1     -16.906  19.154 -10.394  1.00  0.00     0.001 C 
HETATM   22  C28 UNL     1     -17.027  18.223 -11.610  1.00  0.00     0.011 C 
HETATM   23  C29 UNL     1     -15.628  19.903 -10.606  1.00  0.00     0.011 C 
ENDBRANCH   9  21
ENDBRANCH   5   9
ENDBRANCH   1   3
BRANCH   1  24
HETATM   24  N1  UNL     1     -17.411  19.044  -4.619  1.00  0.00    -0.369 NA
HETATM   25  C6  UNL     1     -18.492  18.334  -4.543  1.00  0.00     0.314 C 
HETATM   26  O1  UNL     1     -18.760  17.225  -5.162  1.00  0.00    -0.255 OA
BRANCH  25  27
HETATM   27  C7  UNL     1     -19.640  18.767  -3.648  1.00  0.00     0.186 C 
HETATM   28  C8  UNL     1     -20.056  20.143  -4.132  1.00  0.00     0.043 C 
BRANCH  27  29
HETATM   29  N2  UNL     1     -20.721  17.839  -3.639  1.00  0.00    -0.355 N 
ATOM     30  H2  UNL     1     -20.600  17.006  -4.216  1.00  0.00     0.162 HD
BRANCH  29  31
HETATM   31  C9  UNL     1     -21.929  17.928  -2.935  1.00  0.00     0.181 C 
HETATM   32  N3  UNL     1     -21.942  17.735  -1.531  1.00  0.00    -0.070 NA
HETATM   33  S1  UNL     1     -23.365  18.265  -3.642  1.00  0.00    -0.044 SA
ENDBRANCH  29  31
ENDBRANCH  27  29
ENDBRANCH  25  27
ENDBRANCH   1  24
BRANCH   2  34
HETATM   34  O2  UNL     1     -16.835  20.651  -2.729  1.00  0.00    -0.344 OA
ATOM     35  H2  UNL     1     -17.757  20.751  -2.937  1.00  0.00     0.219 HD
ENDBRANCH   2  34
BRANCH   2  36
HETATM   36  N4  UNL     1     -15.032  21.640  -3.658  1.00  0.00    -0.356 N 
HETATM   37  C11 UNL     1     -13.851  21.449  -4.546  1.00  0.00     0.145 C 
HETATM   38  C12 UNL     1     -13.635  22.774  -5.241  1.00  0.00     0.145 C 
HETATM   39  N5  UNL     1     -13.236  23.688  -4.165  1.00  0.00    -0.349 N 
HETATM   40  C13 UNL     1     -11.945  24.271  -4.199  1.00  0.00     0.215 C 
HETATM   41  C15 UNL     1     -14.198  23.924  -3.147  1.00  0.00     0.145 C 
HETATM   42  C14 UNL     1     -11.464  25.192  -3.154  1.00  0.00     0.117 C 
HETATM   43  O3  UNL     1     -11.177  23.989  -5.158  1.00  0.00    -0.274 OA
HETATM   44  C16 UNL     1     -15.063  22.744  -2.770  1.00  0.00     0.145 C 
ENDBRANCH   2  36
TORSDOF 13
ENDMDL
MODEL 4
REMARK VINA RESULT: -8.064118408      3.630      9.460
REMARK  13 active torsions:
REMARK  status: ('A' for Active; 'I' for Inactive)
REMARK    1  A    between atoms: C2_2  and  C3_3 
REMARK    2  A    between atoms: C4_4  and  C5_5 
REMARK    3  A    between atoms: C5_5  and  N1_6 
REMARK       I    between atoms: N1_6  and  C6_7 
REMARK    4  A    between atoms: C6_7  and  C7_9 
REMARK    5  A    between atoms: C7_9  and  N2_11 
REMARK    6  A    between atoms: N2_11  and  C9_13 
REMARK    7  A    between atoms: C10_16  and  O2_17 
REMARK    8  A    between atoms: C10_16  and  N4_19 
REMARK       I    between atoms: N5_22  and  C13_23 
REMARK    9  A    between atoms: C18_29  and  C19_30 
REMARK   10  A    between atoms: C19_30  and  N6_31 
REMARK   11  A    between atoms: C19_30  and  C27_42 
REMARK       I    between atoms: N6_31  and  C20_33 
REMARK   12  A    between atoms: C20_33  and  C21_35 
REMARK   13  A    between atoms: C21_35  and  C22_37 
ROOT
HETATM    1  C5  UNL     1     -17.030  21.183  -5.637  1.00  0.00     0.143 C 
HETATM    2  C10 UNL     1     -15.887  22.040  -5.751  1.00  0.00     0.176 C 
ENDROOT
BRANCH   1   3
HETATM    3  C4  UNL     1     -17.660  20.791  -4.385  1.00  0.00     0.059 C 
HETATM    4  C3  UNL     1     -17.917  19.388  -4.019  1.00  0.00     0.002 C 
HETATM    5  C18 UNL     1     -19.270  19.798  -3.529  1.00  0.00     0.014 C 
HETATM    6  C17 UNL     1     -19.187  21.011  -4.414  1.00  0.00     0.019 C 
BRANCH   4   7
HETATM    7  C2  UNL     1     -17.732  18.285  -4.955  1.00  0.00     0.001 C 
HETATM    8  C1  UNL     1     -16.442  17.615  -5.129  1.00  0.00     0.005 C 
ENDBRANCH   4   7
BRANCH   5   9
HETATM    9  C19 UNL     1     -20.441  18.918  -3.649  1.00  0.00     0.092 C 
BRANCH   9  10
HETATM   10  N6  UNL     1     -20.212  17.846  -4.634  1.00  0.00    -0.349 N 
HETATM   11  C20 UNL     1     -21.250  17.209  -5.323  1.00  0.00     0.288 C 
HETATM   12  O4  UNL     1     -22.434  17.568  -5.090  1.00  0.00    -0.264 OA
ATOM     13  H6  UNL     1     -19.252  17.556  -4.823  1.00  0.00     0.163 HD
BRANCH  11  14
HETATM   14  C21 UNL     1     -20.935  16.155  -6.278  1.00  0.00     0.224 C 
HETATM   15  O5  UNL     1     -20.821  14.961  -5.924  1.00  0.00    -0.286 OA
BRANCH  14  16
HETATM   16  C22 UNL     1     -20.750  16.519  -7.691  1.00  0.00     0.026 C 
HETATM   17  C23 UNL     1     -21.314  17.869  -7.998  1.00  0.00     0.024 C 
HETATM   18  C24 UNL     1     -21.257  15.420  -8.604  1.00  0.00     0.017 C 
HETATM   19  C25 UNL     1     -19.822  14.995  -8.819  1.00  0.00     0.002 C 
HETATM   20  C26 UNL     1     -19.363  16.302  -8.242  1.00  0.00     0.017 C 
ENDBRANCH  14  16
ENDBRANCH  11  14
ENDBRANCH   9  10
BRANCH   9  21
HETATM   21  C27 UNL     1     -20.638  18.125  -2.337  1.00  0.00     0.001 C 
HETATM   22  C28 UNL     1     -22.096  18.279  -1.879  1.00  0.00     0.011 C 
HETATM   23  C29 UNL     1     -19.819  18.662  -1.205  1.00  0.00     0.011 C 
ENDBRANCH   9  21
ENDBRANCH   5   9
ENDBRANCH   1   3
BRANCH   1  24
HETATM   24  N1  UNL     1     -17.496  20.681  -6.663  1.00  0.00    -0.369 NA
HETATM   25  C6  UNL     1     -18.042  20.020  -7.634  1.00  0.00     0.314 C 
HETATM   26  O1  UNL     1     -19.286  20.042  -8.008  1.00  0.00    -0.255 OA
BRANCH  25  27
HETATM   27  C7  UNL     1     -17.214  19.083  -8.496  1.00  0.00     0.186 C 
HETATM   28  C8  UNL     1     -18.063  18.772  -9.714  1.00  0.00     0.043 C 
BRANCH  27  29
HETATM   29  N2  UNL     1     -15.940  19.621  -8.839  1.00  0.00    -0.355 N 
ATOM     30  H2  UNL     1     -15.212  19.536  -8.128  1.00  0.00     0.162 HD
BRANCH  29  31
HETATM   31  C9  UNL     1     -15.562  20.253 -10.030  1.00  0.00     0.181 C 
HETATM   32  N3  UNL     1     -15.720  19.577 -11.267  1.00  0.00    -0.070 NA
HETATM   33  S1  UNL     1     -14.950  21.768 -10.097  1.00  0.00    -0.044 SA
ENDBRANCH  29  31
ENDBRANCH  27  29
ENDBRANCH  25  27
ENDBRANCH   1  24
BRANCH   2  34
HETATM   34  O2  UNL     1     -15.438  22.144  -6.999  1.00  0.00    -0.344 OA
ATOM     35  H2  UNL     1     -14.552  21.815  -7.103  1.00  0.00     0.219 HD
ENDBRANCH   2  34
BRANCH   2  36
HETATM   36  N4  UNL     1     -15.129  22.797  -4.861  1.00  0.00    -0.356 N 
HETATM   37  C11 UNL     1     -13.707  22.377  -4.708  1.00  0.00     0.145 C 
HETATM   38  C12 UNL     1     -12.879  23.620  -4.943  1.00  0.00     0.145 C 
HETATM   39  N5  UNL     1     -13.206  24.494  -3.810  1.00  0.00    -0.349 N 
HETATM   40  C13 UNL     1     -12.185  24.850  -2.896  1.00  0.00     0.215 C 
HETATM   41  C15 UNL     1     -14.557  24.925  -3.716  1.00  0.00     0.145 C 
HETATM   42  C14 UNL     1     -12.432  25.715  -1.730  1.00  0.00     0.117 C 
HETATM   43  O3  UNL     1     -11.019  24.408  -3.086  1.00  0.00    -0.274 OA
HETATM   44  C16 UNL     1     -15.603  23.922  -4.143  1.00  0.00     0.145 C 
ENDBRANCH   2  36
TORSDOF 13
ENDMDL
MODEL 5
REMARK VINA RESULT: -8.029590372      2.439      8.293
REMARK  13 active torsions:
REMARK  status: ('A' for Active; 'I' for Inactive)
REMARK    1  A    between atoms: C2_2  and  C3_3 
REMARK    2  A    between atoms: C4_4  and  C5_5 
REMARK    3  A    between atoms: C5_5  and  N1_6 
REMARK       I    between atoms: N1_6  and  C6_7 
REMARK    4  A    between atoms: C6_7  and  C7_9 
REMARK    5  A    between atoms: C7_9  and  N2_11 
REMARK    6  A    between atoms: N2_11  and  C9_13 
REMARK    7  A    between atoms: C10_16  and  O2_17 
REMARK    8  A    between atoms: C10_16  and  N4_19 
REMARK       I    between atoms: N5_22  and  C13_23 
REMARK    9  A    between atoms: C18_29  and  C19_30 
REMARK   10  A    between atoms: C19_30  and  N6_31 
REMARK   11  A    between atoms: C19_30  and  C27_42 
REMARK       I    between atoms: N6_31  and  C20_33 
REMARK   12  A    between atoms: C20_33  and  C21_35 
REMARK   13  A    between atoms: C21_35  and  C22_37 
ROOT
HETATM    1  C5  UNL     1     -13.018  21.844  -7.196  1.00  0.00     0.143 C 
HETATM    2  C10 UNL     1     -13.150  22.889  -6.223  1.00  0.00     0.176 C 
ENDROOT
BRANCH   1   3
HETATM    3  C4  UNL     1     -13.684  20.553  -7.130  1.00  0.00     0.059 C 
HETATM    4  C3  UNL     1     -14.836  20.198  -7.977  1.00  0.00     0.002 C 
HETATM    5  C18 UNL     1     -15.489  19.585  -6.779  1.00  0.00     0.014 C 
HETATM    6  C17 UNL     1     -14.618  20.446  -5.906  1.00  0.00     0.019 C 
BRANCH   4   7
HETATM    7  C2  UNL     1     -15.520  21.172  -8.821  1.00  0.00     0.001 C 
HETATM    8  C1  UNL     1     -15.339  21.214 -10.273  1.00  0.00     0.005 C 
ENDBRANCH   4   7
BRANCH   5   9
HETATM    9  C19 UNL     1     -16.944  19.625  -6.578  1.00  0.00     0.092 C 
BRANCH   9  10
HETATM   10  N6  UNL     1     -17.587  18.384  -7.048  1.00  0.00    -0.349 N 
HETATM   11  C20 UNL     1     -18.208  18.273  -8.296  1.00  0.00     0.288 C 
HETATM   12  O4  UNL     1     -18.218  19.279  -9.053  1.00  0.00    -0.264 OA
ATOM     13  H6  UNL     1     -17.578  17.569  -6.434  1.00  0.00     0.163 HD
BRANCH  11  14
HETATM   14  C21 UNL     1     -18.824  17.009  -8.680  1.00  0.00     0.224 C 
HETATM   15  O5  UNL     1     -18.192  16.138  -9.316  1.00  0.00    -0.286 OA
BRANCH  14  16
HETATM   16  C22 UNL     1     -20.224  16.766  -8.302  1.00  0.00     0.026 C 
HETATM   17  C23 UNL     1     -21.034  18.024  -8.321  1.00  0.00     0.024 C 
HETATM   18  C24 UNL     1     -20.307  16.003  -6.995  1.00  0.00     0.017 C 
HETATM   19  C25 UNL     1     -20.603  14.753  -7.793  1.00  0.00     0.002 C 
HETATM   20  C26 UNL     1     -20.892  15.605  -8.994  1.00  0.00     0.017 C 
ENDBRANCH  14  16
ENDBRANCH  11  14
ENDBRANCH   9  10
BRANCH   9  21
HETATM   21  C27 UNL     1     -17.265  19.612  -5.067  1.00  0.00     0.001 C 
HETATM   22  C28 UNL     1     -17.586  18.172  -4.641  1.00  0.00     0.011 C 
HETATM   23  C29 UNL     1     -18.493  20.398  -4.728  1.00  0.00     0.011 C 
ENDBRANCH   9  21
ENDBRANCH   5   9
ENDBRANCH   1   3
BRANCH   1  24
HETATM   24  N1  UNL     1     -12.239  22.010  -8.138  1.00  0.00    -0.369 NA
HETATM   25  C6  UNL     1     -11.304  22.245  -9.003  1.00  0.00     0.314 C 
HETATM   26  O1  UNL     1     -10.311  21.474  -9.329  1.00  0.00    -0.255 OA
BRANCH  25  27
HETATM   27  C7  UNL     1     -11.279  23.549  -9.781  1.00  0.00     0.186 C 
HETATM   28  C8  UNL     1     -12.241  23.366 -10.940  1.00  0.00     0.043 C 
BRANCH  27  29
HETATM   29  N2  UNL     1     -11.596  24.684  -8.979  1.00  0.00    -0.355 N 
ATOM     30  H2  UNL     1     -12.414  24.591  -8.376  1.00  0.00     0.162 HD
BRANCH  29  31
HETATM   31  C9  UNL     1     -10.922  25.910  -8.915  1.00  0.00     0.181 C 
HETATM   32  N3  UNL     1     -10.921  26.651  -7.707  1.00  0.00    -0.070 NA
HETATM   33  S1  UNL     1     -10.098  26.556 -10.172  1.00  0.00    -0.044 SA
ENDBRANCH  29  31
ENDBRANCH  27  29
ENDBRANCH  25  27
ENDBRANCH   1  24
BRANCH   2  34
HETATM   34  O2  UNL     1     -12.343  23.921  -6.457  1.00  0.00    -0.344 OA
ATOM     35  H2  UNL     1     -12.089  23.993  -7.369  1.00  0.00     0.219 HD
ENDBRANCH   2  34
BRANCH   2  36
HETATM   36  N4  UNL     1     -13.927  23.085  -5.085  1.00  0.00    -0.356 N 
HETATM   37  C11 UNL     1     -13.298  22.675  -3.798  1.00  0.00     0.145 C 
HETATM   38  C12 UNL     1     -13.405  23.873  -2.882  1.00  0.00     0.145 C 
HETATM   39  N5  UNL     1     -14.845  24.020  -2.643  1.00  0.00    -0.349 N 
HETATM   40  C13 UNL     1     -15.346  23.866  -1.327  1.00  0.00     0.215 C 
HETATM   41  C15 UNL     1     -15.648  24.312  -3.779  1.00  0.00     0.145 C 
HETATM   42  C14 UNL     1     -16.778  23.990  -1.004  1.00  0.00     0.117 C 
HETATM   43  O3  UNL     1     -14.534  23.612  -0.396  1.00  0.00    -0.274 OA
HETATM   44  C16 UNL     1     -15.222  23.660  -5.074  1.00  0.00     0.145 C 
ENDBRANCH   2  36
TORSDOF 13
ENDMDL
