MODEL 1
REMARK VINA RESULT: -5.147558024      0.000      0.000
REMARK  13 active torsions:
REMARK  status: ('A' for Active; 'I' for Inactive)
REMARK    1  A    between atoms: C2_2  and  C3_3 
REMARK    2  A    between atoms: C3_3  and  C4_4 
REMARK    3  A    between atoms: C4_4  and  C5_5 
REMARK    4  A    between atoms: C5_5  and  C6_6 
REMARK    5  A    between atoms: C6_6  and  C7_7 
REMARK    6  A    between atoms: C8_8  and  O1_9 
REMARK    7  A    between atoms: C9_13  and  C10_14 
REMARK    8  A    between atoms: C19_28  and  C20_29 
REMARK    9  A    between atoms: C20_29  and  C21_30 
REMARK   10  A    between atoms: C21_30  and  C22_31 
REMARK   11  A    between atoms: C22_31  and  N4_32 
REMARK   12  A    between atoms: C28_43  and  O5_44 
REMARK   13  A    between atoms: C29_48  and  C30_49 
ROOT
HETATM    1  C7  UNL     1      24.273   0.900  -3.735  1.00  0.00     0.110 C 
HETATM    2  C8  UNL     1      24.977   0.730  -2.450  1.00  0.00     0.126 C 
HETATM    3  N1  UNL     1      24.997  -0.182  -1.432  1.00  0.00    -0.339 N 
ATOM      4  H1  UNL     1      24.686   0.298  -0.588  1.00  0.00     0.167 HD
HETATM    5  C9  UNL     1      25.277  -1.531  -1.077  1.00  0.00     0.083 C 
HETATM    6  C13 UNL     1      25.157  -2.585  -2.043  1.00  0.00     0.267 C 
HETATM    7  O2  UNL     1      24.256  -2.368  -2.937  1.00  0.00    -0.266 OA
HETATM    8  N2  UNL     1      25.769  -3.808  -2.269  1.00  0.00    -0.334 N 
HETATM    9  C14 UNL     1      25.275  -5.059  -2.944  1.00  0.00     0.127 C 
HETATM   10  C15 UNL     1      25.556  -6.046  -1.839  1.00  0.00     0.022 C 
HETATM   11  C16 UNL     1      26.640  -5.432  -0.978  1.00  0.00     0.037 C 
HETATM   12  C17 UNL     1      27.088  -4.286  -1.918  1.00  0.00     0.179 C 
HETATM   13  C18 UNL     1      27.783  -4.991  -3.058  1.00  0.00     0.241 C 
HETATM   14  O3  UNL     1      27.989  -6.257  -2.983  1.00  0.00    -0.271 OA
HETATM   15  N3  UNL     1      28.245  -4.395  -4.229  1.00  0.00    -0.346 N 
ATOM     16  H3  UNL     1      28.071  -4.893  -5.103  1.00  0.00     0.163 HD
HETATM   17  C19 UNL     1      28.961  -3.112  -4.318  1.00  0.00     0.177 C 
HETATM   18  C24 UNL     1      28.442  -2.290  -5.431  1.00  0.00     0.246 C 
HETATM   19  O4  UNL     1      27.740  -2.996  -6.258  1.00  0.00    -0.271 OA
HETATM   20  N7  UNL     1      28.581  -0.945  -5.723  1.00  0.00    -0.321 N 
HETATM   21  C25 UNL     1      28.768  -0.573  -7.124  1.00  0.00     0.159 C 
HETATM   22  C26 UNL     1      28.573   0.200  -4.846  1.00  0.00     0.061 C 
HETATM   23  C27 UNL     1      28.611  -0.105  -3.383  1.00  0.00     0.073 C 
HETATM   24  C28 UNL     1      27.647   1.281  -5.252  1.00  0.00     0.163 C 
HETATM   25  N8  UNL     1      26.402   1.751  -4.835  1.00  0.00    -0.338 N 
ATOM     26  H8  UNL     1      26.508   2.622  -4.315  1.00  0.00     0.168 HD
HETATM   27  C29 UNL     1      25.035   1.388  -4.914  1.00  0.00     0.025 C 
ENDROOT
BRANCH  17  28
HETATM   28  C20 UNL     1      30.444  -3.397  -4.651  1.00  0.00     0.036 C 
BRANCH  28  29
HETATM   29  C21 UNL     1      30.613  -4.704  -5.361  1.00  0.00     0.022 C 
BRANCH  29  30
HETATM   30  C22 UNL     1      31.442  -5.605  -4.482  1.00  0.00     0.122 C 
BRANCH  30  31
HETATM   31  N4  UNL     1      30.745  -6.764  -4.014  1.00  0.00    -0.367 N 
HETATM   32  C23 UNL     1      30.698  -7.888  -4.655  1.00  0.00     0.196 C 
HETATM   33  N5  UNL     1      31.340  -8.080  -5.896  1.00  0.00    -0.067 NA
HETATM   34  N6  UNL     1      29.980  -8.999  -4.121  1.00  0.00    -0.067 NA
ATOM     35  H4  UNL     1      30.256  -6.701  -3.120  1.00  0.00     0.161 HD
ENDBRANCH  30  31
ENDBRANCH  29  30
ENDBRANCH  28  29
ENDBRANCH  17  28
BRANCH  24  36
HETATM   36  O5  UNL     1      28.169   1.940  -6.263  1.00  0.00    -0.345 OA
ATOM     37  H5  UNL     1      27.485   2.431  -6.702  1.00  0.00     0.219 HD
ENDBRANCH  24  36
BRANCH   5  38
HETATM   38  C10 UNL     1      26.532  -1.590  -0.186  1.00  0.00     0.041 A 
HETATM   39  C11 UNL     1      26.302  -0.913   1.144  1.00  0.00     0.011 A 
HETATM   40  C12 UNL     1      26.575  -2.345   1.062  1.00  0.00     0.011 A 
ENDBRANCH   5  38
BRANCH  27  41
HETATM   41  C30 UNL     1      24.612   0.621  -6.164  1.00  0.00    -0.064 C 
HETATM   42  C31 UNL     1      23.418   1.107  -6.865  1.00  0.00     0.045 C 
HETATM   43  C32 UNL     1      24.712  -0.870  -5.959  1.00  0.00     0.045 C 
ENDBRANCH  27  41
BRANCH   1  44
HETATM   44  C6  UNL     1      23.134   1.893  -3.331  1.00  0.00     0.019 C 
BRANCH  44  45
HETATM   45  C5  UNL     1      21.787   1.507  -3.692  1.00  0.00     0.001 C 
BRANCH  45  46
HETATM   46  C4  UNL     1      21.688  -0.023  -3.524  1.00  0.00     0.004 C 
BRANCH  46  47
HETATM   47  C3  UNL     1      20.939  -0.647  -4.658  1.00  0.00     0.026 C 
BRANCH  47  48
HETATM   48  C2  UNL     1      21.228  -2.089  -4.731  1.00  0.00    -0.037 C 
HETATM   49  C1  UNL     1      21.530  -2.647  -5.897  1.00  0.00     0.007 C 
ENDBRANCH  47  48
ENDBRANCH  46  47
ENDBRANCH  45  46
ENDBRANCH  44  45
ENDBRANCH   1  44
BRANCH   2  50
HETATM   50  O1  UNL     1      25.773   1.774  -2.321  1.00  0.00    -0.349 OA
ATOM     51  H1  UNL     1      25.492   2.230  -1.536  1.00  0.00     0.219 HD
ENDBRANCH   2  50
TORSDOF 13
ENDMDL
MODEL 2
REMARK VINA RESULT: -4.831957900      2.175      7.493
REMARK  13 active torsions:
REMARK  status: ('A' for Active; 'I' for Inactive)
REMARK    1  A    between atoms: C2_2  and  C3_3 
REMARK    2  A    between atoms: C3_3  and  C4_4 
REMARK    3  A    between atoms: C4_4  and  C5_5 
REMARK    4  A    between atoms: C5_5  and  C6_6 
REMARK    5  A    between atoms: C6_6  and  C7_7 
REMARK    6  A    between atoms: C8_8  and  O1_9 
REMARK    7  A    between atoms: C9_13  and  C10_14 
REMARK    8  A    between atoms: C19_28  and  C20_29 
REMARK    9  A    between atoms: C20_29  and  C21_30 
REMARK   10  A    between atoms: C21_30  and  C22_31 
REMARK   11  A    between atoms: C22_31  and  N4_32 
REMARK   12  A    between atoms: C28_43  and  O5_44 
REMARK   13  A    between atoms: C29_48  and  C30_49 
ROOT
HETATM    1  C7  UNL     1      30.402  -3.647  -4.513  1.00  0.00     0.110 C 
HETATM    2  C8  UNL     1      29.120  -4.373  -4.474  1.00  0.00     0.126 C 
HETATM    3  N1  UNL     1      28.224  -4.774  -3.522  1.00  0.00    -0.339 N 
ATOM      4  H1  UNL     1      28.190  -5.793  -3.546  1.00  0.00     0.167 HD
HETATM    5  C9  UNL     1      27.321  -4.341  -2.511  1.00  0.00     0.083 C 
HETATM    6  C13 UNL     1      27.535  -3.104  -1.816  1.00  0.00     0.267 C 
HETATM    7  O2  UNL     1      28.777  -2.785  -1.697  1.00  0.00    -0.266 OA
HETATM    8  N2  UNL     1      26.736  -2.141  -1.220  1.00  0.00    -0.334 N 
HETATM    9  C14 UNL     1      27.007  -1.179  -0.095  1.00  0.00     0.127 C 
HETATM   10  C15 UNL     1      25.838  -1.525   0.793  1.00  0.00     0.022 C 
HETATM   11  C16 UNL     1      24.783  -2.140  -0.102  1.00  0.00     0.037 C 
HETATM   12  C17 UNL     1      25.369  -1.751  -1.483  1.00  0.00     0.179 C 
HETATM   13  C18 UNL     1      25.184  -0.255  -1.555  1.00  0.00     0.241 C 
HETATM   14  O3  UNL     1      24.517   0.343  -0.634  1.00  0.00    -0.271 OA
HETATM   15  N3  UNL     1      25.678   0.583  -2.553  1.00  0.00    -0.346 N 
ATOM     16  H3  UNL     1      26.090   1.468  -2.254  1.00  0.00     0.163 HD
HETATM   17  C19 UNL     1      25.656   0.306  -3.998  1.00  0.00     0.177 C 
HETATM   18  C24 UNL     1      26.948   0.654  -4.625  1.00  0.00     0.246 C 
HETATM   19  O4  UNL     1      27.661   1.415  -3.858  1.00  0.00    -0.271 OA
HETATM   20  N7  UNL     1      27.498   0.315  -5.849  1.00  0.00    -0.321 N 
HETATM   21  C25 UNL     1      28.239   1.350  -6.567  1.00  0.00     0.159 C 
HETATM   22  C26 UNL     1      27.462  -0.935  -6.567  1.00  0.00     0.061 C 
HETATM   23  C27 UNL     1      26.541  -1.974  -6.013  1.00  0.00     0.073 C 
HETATM   24  C28 UNL     1      28.784  -1.424  -7.018  1.00  0.00     0.163 C 
HETATM   25  N8  UNL     1      29.685  -2.411  -6.617  1.00  0.00    -0.338 N 
ATOM     26  H8  UNL     1      29.650  -3.204  -7.258  1.00  0.00     0.168 HD
HETATM   27  C29 UNL     1      30.631  -2.648  -5.591  1.00  0.00     0.025 C 
ENDROOT
BRANCH  17  28
HETATM   28  C20 UNL     1      24.600   1.220  -4.661  1.00  0.00     0.036 C 
BRANCH  28  29
HETATM   29  C21 UNL     1      23.720   0.459  -5.603  1.00  0.00     0.022 C 
BRANCH  29  30
HETATM   30  C22 UNL     1      22.700  -0.290  -4.783  1.00  0.00     0.122 C 
BRANCH  30  31
HETATM   31  N4  UNL     1      22.009  -1.313  -5.506  1.00  0.00    -0.367 N 
HETATM   32  C23 UNL     1      22.280  -2.575  -5.410  1.00  0.00     0.196 C 
HETATM   33  N5  UNL     1      23.298  -3.070  -4.570  1.00  0.00    -0.067 NA
HETATM   34  N6  UNL     1      21.543  -3.535  -6.166  1.00  0.00    -0.067 NA
ATOM     35  H4  UNL     1      21.256  -1.031  -6.134  1.00  0.00     0.161 HD
ENDBRANCH  30  31
ENDBRANCH  29  30
ENDBRANCH  28  29
ENDBRANCH  17  28
BRANCH  24  36
HETATM   36  O5  UNL     1      29.169  -0.726  -8.063  1.00  0.00    -0.345 OA
ATOM     37  H5  UNL     1      29.659  -1.289  -8.651  1.00  0.00     0.219 HD
ENDBRANCH  24  36
BRANCH   5  38
HETATM   38  C10 UNL     1      25.870  -4.608  -2.953  1.00  0.00     0.041 A 
HETATM   39  C11 UNL     1      25.561  -6.086  -2.981  1.00  0.00     0.011 A 
HETATM   40  C12 UNL     1      24.871  -5.187  -2.061  1.00  0.00     0.011 A 
ENDBRANCH   5  38
BRANCH  27  41
HETATM   41  C30 UNL     1      31.334  -1.418  -5.024  1.00  0.00    -0.064 C 
HETATM   42  C31 UNL     1      30.589  -0.629  -4.036  1.00  0.00     0.045 C 
HETATM   43  C32 UNL     1      32.050  -0.644  -6.102  1.00  0.00     0.045 C 
ENDBRANCH  27  41
BRANCH   1  44
HETATM   44  C6  UNL     1      31.423  -4.829  -4.593  1.00  0.00     0.019 C 
BRANCH  44  45
HETATM   45  C5  UNL     1      31.086  -6.021  -3.844  1.00  0.00     0.001 C 
BRANCH  45  46
HETATM   46  C4  UNL     1      32.255  -7.012  -4.012  1.00  0.00     0.004 C 
BRANCH  46  47
HETATM   47  C3  UNL     1      32.624  -7.642  -2.706  1.00  0.00     0.026 C 
BRANCH  47  48
HETATM   48  C2  UNL     1      33.379  -8.886  -2.933  1.00  0.00    -0.037 C 
HETATM   49  C1  UNL     1      32.742  -9.989  -3.307  1.00  0.00     0.007 C 
ENDBRANCH  47  48
ENDBRANCH  46  47
ENDBRANCH  45  46
ENDBRANCH  44  45
ENDBRANCH   1  44
BRANCH   2  50
HETATM   50  O1  UNL     1      28.833  -4.690  -5.722  1.00  0.00    -0.349 OA
ATOM     51  H1  UNL     1      28.520  -5.587  -5.706  1.00  0.00     0.219 HD
ENDBRANCH   2  50
TORSDOF 13
ENDMDL
MODEL 3
REMARK VINA RESULT: -4.787318943      1.289      1.399
REMARK  13 active torsions:
REMARK  status: ('A' for Active; 'I' for Inactive)
REMARK    1  A    between atoms: C2_2  and  C3_3 
REMARK    2  A    between atoms: C3_3  and  C4_4 
REMARK    3  A    between atoms: C4_4  and  C5_5 
REMARK    4  A    between atoms: C5_5  and  C6_6 
REMARK    5  A    between atoms: C6_6  and  C7_7 
REMARK    6  A    between atoms: C8_8  and  O1_9 
REMARK    7  A    between atoms: C9_13  and  C10_14 
REMARK    8  A    between atoms: C19_28  and  C20_29 
REMARK    9  A    between atoms: C20_29  and  C21_30 
REMARK   10  A    between atoms: C21_30  and  C22_31 
REMARK   11  A    between atoms: C22_31  and  N4_32 
REMARK   12  A    between atoms: C28_43  and  O5_44 
REMARK   13  A    between atoms: C29_48  and  C30_49 
ROOT
HETATM    1  C7  UNL     1      25.369   0.423  -3.299  1.00  0.00     0.110 C 
HETATM    2  C8  UNL     1      26.079   0.053  -2.061  1.00  0.00     0.126 C 
HETATM    3  N1  UNL     1      25.994  -0.929  -1.113  1.00  0.00    -0.339 N 
ATOM      4  H1  UNL     1      25.784  -0.477  -0.224  1.00  0.00     0.167 HD
HETATM    5  C9  UNL     1      26.082  -2.328  -0.869  1.00  0.00     0.083 C 
HETATM    6  C13 UNL     1      25.777  -3.275  -1.903  1.00  0.00     0.267 C 
HETATM    7  O2  UNL     1      24.892  -2.860  -2.741  1.00  0.00    -0.266 OA
HETATM    8  N2  UNL     1      26.194  -4.553  -2.243  1.00  0.00    -0.334 N 
HETATM    9  C14 UNL     1      25.500  -5.662  -2.986  1.00  0.00     0.127 C 
HETATM   10  C15 UNL     1      25.665  -6.762  -1.968  1.00  0.00     0.022 C 
HETATM   11  C16 UNL     1      26.854  -6.382  -1.111  1.00  0.00     0.037 C 
HETATM   12  C17 UNL     1      27.438  -5.243  -1.983  1.00  0.00     0.179 C 
HETATM   13  C18 UNL     1      27.986  -5.951  -3.198  1.00  0.00     0.241 C 
HETATM   14  O3  UNL     1      28.004  -7.236  -3.224  1.00  0.00    -0.271 OA
HETATM   15  N3  UNL     1      28.495  -5.339  -4.342  1.00  0.00    -0.346 N 
ATOM     16  H3  UNL     1      28.223  -5.737  -5.241  1.00  0.00     0.163 HD
HETATM   17  C19 UNL     1      29.390  -4.171  -4.367  1.00  0.00     0.177 C 
HETATM   18  C24 UNL     1      28.966  -3.198  -5.395  1.00  0.00     0.246 C 
HETATM   19  O4  UNL     1      28.142  -3.728  -6.241  1.00  0.00    -0.271 OA
HETATM   20  N7  UNL     1      29.293  -1.869  -5.594  1.00  0.00    -0.321 N 
HETATM   21  C25 UNL     1      29.491  -1.420  -6.971  1.00  0.00     0.159 C 
HETATM   22  C26 UNL     1      29.482  -0.807  -4.636  1.00  0.00     0.061 C 
HETATM   23  C27 UNL     1      29.519  -1.227  -3.202  1.00  0.00     0.073 C 
HETATM   24  C28 UNL     1      28.714   0.425  -4.924  1.00  0.00     0.163 C 
HETATM   25  N8  UNL     1      27.566   1.038  -4.423  1.00  0.00    -0.338 N 
ATOM     26  H8  UNL     1      27.816   1.841  -3.846  1.00  0.00     0.168 HD
HETATM   27  C29 UNL     1      26.159   0.885  -4.471  1.00  0.00     0.025 C 
ENDROOT
BRANCH  17  28
HETATM   28  C20 UNL     1      30.804  -4.641  -4.781  1.00  0.00     0.036 C 
BRANCH  28  29
HETATM   29  C21 UNL     1      30.841  -6.112  -5.059  1.00  0.00     0.022 C 
BRANCH  29  30
HETATM   30  C22 UNL     1      31.846  -6.735  -4.123  1.00  0.00     0.122 C 
BRANCH  30  31
HETATM   31  N4  UNL     1      31.267  -7.595  -3.136  1.00  0.00    -0.367 N 
HETATM   32  C23 UNL     1      31.916  -8.535  -2.525  1.00  0.00     0.196 C 
HETATM   33  N5  UNL     1      33.276  -8.805  -2.779  1.00  0.00    -0.067 NA
HETATM   34  N6  UNL     1      31.265  -9.351  -1.552  1.00  0.00    -0.067 NA
ATOM     35  H4  UNL     1      30.284  -7.459  -2.898  1.00  0.00     0.161 HD
ENDBRANCH  30  31
ENDBRANCH  29  30
ENDBRANCH  28  29
ENDBRANCH  17  28
BRANCH  24  36
HETATM   36  O5  UNL     1      29.298   1.078  -5.905  1.00  0.00    -0.345 OA
ATOM     37  H5  UNL     1      29.235   0.565  -6.702  1.00  0.00     0.219 HD
ENDBRANCH  24  36
BRANCH   5  38
HETATM   38  C10 UNL     1      27.341  -2.638  -0.038  1.00  0.00     0.041 A 
HETATM   39  C11 UNL     1      27.117  -2.371   1.431  1.00  0.00     0.011 A 
HETATM   40  C12 UNL     1      27.389  -3.719   0.942  1.00  0.00     0.011 A 
ENDBRANCH   5  38
BRANCH  27  41
HETATM   41  C30 UNL     1      25.589   0.288  -5.755  1.00  0.00    -0.064 C 
HETATM   42  C31 UNL     1      24.476   1.010  -6.382  1.00  0.00     0.045 C 
HETATM   43  C32 UNL     1      25.447  -1.210  -5.652  1.00  0.00     0.045 C 
ENDBRANCH  27  41
BRANCH   1  44
HETATM   44  C6  UNL     1      24.403   1.536  -2.778  1.00  0.00     0.019 C 
BRANCH  44  45
HETATM   45  C5  UNL     1      23.003   1.381  -3.113  1.00  0.00     0.001 C 
BRANCH  45  46
HETATM   46  C4  UNL     1      22.687  -0.127  -3.072  1.00  0.00     0.004 C 
BRANCH  46  47
HETATM   47  C3  UNL     1      21.814  -0.530  -4.217  1.00  0.00     0.026 C 
BRANCH  47  48
HETATM   48  C2  UNL     1      21.981  -1.964  -4.509  1.00  0.00    -0.037 C 
HETATM   49  C1  UNL     1      21.933  -2.395  -5.763  1.00  0.00     0.007 C 
ENDBRANCH  47  48
ENDBRANCH  46  47
ENDBRANCH  45  46
ENDBRANCH  44  45
ENDBRANCH   1  44
BRANCH   2  50
HETATM   50  O1  UNL     1      27.024   0.957  -1.890  1.00  0.00    -0.349 OA
ATOM     51  H1  UNL     1      27.851   0.507  -2.019  1.00  0.00     0.219 HD
ENDBRANCH   2  50
TORSDOF 13
ENDMDL
MODEL 4
REMARK VINA RESULT: -4.590398792      1.914      2.555
REMARK  13 active torsions:
REMARK  status: ('A' for Active; 'I' for Inactive)
REMARK    1  A    between atoms: C2_2  and  C3_3 
REMARK    2  A    between atoms: C3_3  and  C4_4 
REMARK    3  A    between atoms: C4_4  and  C5_5 
REMARK    4  A    between atoms: C5_5  and  C6_6 
REMARK    5  A    between atoms: C6_6  and  C7_7 
REMARK    6  A    between atoms: C8_8  and  O1_9 
REMARK    7  A    between atoms: C9_13  and  C10_14 
REMARK    8  A    between atoms: C19_28  and  C20_29 
REMARK    9  A    between atoms: C20_29  and  C21_30 
REMARK   10  A    between atoms: C21_30  and  C22_31 
REMARK   11  A    between atoms: C22_31  and  N4_32 
REMARK   12  A    between atoms: C28_43  and  O5_44 
REMARK   13  A    between atoms: C29_48  and  C30_49 
ROOT
HETATM    1  C7  UNL     1      26.708  -0.001  -4.626  1.00  0.00     0.110 C 
HETATM    2  C8  UNL     1      27.068  -0.290  -3.225  1.00  0.00     0.126 C 
HETATM    3  N1  UNL     1      26.665  -1.155  -2.246  1.00  0.00    -0.339 N 
ATOM      4  H1  UNL     1      26.299  -0.596  -1.476  1.00  0.00     0.167 HD
HETATM    5  C9  UNL     1      26.551  -2.523  -1.869  1.00  0.00     0.083 C 
HETATM    6  C13 UNL     1      26.404  -3.549  -2.862  1.00  0.00     0.267 C 
HETATM    7  O2  UNL     1      25.786  -3.158  -3.922  1.00  0.00    -0.266 OA
HETATM    8  N2  UNL     1      26.758  -4.884  -2.979  1.00  0.00    -0.334 N 
HETATM    9  C14 UNL     1      26.149  -6.009  -3.771  1.00  0.00     0.127 C 
HETATM   10  C15 UNL     1      25.960  -7.004  -2.653  1.00  0.00     0.022 C 
HETATM   11  C16 UNL     1      26.946  -6.627  -1.569  1.00  0.00     0.037 C 
HETATM   12  C17 UNL     1      27.830  -5.636  -2.367  1.00  0.00     0.179 C 
HETATM   13  C18 UNL     1      28.573  -6.511  -3.348  1.00  0.00     0.241 C 
HETATM   14  O3  UNL     1      28.468  -7.788  -3.259  1.00  0.00    -0.271 OA
HETATM   15  N3  UNL     1      29.394  -6.066  -4.382  1.00  0.00    -0.346 N 
ATOM     16  H3  UNL     1      29.302  -6.535  -5.283  1.00  0.00     0.163 HD
HETATM   17  C19 UNL     1      30.384  -4.980  -4.288  1.00  0.00     0.177 C 
HETATM   18  C24 UNL     1      30.312  -4.093  -5.468  1.00  0.00     0.246 C 
HETATM   19  O4  UNL     1      29.660  -4.645  -6.440  1.00  0.00    -0.271 OA
HETATM   20  N7  UNL     1      30.809  -2.822  -5.695  1.00  0.00    -0.321 N 
HETATM   21  C25 UNL     1      31.367  -2.540  -7.015  1.00  0.00     0.159 C 
HETATM   22  C26 UNL     1      30.874  -1.681  -4.814  1.00  0.00     0.061 C 
HETATM   23  C27 UNL     1      30.532  -1.947  -3.383  1.00  0.00     0.073 C 
HETATM   24  C28 UNL     1      30.323  -0.431  -5.384  1.00  0.00     0.163 C 
HETATM   25  N8  UNL     1      29.157   0.319  -5.231  1.00  0.00    -0.338 N 
ATOM     26  H8  UNL     1      29.345   1.157  -4.681  1.00  0.00     0.168 HD
HETATM   27  C29 UNL     1      27.793   0.270  -5.606  1.00  0.00     0.025 C 
ENDROOT
BRANCH  17  28
HETATM   28  C20 UNL     1      31.801  -5.600  -4.305  1.00  0.00     0.036 C 
BRANCH  28  29
HETATM   29  C21 UNL     1      31.753  -7.092  -4.426  1.00  0.00     0.022 C 
BRANCH  29  30
HETATM   30  C22 UNL     1      32.445  -7.677  -3.221  1.00  0.00     0.122 C 
BRANCH  30  31
HETATM   31  N4  UNL     1      31.553  -8.222  -2.245  1.00  0.00    -0.367 N 
HETATM   32  C23 UNL     1      31.390  -9.490  -2.041  1.00  0.00     0.196 C 
HETATM   33  N5  UNL     1      32.090 -10.471  -2.774  1.00  0.00    -0.067 NA
HETATM   34  N6  UNL     1      30.479  -9.955  -1.046  1.00  0.00    -0.067 NA
ATOM     35  H4  UNL     1      31.012  -7.572  -1.674  1.00  0.00     0.161 HD
ENDBRANCH  30  31
ENDBRANCH  29  30
ENDBRANCH  28  29
ENDBRANCH  17  28
BRANCH  24  36
HETATM   36  O5  UNL     1      31.183   0.065  -6.246  1.00  0.00    -0.345 OA
ATOM     37  H5  UNL     1      30.837   0.876  -6.599  1.00  0.00     0.219 HD
ENDBRANCH  24  36
BRANCH   5  38
HETATM   38  C10 UNL     1      27.543  -2.839  -0.733  1.00  0.00     0.041 A 
HETATM   39  C11 UNL     1      27.013  -2.392   0.607  1.00  0.00     0.011 A 
HETATM   40  C12 UNL     1      27.249  -3.803   0.321  1.00  0.00     0.011 A 
ENDBRANCH   5  38
BRANCH  27  41
HETATM   41  C30 UNL     1      27.482  -0.415  -6.934  1.00  0.00    -0.064 C 
HETATM   42  C31 UNL     1      26.519   0.257  -7.814  1.00  0.00     0.045 C 
HETATM   43  C32 UNL     1      27.312  -1.904  -6.761  1.00  0.00     0.045 C 
ENDBRANCH  27  41
BRANCH   1  44
HETATM   44  C6  UNL     1      25.763   1.233  -4.451  1.00  0.00     0.019 C 
BRANCH  44  45
HETATM   45  C5  UNL     1      24.392   0.947  -4.089  1.00  0.00     0.001 C 
BRANCH  45  46
HETATM   46  C4  UNL     1      23.762   0.169  -5.262  1.00  0.00     0.004 C 
BRANCH  46  47
HETATM   47  C3  UNL     1      23.132  -1.105  -4.793  1.00  0.00     0.026 C 
BRANCH  47  48
HETATM   48  C2  UNL     1      23.093  -2.089  -5.887  1.00  0.00    -0.037 C 
HETATM   49  C1  UNL     1      23.549  -1.762  -7.090  1.00  0.00     0.007 C 
ENDBRANCH  47  48
ENDBRANCH  46  47
ENDBRANCH  45  46
ENDBRANCH  44  45
ENDBRANCH   1  44
BRANCH   2  50
HETATM   50  O1  UNL     1      28.032   0.551  -2.907  1.00  0.00    -0.349 OA
ATOM     51  H1  UNL     1      27.971   0.687  -1.969  1.00  0.00     0.219 HD
ENDBRANCH   2  50
TORSDOF 13
ENDMDL
MODEL 5
REMARK VINA RESULT: -4.582549931      2.455      8.508
REMARK  13 active torsions:
REMARK  status: ('A' for Active; 'I' for Inactive)
REMARK    1  A    between atoms: C2_2  and  C3_3 
REMARK    2  A    between atoms: C3_3  and  C4_4 
REMARK    3  A    between atoms: C4_4  and  C5_5 
REMARK    4  A    between atoms: C5_5  and  C6_6 
REMARK    5  A    between atoms: C6_6  and  C7_7 
REMARK    6  A    between atoms: C8_8  and  O1_9 
REMARK    7  A    between atoms: C9_13  and  C10_14 
REMARK    8  A    between atoms: C19_28  and  C20_29 
REMARK    9  A    between atoms: C20_29  and  C21_30 
REMARK   10  A    between atoms: C21_30  and  C22_31 
REMARK   11  A    between atoms: C22_31  and  N4_32 
REMARK   12  A    between atoms: C28_43  and  O5_44 
REMARK   13  A    between atoms: C29_48  and  C30_49 
ROOT
HETATM    1  C7  UNL     1      29.542  -4.735  -5.083  1.00  0.00     0.110 C 
HETATM    2  C8  UNL     1      30.015  -3.340  -5.138  1.00  0.00     0.126 C 
HETATM    3  N1  UNL     1      30.051  -2.330  -6.059  1.00  0.00    -0.339 N 
ATOM      4  H1  UNL     1      31.032  -2.108  -6.228  1.00  0.00     0.167 HD
HETATM    5  C9  UNL     1      29.271  -1.465  -6.875  1.00  0.00     0.083 C 
HETATM    6  C13 UNL     1      27.972  -1.863  -7.337  1.00  0.00     0.267 C 
HETATM    7  O2  UNL     1      27.852  -3.134  -7.511  1.00  0.00    -0.266 OA
HETATM    8  N2  UNL     1      26.785  -1.223  -7.655  1.00  0.00    -0.334 N 
HETATM    9  C14 UNL     1      25.671  -1.600  -8.595  1.00  0.00     0.127 C 
HETATM   10  C15 UNL     1      25.621  -0.337  -9.416  1.00  0.00     0.022 C 
HETATM   11  C16 UNL     1      26.220   0.759  -8.559  1.00  0.00     0.037 C 
HETATM   12  C17 UNL     1      26.231   0.029  -7.192  1.00  0.00     0.179 C 
HETATM   13  C18 UNL     1      24.772  -0.073  -6.815  1.00  0.00     0.241 C 
HETATM   14  O3  UNL     1      23.892   0.525  -7.535  1.00  0.00    -0.271 OA
HETATM   15  N3  UNL     1      24.255  -0.773  -5.727  1.00  0.00    -0.346 N 
ATOM     16  H3  UNL     1      23.412  -1.324  -5.887  1.00  0.00     0.163 HD
HETATM   17  C19 UNL     1      24.818  -0.787  -4.367  1.00  0.00     0.177 C 
HETATM   18  C24 UNL     1      24.833  -2.156  -3.812  1.00  0.00     0.246 C 
HETATM   19  O4  UNL     1      24.062  -2.950  -4.483  1.00  0.00    -0.271 OA
HETATM   20  N7  UNL     1      25.506  -2.705  -2.736  1.00  0.00    -0.321 N 
HETATM   21  C25 UNL     1      24.784  -3.668  -1.906  1.00  0.00     0.159 C 
HETATM   22  C26 UNL     1      26.853  -2.480  -2.272  1.00  0.00     0.061 C 
HETATM   23  C27 UNL     1      27.583  -1.350  -2.925  1.00  0.00     0.073 C 
HETATM   24  C28 UNL     1      27.643  -3.713  -2.053  1.00  0.00     0.163 C 
HETATM   25  N8  UNL     1      28.664  -4.388  -2.721  1.00  0.00    -0.338 N 
ATOM     26  H8  UNL     1      29.555  -4.245  -2.244  1.00  0.00     0.168 HD
HETATM   27  C29 UNL     1      28.842  -5.210  -3.860  1.00  0.00     0.025 C 
ENDROOT
BRANCH  17  28
HETATM   28  C20 UNL     1      23.895   0.040  -3.442  1.00  0.00     0.036 C 
BRANCH  28  29
HETATM   29  C21 UNL     1      24.678   0.873  -2.476  1.00  0.00     0.022 C 
BRANCH  29  30
HETATM   30  C22 UNL     1      24.224   0.519  -1.083  1.00  0.00     0.122 C 
BRANCH  30  31
HETATM   31  N4  UNL     1      25.235  -0.098  -0.280  1.00  0.00    -0.367 N 
HETATM   32  C23 UNL     1      24.994  -0.990   0.628  1.00  0.00     0.196 C 
HETATM   33  N5  UNL     1      23.691  -1.446   0.915  1.00  0.00    -0.067 NA
HETATM   34  N6  UNL     1      26.060  -1.558   1.388  1.00  0.00    -0.067 NA
ATOM     35  H4  UNL     1      26.205   0.181  -0.432  1.00  0.00     0.161 HD
ENDBRANCH  30  31
ENDBRANCH  29  30
ENDBRANCH  28  29
ENDBRANCH  17  28
BRANCH  24  36
HETATM   36  O5  UNL     1      27.252  -4.283  -0.935  1.00  0.00    -0.345 OA
ATOM     37  H5  UNL     1      28.012  -4.618  -0.473  1.00  0.00     0.219 HD
ENDBRANCH  24  36
BRANCH   5  38
HETATM   38  C10 UNL     1      29.373  -0.018  -6.355  1.00  0.00     0.041 A 
HETATM   39  C11 UNL     1      30.775   0.524  -6.494  1.00  0.00     0.011 A 
HETATM   40  C12 UNL     1      29.661   1.113  -7.231  1.00  0.00     0.011 A 
ENDBRANCH   5  38
BRANCH  27  41
HETATM   41  C30 UNL     1      27.658  -6.095  -4.244  1.00  0.00    -0.064 C 
HETATM   42  C31 UNL     1      26.644  -6.327  -3.210  1.00  0.00     0.045 C 
HETATM   43  C32 UNL     1      28.102  -7.299  -5.035  1.00  0.00     0.045 C 
ENDBRANCH  27  41
BRANCH   1  44
HETATM   44  C6  UNL     1      30.871  -5.520  -5.331  1.00  0.00     0.019 C 
BRANCH  44  45
HETATM   45  C5  UNL     1      31.385  -6.284  -4.214  1.00  0.00     0.001 C 
BRANCH  45  46
HETATM   46  C4  UNL     1      32.560  -7.131  -4.741  1.00  0.00     0.004 C 
BRANCH  46  47
HETATM   47  C3  UNL     1      32.079  -8.418  -5.333  1.00  0.00     0.026 C 
BRANCH  47  48
HETATM   48  C2  UNL     1      32.835  -9.552  -4.776  1.00  0.00    -0.037 C 
HETATM   49  C1  UNL     1      32.900  -9.724  -3.461  1.00  0.00     0.007 C 
ENDBRANCH  47  48
ENDBRANCH  46  47
ENDBRANCH  45  46
ENDBRANCH  44  45
ENDBRANCH   1  44
BRANCH   2  50
HETATM   50  O1  UNL     1      30.529  -3.075  -3.952  1.00  0.00    -0.349 OA
ATOM     51  H1  UNL     1      30.535  -2.129  -3.868  1.00  0.00     0.219 HD
ENDBRANCH   2  50
TORSDOF 13
ENDMDL
