MODEL 1
REMARK VINA RESULT: -6.302456988      0.000      0.000
REMARK  4 active torsions:
REMARK  status: ('A' for Active; 'I' for Inactive)
REMARK    1  A    between atoms: C2_3  and  C3_4 
REMARK    2  A    between atoms: N3_7  and  N4_9 
REMARK    3  A    between atoms: N4_9  and  C5_11 
REMARK    4  A    between atoms: C5_11  and  N5_13 
ROOT
HETATM    1  N1  UNL     1      39.346  -2.718  15.336  1.00  0.00    -0.197 NA
HETATM    2  C1  UNL     1      39.190  -1.971  14.458  1.00  0.00     0.066 C 
HETATM    3  C2  UNL     1      39.017  -1.028  13.365  1.00  0.00     0.194 C 
ENDROOT
BRANCH   3   4
HETATM    4  C3  UNL     1      37.740  -0.285  13.528  1.00  0.00     0.118 C 
HETATM    5  C4  UNL     1      37.310   0.076  14.858  1.00  0.00     0.115 C 
HETATM    6  N2  UNL     1      36.978   0.372  15.920  1.00  0.00    -0.190 NA
HETATM    7  N3  UNL     1      36.999   0.051  12.548  1.00  0.00    -0.291 N 
ATOM      8  H3  UNL     1      37.290  -0.198  11.603  1.00  0.00     0.187 HD
BRANCH   7   9
HETATM    9  N4  UNL     1      35.804   0.749  12.724  1.00  0.00    -0.275 N 
ATOM     10  H4  UNL     1      35.858   1.765  12.784  1.00  0.00     0.189 HD
BRANCH   9  11
HETATM   11  C5  UNL     1      34.521   0.161  12.825  1.00  0.00     0.188 C 
HETATM   12  S1  UNL     1      34.249  -1.171  11.883  1.00  0.00    -0.039 SA
BRANCH  11  13
HETATM   13  N5  UNL     1      33.468   0.610  13.653  1.00  0.00    -0.357 N 
HETATM   14  C6  UNL     1      33.529   1.639  14.662  1.00  0.00     0.125 C 
HETATM   15  C7  UNL     1      32.078   1.928  14.943  1.00  0.00     0.021 C 
HETATM   16  C8  UNL     1      31.475   0.540  14.909  1.00  0.00     0.021 C 
HETATM   17  C9  UNL     1      32.106   0.049  13.605  1.00  0.00     0.125 C 
ENDBRANCH  11  13
ENDBRANCH   9  11
ENDBRANCH   7   9
ENDBRANCH   3   4
TORSDOF 4
ENDMDL
MODEL 2
REMARK VINA RESULT: -6.239717359      0.140      1.039
REMARK  4 active torsions:
REMARK  status: ('A' for Active; 'I' for Inactive)
REMARK    1  A    between atoms: C2_3  and  C3_4 
REMARK    2  A    between atoms: N3_7  and  N4_9 
REMARK    3  A    between atoms: N4_9  and  C5_11 
REMARK    4  A    between atoms: C5_11  and  N5_13 
ROOT
HETATM    1  N1  UNL     1      39.327  -2.711  15.361  1.00  0.00    -0.197 NA
HETATM    2  C1  UNL     1      39.131  -1.994  14.467  1.00  0.00     0.066 C 
HETATM    3  C2  UNL     1      38.908  -1.086  13.352  1.00  0.00     0.194 C 
ENDROOT
BRANCH   3   4
HETATM    4  C3  UNL     1      37.635  -0.343  13.544  1.00  0.00     0.118 C 
HETATM    5  C4  UNL     1      37.269   0.077  14.876  1.00  0.00     0.115 C 
HETATM    6  N2  UNL     1      36.988   0.421  15.938  1.00  0.00    -0.190 NA
HETATM    7  N3  UNL     1      36.844  -0.057  12.588  1.00  0.00    -0.291 N 
ATOM      8  H3  UNL     1      37.089  -0.349  11.642  1.00  0.00     0.187 HD
BRANCH   7   9
HETATM    9  N4  UNL     1      35.654   0.641  12.790  1.00  0.00    -0.275 N 
ATOM     10  H4  UNL     1      35.716   1.654  12.894  1.00  0.00     0.189 HD
BRANCH   9  11
HETATM   11  C5  UNL     1      34.366   0.059  12.864  1.00  0.00     0.188 C 
HETATM   12  S1  UNL     1      34.101  -1.256  11.897  1.00  0.00    -0.039 SA
BRANCH  11  13
HETATM   13  N5  UNL     1      33.304   0.502  13.684  1.00  0.00    -0.357 N 
HETATM   14  C6  UNL     1      31.934   0.049  13.658  1.00  0.00     0.125 C 
HETATM   15  C7  UNL     1      31.374   0.584  14.950  1.00  0.00     0.021 C 
HETATM   16  C8  UNL     1      32.015   1.954  15.019  1.00  0.00     0.021 C 
HETATM   17  C9  UNL     1      33.457   1.547  14.711  1.00  0.00     0.125 C 
ENDBRANCH  11  13
ENDBRANCH   9  11
ENDBRANCH   7   9
ENDBRANCH   3   4
TORSDOF 4
ENDMDL
MODEL 3
REMARK VINA RESULT: -6.229673930      4.339      7.641
REMARK  4 active torsions:
REMARK  status: ('A' for Active; 'I' for Inactive)
REMARK    1  A    between atoms: C2_3  and  C3_4 
REMARK    2  A    between atoms: N3_7  and  N4_9 
REMARK    3  A    between atoms: N4_9  and  C5_11 
REMARK    4  A    between atoms: C5_11  and  N5_13 
ROOT
HETATM    1  N1  UNL     1      27.122  -3.505  13.186  1.00  0.00    -0.197 NA
HETATM    2  C1  UNL     1      27.060  -2.726  14.047  1.00  0.00     0.066 C 
HETATM    3  C2  UNL     1      26.963  -1.738  15.111  1.00  0.00     0.194 C 
ENDROOT
BRANCH   3   4
HETATM    4  C3  UNL     1      28.312  -1.211  15.443  1.00  0.00     0.118 C 
HETATM    5  C4  UNL     1      29.398  -2.146  15.627  1.00  0.00     0.115 C 
HETATM    6  N2  UNL     1      30.263  -2.894  15.760  1.00  0.00    -0.190 NA
HETATM    7  N3  UNL     1      28.562   0.030  15.577  1.00  0.00    -0.291 N 
ATOM      8  H3  UNL     1      27.805   0.701  15.451  1.00  0.00     0.187 HD
BRANCH   7   9
HETATM    9  N4  UNL     1      29.837   0.504  15.889  1.00  0.00    -0.275 N 
ATOM     10  H4  UNL     1      30.223   0.245  16.797  1.00  0.00     0.189 HD
BRANCH   9  11
HETATM   11  C5  UNL     1      30.637   1.314  15.050  1.00  0.00     0.188 C 
HETATM   12  S1  UNL     1      30.057   2.828  14.722  1.00  0.00    -0.039 SA
BRANCH  11  13
HETATM   13  N5  UNL     1      31.874   0.943  14.476  1.00  0.00    -0.357 N 
HETATM   14  C6  UNL     1      33.104   1.696  14.490  1.00  0.00     0.125 C 
HETATM   15  C7  UNL     1      34.132   0.679  14.068  1.00  0.00     0.021 C 
HETATM   16  C8  UNL     1      33.389  -0.079  12.988  1.00  0.00     0.021 C 
HETATM   17  C9  UNL     1      32.077  -0.316  13.738  1.00  0.00     0.125 C 
ENDBRANCH  11  13
ENDBRANCH   9  11
ENDBRANCH   7   9
ENDBRANCH   3   4
TORSDOF 4
ENDMDL
MODEL 4
REMARK VINA RESULT: -6.185156104      4.309      7.730
REMARK  4 active torsions:
REMARK  status: ('A' for Active; 'I' for Inactive)
REMARK    1  A    between atoms: C2_3  and  C3_4 
REMARK    2  A    between atoms: N3_7  and  N4_9 
REMARK    3  A    between atoms: N4_9  and  C5_11 
REMARK    4  A    between atoms: C5_11  and  N5_13 
ROOT
HETATM    1  N1  UNL     1      25.791  -2.431  16.504  1.00  0.00    -0.197 NA
HETATM    2  C1  UNL     1      26.516  -2.118  15.651  1.00  0.00     0.066 C 
HETATM    3  C2  UNL     1      27.424  -1.750  14.576  1.00  0.00     0.194 C 
ENDROOT
BRANCH   3   4
HETATM    4  C3  UNL     1      28.611  -1.045  15.127  1.00  0.00     0.118 C 
HETATM    5  C4  UNL     1      29.733  -1.829  15.586  1.00  0.00     0.115 C 
HETATM    6  N2  UNL     1      30.631  -2.457  15.939  1.00  0.00    -0.190 NA
HETATM    7  N3  UNL     1      28.689   0.222  15.216  1.00  0.00    -0.291 N 
ATOM      8  H3  UNL     1      27.904   0.788  14.897  1.00  0.00     0.187 HD
BRANCH   7   9
HETATM    9  N4  UNL     1      29.813   0.864  15.737  1.00  0.00    -0.275 N 
ATOM     10  H4  UNL     1      29.982   0.775  16.739  1.00  0.00     0.189 HD
BRANCH   9  11
HETATM   11  C5  UNL     1      30.739   1.629  14.989  1.00  0.00     0.188 C 
HETATM   12  S1  UNL     1      30.332   3.208  14.714  1.00  0.00    -0.039 SA
BRANCH  11  13
HETATM   13  N5  UNL     1      31.965   1.161  14.464  1.00  0.00    -0.357 N 
HETATM   14  C6  UNL     1      32.187  -0.044  13.704  1.00  0.00     0.125 C 
HETATM   15  C7  UNL     1      33.560   0.166  13.123  1.00  0.00     0.021 C 
HETATM   16  C8  UNL     1      34.289   0.813  14.282  1.00  0.00     0.021 C 
HETATM   17  C9  UNL     1      33.244   1.869  14.646  1.00  0.00     0.125 C 
ENDBRANCH  11  13
ENDBRANCH   9  11
ENDBRANCH   7   9
ENDBRANCH   3   4
TORSDOF 4
ENDMDL
MODEL 5
REMARK VINA RESULT: -6.058526019      1.838      6.000
REMARK  4 active torsions:
REMARK  status: ('A' for Active; 'I' for Inactive)
REMARK    1  A    between atoms: C2_3  and  C3_4 
REMARK    2  A    between atoms: N3_7  and  N4_9 
REMARK    3  A    between atoms: N4_9  and  C5_11 
REMARK    4  A    between atoms: C5_11  and  N5_13 
ROOT
HETATM    1  N1  UNL     1      29.649   0.079  15.721  1.00  0.00    -0.197 NA
HETATM    2  C1  UNL     1      30.225   1.027  15.372  1.00  0.00     0.066 C 
HETATM    3  C2  UNL     1      30.931   2.213  14.915  1.00  0.00     0.194 C 
ENDROOT
BRANCH   3   4
HETATM    4  C3  UNL     1      32.399   1.982  14.956  1.00  0.00     0.118 C 
HETATM    5  C4  UNL     1      33.209   2.814  15.814  1.00  0.00     0.115 C 
HETATM    6  N2  UNL     1      33.850   3.471  16.510  1.00  0.00    -0.190 NA
HETATM    7  N3  UNL     1      32.983   1.084  14.267  1.00  0.00    -0.291 N 
ATOM      8  H3  UNL     1      32.423   0.491  13.656  1.00  0.00     0.187 HD
BRANCH   7   9
HETATM    9  N4  UNL     1      34.363   0.885  14.321  1.00  0.00    -0.275 N 
ATOM     10  H4  UNL     1      34.897   1.478  14.955  1.00  0.00     0.189 HD
BRANCH   9  11
HETATM   11  C5  UNL     1      35.080  -0.073  13.567  1.00  0.00     0.188 C 
HETATM   12  S1  UNL     1      34.245  -0.827  12.355  1.00  0.00    -0.039 SA
BRANCH  11  13
HETATM   13  N5  UNL     1      36.433  -0.433  13.760  1.00  0.00    -0.357 N 
HETATM   14  C6  UNL     1      37.505  -0.347  12.799  1.00  0.00     0.125 C 
HETATM   15  C7  UNL     1      38.739  -0.510  13.648  1.00  0.00     0.021 C 
HETATM   16  C8  UNL     1      38.301  -1.581  14.624  1.00  0.00     0.021 C 
HETATM   17  C9  UNL     1      36.950  -0.986  15.024  1.00  0.00     0.125 C 
ENDBRANCH  11  13
ENDBRANCH   9  11
ENDBRANCH   7   9
ENDBRANCH   3   4
TORSDOF 4
ENDMDL
