MODEL 1
REMARK VINA RESULT: -5.908697103      0.000      0.000
REMARK  1 active torsions:
REMARK  status: ('A' for Active; 'I' for Inactive)
REMARK    1  A    between atoms: C1_4  and  C2_5 
ROOT
HETATM    1  C2  UNL     1      24.209  38.233  43.000  1.00  0.00     0.023 C 
HETATM    2  C3  UNL     1      24.936  39.522  42.686  1.00  0.00     0.010 C 
HETATM    3  C4  UNL     1      26.397  39.281  42.508  1.00  0.00     0.001 C 
HETATM    4  C5  UNL     1      26.772  37.821  42.574  1.00  0.00     0.000 C 
HETATM    5  C6  UNL     1      25.906  36.974  41.671  1.00  0.00     0.001 C 
HETATM    6  C7  UNL     1      24.452  37.173  41.958  1.00  0.00     0.010 C 
ENDROOT
BRANCH   1   7
HETATM    7  C1  UNL     1      22.773  38.444  43.210  1.00  0.00     0.057 C 
HETATM    8  N1  UNL     1      21.891  38.403  42.280  1.00  0.00    -0.411 N 
ATOM      9  H12 UNL     1      22.228  38.211  41.337  1.00  0.00     0.155 HD
ATOM     10  H11 UNL     1      20.892  38.550  42.426  1.00  0.00     0.155 HD
ENDBRANCH   1   7
TORSDOF 1
ENDMDL
MODEL 2
REMARK VINA RESULT: -5.635738842      1.536      2.235
REMARK  1 active torsions:
REMARK  status: ('A' for Active; 'I' for Inactive)
REMARK    1  A    between atoms: C1_4  and  C2_5 
ROOT
HETATM    1  C2  UNL     1      24.391  38.778  42.664  1.00  0.00     0.023 C 
HETATM    2  C3  UNL     1      23.457  37.828  41.948  1.00  0.00     0.010 C 
HETATM    3  C4  UNL     1      24.080  37.307  40.697  1.00  0.00     0.001 C 
HETATM    4  C5  UNL     1      25.508  37.760  40.512  1.00  0.00     0.000 C 
HETATM    5  C6  UNL     1      26.342  37.519  41.748  1.00  0.00     0.001 C 
HETATM    6  C7  UNL     1      25.728  38.149  42.957  1.00  0.00     0.010 C 
ENDROOT
BRANCH   1   7
HETATM    7  C1  UNL     1      23.793  39.329  43.884  1.00  0.00     0.057 C 
HETATM    8  N1  UNL     1      23.411  38.626  44.887  1.00  0.00    -0.411 N 
ATOM      9  H12 UNL     1      23.540  37.618  44.814  1.00  0.00     0.155 HD
ATOM     10  H11 UNL     1      22.995  39.010  45.736  1.00  0.00     0.155 HD
ENDBRANCH   1   7
TORSDOF 1
ENDMDL
MODEL 3
REMARK VINA RESULT: -5.493739231      0.915      1.121
REMARK  1 active torsions:
REMARK  status: ('A' for Active; 'I' for Inactive)
REMARK    1  A    between atoms: C1_4  and  C2_5 
ROOT
HETATM    1  C2  UNL     1      24.373  38.455  43.204  1.00  0.00     0.023 C 
HETATM    2  C3  UNL     1      25.584  39.179  42.657  1.00  0.00     0.010 C 
HETATM    3  C4  UNL     1      26.580  38.213  42.109  1.00  0.00     0.001 C 
HETATM    4  C5  UNL     1      26.098  36.784  42.132  1.00  0.00     0.000 C 
HETATM    5  C6  UNL     1      24.723  36.641  41.525  1.00  0.00     0.001 C 
HETATM    6  C7  UNL     1      23.735  37.555  42.179  1.00  0.00     0.010 C 
ENDROOT
BRANCH   1   7
HETATM    7  C1  UNL     1      23.388  39.378  43.777  1.00  0.00     0.057 C 
HETATM    8  N1  UNL     1      22.127  39.321  43.554  1.00  0.00    -0.411 N 
ATOM      9  H12 UNL     1      21.803  38.579  42.934  1.00  0.00     0.155 HD
ATOM     10  H11 UNL     1      21.441  39.963  43.953  1.00  0.00     0.155 HD
ENDBRANCH   1   7
TORSDOF 1
ENDMDL
MODEL 4
REMARK VINA RESULT: -5.300655882      1.772      1.901
REMARK  1 active torsions:
REMARK  status: ('A' for Active; 'I' for Inactive)
REMARK    1  A    between atoms: C1_4  and  C2_5 
ROOT
HETATM    1  C2  UNL     1      24.237  38.410  43.211  1.00  0.00     0.023 C 
HETATM    2  C3  UNL     1      25.046  39.578  42.692  1.00  0.00     0.010 C 
HETATM    3  C4  UNL     1      25.820  39.194  41.476  1.00  0.00     0.001 C 
HETATM    4  C5  UNL     1      25.526  37.791  41.003  1.00  0.00     0.000 C 
HETATM    5  C6  UNL     1      24.042  37.535  40.881  1.00  0.00     0.001 C 
HETATM    6  C7  UNL     1      23.325  37.836  42.158  1.00  0.00     0.010 C 
ENDROOT
BRANCH   1   7
HETATM    7  C1  UNL     1      23.488  38.750  44.425  1.00  0.00     0.057 C 
HETATM    8  N1  UNL     1      23.889  38.501  45.617  1.00  0.00    -0.411 N 
ATOM      9  H12 UNL     1      24.791  38.035  45.710  1.00  0.00     0.155 HD
ATOM     10  H11 UNL     1      23.368  38.737  46.462  1.00  0.00     0.155 HD
ENDBRANCH   1   7
TORSDOF 1
ENDMDL
MODEL 5
REMARK VINA RESULT: -5.255210044      2.118      3.353
REMARK  1 active torsions:
REMARK  status: ('A' for Active; 'I' for Inactive)
REMARK    1  A    between atoms: C1_4  and  C2_5 
ROOT
HETATM    1  C2  UNL     1      24.632  38.600  42.178  1.00  0.00     0.023 C 
HETATM    2  C3  UNL     1      24.901  38.403  43.653  1.00  0.00     0.010 C 
HETATM    3  C4  UNL     1      23.733  38.843  44.471  1.00  0.00     0.001 C 
HETATM    4  C5  UNL     1      22.548  39.265  43.638  1.00  0.00     0.000 C 
HETATM    5  C6  UNL     1      22.198  38.234  42.591  1.00  0.00     0.001 C 
HETATM    6  C7  UNL     1      23.374  37.903  41.729  1.00  0.00     0.010 C 
ENDROOT
BRANCH   1   7
HETATM    7  C1  UNL     1      25.775  38.203  41.349  1.00  0.00     0.057 C 
HETATM    8  N1  UNL     1      26.640  37.317  41.682  1.00  0.00    -0.411 N 
ATOM      9  H12 UNL     1      26.509  36.867  42.588  1.00  0.00     0.155 HD
ATOM     10  H11 UNL     1      27.435  37.041  41.105  1.00  0.00     0.155 HD
ENDBRANCH   1   7
TORSDOF 1
ENDMDL
