MODEL 1
REMARK VINA RESULT: -3.867371518      0.000      0.000
REMARK  3 active torsions:
REMARK  status: ('A' for Active; 'I' for Inactive)
REMARK    1  A    between atoms: N2_4  and  N3_6 
REMARK    2  A    between atoms: N3_6  and  C1_8 
REMARK    3  A    between atoms: N4_10  and  N5_11 
ROOT
HETATM    1  N3  UNL     1      56.538  23.455  24.144  1.00  0.00    -0.301 N 
ATOM      2  H3  UNL     1      56.217  24.423  24.129  1.00  0.00     0.183 HD
ENDROOT
BRANCH   1   3
HETATM    3  N2  UNL     1      55.599  22.438  24.229  1.00  0.00    -0.252 N 
HETATM    4  N1  UNL     1      54.633  22.591  25.024  1.00  0.00    -0.331 N 
ATOM      5  H12 UNL     1      54.558  23.442  25.582  1.00  0.00     0.178 HD
ATOM      6  H11 UNL     1      53.942  21.843  25.087  1.00  0.00     0.178 HD
ATOM      7  H2  UNL     1      55.687  21.593  23.665  1.00  0.00     0.207 HD
ENDBRANCH   1   3
BRANCH   1   8
HETATM    8  C1  UNL     1      57.932  23.189  24.077  1.00  0.00     0.208 A 
HETATM    9  C2  UNL     1      58.482  23.053  22.662  1.00  0.00     0.159 A 
HETATM   10  N4  UNL     1      58.449  21.936  23.623  1.00  0.00    -0.209 NA
BRANCH  10  11
HETATM   11  N5  UNL     1      59.717  21.541  24.027  1.00  0.00    -0.361 NA
ATOM     12  H52 UNL     1      60.098  22.138  24.762  1.00  0.00     0.171 HD
ATOM     13  H51 UNL     1      59.835  21.116  24.946  1.00  0.00     0.171 HD
ENDBRANCH  10  11
ENDBRANCH   1   8
TORSDOF 3
ENDMDL
MODEL 2
REMARK VINA RESULT: -3.801398334      7.428      7.806
REMARK  3 active torsions:
REMARK  status: ('A' for Active; 'I' for Inactive)
REMARK    1  A    between atoms: N2_4  and  N3_6 
REMARK    2  A    between atoms: N3_6  and  C1_8 
REMARK    3  A    between atoms: N4_10  and  N5_11 
ROOT
HETATM    1  N3  UNL     1      52.696  17.982  18.322  1.00  0.00    -0.301 N 
ATOM      2  H3  UNL     1      52.902  18.112  17.331  1.00  0.00     0.183 HD
ENDROOT
BRANCH   1   3
HETATM    3  N2  UNL     1      51.469  17.452  18.689  1.00  0.00    -0.252 N 
HETATM    4  N1  UNL     1      51.328  17.057  19.878  1.00  0.00    -0.331 N 
ATOM      5  H12 UNL     1      52.102  17.132  20.537  1.00  0.00     0.178 HD
ATOM      6  H11 UNL     1      50.425  16.667  20.148  1.00  0.00     0.178 HD
ATOM      7  H2  UNL     1      50.704  17.384  18.018  1.00  0.00     0.207 HD
ENDBRANCH   1   3
BRANCH   1   8
HETATM    8  C1  UNL     1      53.676  18.350  19.284  1.00  0.00     0.208 A 
HETATM    9  C2  UNL     1      55.108  18.342  18.762  1.00  0.00     0.159 A 
HETATM   10  N4  UNL     1      54.626  17.416  19.802  1.00  0.00    -0.209 NA
BRANCH  10  11
HETATM   11  N5  UNL     1      55.203  17.655  21.041  1.00  0.00    -0.361 NA
ATOM     12  H52 UNL     1      56.125  17.228  21.134  1.00  0.00     0.171 HD
ATOM     13  H51 UNL     1      55.998  18.291  21.104  1.00  0.00     0.171 HD
ENDBRANCH  10  11
ENDBRANCH   1   8
TORSDOF 3
ENDMDL
MODEL 3
REMARK VINA RESULT: -3.759289909      1.517      1.741
REMARK  3 active torsions:
REMARK  status: ('A' for Active; 'I' for Inactive)
REMARK    1  A    between atoms: N2_4  and  N3_6 
REMARK    2  A    between atoms: N3_6  and  C1_8 
REMARK    3  A    between atoms: N4_10  and  N5_11 
ROOT
HETATM    1  N3  UNL     1      56.589  21.955  24.096  1.00  0.00    -0.301 N 
ATOM      2  H3  UNL     1      56.601  21.009  24.476  1.00  0.00     0.183 HD
ENDROOT
BRANCH   1   3
HETATM    3  N2  UNL     1      55.500  22.771  24.361  1.00  0.00    -0.252 N 
HETATM    4  N1  UNL     1      54.529  22.274  24.994  1.00  0.00    -0.331 N 
ATOM      5  H12 UNL     1      54.560  21.300  25.295  1.00  0.00     0.178 HD
ATOM      6  H11 UNL     1      53.728  22.874  25.189  1.00  0.00     0.178 HD
ATOM      7  H2  UNL     1      55.484  23.743  24.053  1.00  0.00     0.207 HD
ENDBRANCH   1   3
BRANCH   1   8
HETATM    8  C1  UNL     1      57.689  22.398  23.312  1.00  0.00     0.208 A 
HETATM    9  C2  UNL     1      58.893  22.866  24.121  1.00  0.00     0.159 A 
HETATM   10  N4  UNL     1      58.095  23.768  23.271  1.00  0.00    -0.209 NA
BRANCH  10  11
HETATM   11  N5  UNL     1      58.803  24.231  22.171  1.00  0.00    -0.361 NA
ATOM     12  H52 UNL     1      58.893  25.247  22.161  1.00  0.00     0.171 HD
ATOM     13  H51 UNL     1      59.740  24.607  22.306  1.00  0.00     0.171 HD
ENDBRANCH  10  11
ENDBRANCH   1   8
TORSDOF 3
ENDMDL
MODEL 4
REMARK VINA RESULT: -3.715260367      2.580      3.722
REMARK  3 active torsions:
REMARK  status: ('A' for Active; 'I' for Inactive)
REMARK    1  A    between atoms: N2_4  and  N3_6 
REMARK    2  A    between atoms: N3_6  and  C1_8 
REMARK    3  A    between atoms: N4_10  and  N5_11 
ROOT
HETATM    1  N3  UNL     1      59.673  22.884  25.075  1.00  0.00    -0.301 N 
ATOM      2  H3  UNL     1      59.911  21.903  24.928  1.00  0.00     0.183 HD
ENDROOT
BRANCH   1   3
HETATM    3  N2  UNL     1      60.465  23.648  25.918  1.00  0.00    -0.252 N 
HETATM    4  N1  UNL     1      60.054  23.850  27.093  1.00  0.00    -0.331 N 
ATOM      5  H12 UNL     1      59.164  23.456  27.398  1.00  0.00     0.178 HD
ATOM      6  H11 UNL     1      60.636  24.413  27.713  1.00  0.00     0.178 HD
ATOM      7  H2  UNL     1      61.352  24.036  25.598  1.00  0.00     0.207 HD
ENDBRANCH   1   3
BRANCH   1   8
HETATM    8  C1  UNL     1      58.540  23.425  24.410  1.00  0.00     0.208 A 
HETATM    9  C2  UNL     1      58.027  22.582  23.248  1.00  0.00     0.159 A 
HETATM   10  N4  UNL     1      58.607  23.925  23.072  1.00  0.00    -0.209 NA
BRANCH  10  11
HETATM   11  N5  UNL     1      57.671  24.860  22.652  1.00  0.00    -0.361 NA
ATOM     12  H52 UNL     1      57.906  25.272  21.749  1.00  0.00     0.171 HD
ATOM     13  H51 UNL     1      57.056  24.632  21.872  1.00  0.00     0.171 HD
ENDBRANCH  10  11
ENDBRANCH   1   8
TORSDOF 3
ENDMDL
MODEL 5
REMARK VINA RESULT: -3.572590635      7.410      7.766
REMARK  3 active torsions:
REMARK  status: ('A' for Active; 'I' for Inactive)
REMARK    1  A    between atoms: N2_4  and  N3_6 
REMARK    2  A    between atoms: N3_6  and  C1_8 
REMARK    3  A    between atoms: N4_10  and  N5_11 
ROOT
HETATM    1  N3  UNL     1      52.692  18.091  19.625  1.00  0.00    -0.301 N 
ATOM      2  H3  UNL     1      52.620  18.853  20.298  1.00  0.00     0.183 HD
ENDROOT
BRANCH   1   3
HETATM    3  N2  UNL     1      51.550  17.376  19.296  1.00  0.00    -0.252 N 
HETATM    4  N1  UNL     1      51.000  16.691  20.201  1.00  0.00    -0.331 N 
ATOM      5  H12 UNL     1      51.396  16.673  21.140  1.00  0.00     0.178 HD
ATOM      6  H11 UNL     1      50.161  16.165  19.959  1.00  0.00     0.178 HD
ATOM      7  H2  UNL     1      51.167  17.403  18.351  1.00  0.00     0.207 HD
ENDBRANCH   1   3
BRANCH   1   8
HETATM    8  C1  UNL     1      53.957  17.793  19.051  1.00  0.00     0.208 A 
HETATM    9  C2  UNL     1      55.131  17.910  20.017  1.00  0.00     0.159 A 
HETATM   10  N4  UNL     1      54.958  18.793  18.850  1.00  0.00    -0.209 NA
BRANCH  10  11
HETATM   11  N5  UNL     1      55.929  18.592  17.878  1.00  0.00    -0.361 NA
ATOM     12  H52 UNL     1      56.624  19.339  17.857  1.00  0.00     0.171 HD
ATOM     13  H51 UNL     1      56.876  18.344  18.166  1.00  0.00     0.171 HD
ENDBRANCH  10  11
ENDBRANCH   1   8
TORSDOF 3
ENDMDL
