MODEL 1
REMARK VINA RESULT: -2.766652631      0.000      0.000
REMARK  1 active torsions:
REMARK  status: ('A' for Active; 'I' for Inactive)
REMARK    1  A    between atoms: N1_2  and  C2_5 
ROOT
HETATM    1  C2  UNL     1      54.487  18.503  19.127  1.00  0.00     0.336 A 
HETATM    2  C3  UNL     1      53.089  18.098  18.949  1.00  0.00     0.127 A 
HETATM    3  N2  UNL     1      53.043  17.327  20.003  1.00  0.00    -0.313 N 
ATOM      4  H2  UNL     1      52.338  16.740  20.448  1.00  0.00     0.181 HD
HETATM    5  N3  UNL     1      54.371  17.653  20.258  1.00  0.00    -0.103 NA
ENDROOT
BRANCH   1   6
HETATM    6  N1  UNL     1      55.428  18.124  18.108  1.00  0.00    -0.055 N 
HETATM    7  C1  UNL     1      56.578  19.011  18.061  1.00  0.00     0.269 C 
ATOM      8  H12 UNL     1      54.977  18.058  17.196  1.00  0.00     0.279 HD
ATOM      9  H11 UNL     1      55.717  17.152  18.217  1.00  0.00     0.279 HD
ENDBRANCH   1   6
TORSDOF 1
ENDMDL
MODEL 2
REMARK VINA RESULT: -2.557217302      7.465      7.924
REMARK  1 active torsions:
REMARK  status: ('A' for Active; 'I' for Inactive)
REMARK    1  A    between atoms: N1_2  and  C2_5 
ROOT
HETATM    1  C2  UNL     1      58.151  22.381  23.161  1.00  0.00     0.336 A 
HETATM    2  C3  UNL     1      56.963  23.068  23.678  1.00  0.00     0.127 A 
HETATM    3  N2  UNL     1      57.295  24.251  23.233  1.00  0.00    -0.313 N 
ATOM      4  H2  UNL     1      56.882  25.183  23.262  1.00  0.00     0.181 HD
HETATM    5  N3  UNL     1      58.452  23.691  22.704  1.00  0.00    -0.103 NA
ENDROOT
BRANCH   1   6
HETATM    6  N1  UNL     1      59.051  21.791  24.115  1.00  0.00    -0.055 N 
HETATM    7  C1  UNL     1      59.657  22.783  24.989  1.00  0.00     0.269 C 
ATOM      8  H12 UNL     1      59.762  21.226  23.651  1.00  0.00     0.279 HD
ATOM      9  H11 UNL     1      58.588  21.060  24.654  1.00  0.00     0.279 HD
ENDBRANCH   1   6
TORSDOF 1
ENDMDL
MODEL 3
REMARK VINA RESULT: -2.538908508      7.332      7.806
REMARK  1 active torsions:
REMARK  status: ('A' for Active; 'I' for Inactive)
REMARK    1  A    between atoms: N1_2  and  C2_5 
ROOT
HETATM    1  C2  UNL     1      57.502  23.174  24.089  1.00  0.00     0.336 A 
HETATM    2  C3  UNL     1      57.676  21.826  23.540  1.00  0.00     0.127 A 
HETATM    3  N2  UNL     1      58.954  21.746  23.797  1.00  0.00    -0.313 N 
ATOM      4  H2  UNL     1      59.684  21.047  23.657  1.00  0.00     0.181 HD
HETATM    5  N3  UNL     1      58.891  23.023  24.342  1.00  0.00    -0.103 NA
ENDROOT
BRANCH   1   6
HETATM    6  N1  UNL     1      57.104  24.218  23.184  1.00  0.00    -0.055 N 
HETATM    7  C1  UNL     1      58.210  24.693  22.369  1.00  0.00     0.269 C 
ATOM      8  H12 UNL     1      56.657  24.987  23.683  1.00  0.00     0.279 HD
ATOM      9  H11 UNL     1      56.319  23.924  22.603  1.00  0.00     0.279 HD
ENDBRANCH   1   6
TORSDOF 1
ENDMDL
MODEL 4
REMARK VINA RESULT: -2.362507397     11.157     12.076
REMARK  1 active torsions:
REMARK  status: ('A' for Active; 'I' for Inactive)
REMARK    1  A    between atoms: N1_2  and  C2_5 
ROOT
HETATM    1  C2  UNL     1      64.602  24.445  19.118  1.00  0.00     0.336 A 
HETATM    2  C3  UNL     1      65.030  25.590  18.308  1.00  0.00     0.127 A 
HETATM    3  N2  UNL     1      64.216  26.449  18.862  1.00  0.00    -0.313 N 
ATOM      4  H2  UNL     1      64.014  27.442  18.744  1.00  0.00     0.181 HD
HETATM    5  N3  UNL     1      63.745  25.428  19.679  1.00  0.00    -0.103 NA
ENDROOT
BRANCH   1   6
HETATM    6  N1  UNL     1      63.985  23.338  18.439  1.00  0.00    -0.055 N 
HETATM    7  C1  UNL     1      64.904  22.229  18.241  1.00  0.00     0.269 C 
ATOM      8  H12 UNL     1      63.568  23.634  17.556  1.00  0.00     0.279 HD
ATOM      9  H11 UNL     1      63.140  23.034  18.923  1.00  0.00     0.279 HD
ENDBRANCH   1   6
TORSDOF 1
ENDMDL
MODEL 5
REMARK VINA RESULT: -2.323510929      3.623      4.641
REMARK  1 active torsions:
REMARK  status: ('A' for Active; 'I' for Inactive)
REMARK    1  A    between atoms: N1_2  and  C2_5 
ROOT
HETATM    1  C2  UNL     1      51.421  17.952  17.059  1.00  0.00     0.336 A 
HETATM    2  C3  UNL     1      50.924  17.254  15.870  1.00  0.00     0.127 A 
HETATM    3  N2  UNL     1      50.085  18.189  15.513  1.00  0.00    -0.313 N 
ATOM      4  H2  UNL     1      49.418  18.319  14.752  1.00  0.00     0.181 HD
HETATM    5  N3  UNL     1      50.492  18.931  16.616  1.00  0.00    -0.103 NA
ENDROOT
BRANCH   1   6
HETATM    6  N1  UNL     1      51.182  17.346  18.341  1.00  0.00    -0.055 N 
HETATM    7  C1  UNL     1      52.265  17.591  19.279  1.00  0.00     0.269 C 
ATOM      8  H12 UNL     1      50.995  16.348  18.247  1.00  0.00     0.279 HD
ATOM      9  H11 UNL     1      50.286  17.643  18.727  1.00  0.00     0.279 HD
ENDBRANCH   1   6
TORSDOF 1
ENDMDL
