MODEL 1
REMARK VINA RESULT: -2.863795746      0.000      0.000
REMARK  1 active torsions:
REMARK  status: ('A' for Active; 'I' for Inactive)
REMARK    1  A    between atoms: C2_7  and  N3_8 
ROOT
HETATM    1  N1  UNL     1      54.584  17.965  18.513  1.00  0.00    -0.386 N 
ATOM      2  H11 UNL     1      55.307  18.216  17.837  1.00  0.00     0.157 HD
ATOM      3  H12 UNL     1      55.577  17.825  18.699  1.00  0.00     0.157 HD
HETATM    4  C1  UNL     1      53.310  17.956  18.705  1.00  0.00     0.116 A 
HETATM    5  N2  UNL     1      52.252  17.589  19.696  1.00  0.00    -0.349 N 
ATOM      6  H2  UNL     1      51.989  17.209  20.605  1.00  0.00     0.163 HD
HETATM    7  C2  UNL     1      51.873  18.159  18.436  1.00  0.00     0.251 A 
ENDROOT
BRANCH   7   8
HETATM    8  N3  UNL     1      51.183  17.246  17.547  1.00  0.00    -0.361 N 
HETATM    9  C3  UNL     1      50.345  17.710  16.710  1.00  0.00     0.187 C 
HETATM   10  N4  UNL     1      50.084  19.089  16.637  1.00  0.00    -0.097 NA
ATOM     11  H3  UNL     1      51.367  16.243  17.592  1.00  0.00     0.162 HD
ENDBRANCH   7   8
TORSDOF 1
ENDMDL
MODEL 2
REMARK VINA RESULT: -2.829423428      1.155      3.583
REMARK  1 active torsions:
REMARK  status: ('A' for Active; 'I' for Inactive)
REMARK    1  A    between atoms: C2_7  and  N3_8 
ROOT
HETATM    1  N1  UNL     1      50.084  19.626  15.885  1.00  0.00    -0.386 N 
ATOM      2  H11 UNL     1      50.176  20.640  15.943  1.00  0.00     0.157 HD
ATOM      3  H12 UNL     1      49.483  20.259  15.357  1.00  0.00     0.157 HD
HETATM    4  C1  UNL     1      50.572  18.518  16.327  1.00  0.00     0.116 A 
HETATM    5  N2  UNL     1      50.436  17.031  16.241  1.00  0.00    -0.349 N 
ATOM      6  H2  UNL     1      49.969  16.209  15.859  1.00  0.00     0.163 HD
HETATM    7  C2  UNL     1      51.442  17.601  17.089  1.00  0.00     0.251 A 
ENDROOT
BRANCH   7   8
HETATM    8  N3  UNL     1      51.206  17.416  18.507  1.00  0.00    -0.361 N 
HETATM    9  C3  UNL     1      52.166  17.594  19.323  1.00  0.00     0.187 C 
HETATM   10  N4  UNL     1      53.443  17.966  18.869  1.00  0.00    -0.097 NA
ATOM     11  H3  UNL     1      50.283  17.147  18.847  1.00  0.00     0.162 HD
ENDBRANCH   7   8
TORSDOF 1
ENDMDL
MODEL 3
REMARK VINA RESULT: -2.826800608      1.234      3.868
REMARK  1 active torsions:
REMARK  status: ('A' for Active; 'I' for Inactive)
REMARK    1  A    between atoms: C2_7  and  N3_8 
ROOT
HETATM    1  N1  UNL     1      50.688  17.887  17.435  1.00  0.00    -0.386 N 
ATOM      2  H11 UNL     1      50.482  17.804  16.439  1.00  0.00     0.157 HD
ATOM      3  H12 UNL     1      49.768  18.101  17.049  1.00  0.00     0.157 HD
HETATM    4  C1  UNL     1      51.621  17.739  18.312  1.00  0.00     0.116 A 
HETATM    5  N2  UNL     1      51.922  17.860  19.772  1.00  0.00    -0.349 N 
ATOM      6  H2  UNL     1      51.618  18.085  20.719  1.00  0.00     0.163 HD
HETATM    7  C2  UNL     1      52.951  17.429  18.871  1.00  0.00     0.251 A 
ENDROOT
BRANCH   7   8
HETATM    8  N3  UNL     1      54.032  18.377  18.697  1.00  0.00    -0.361 N 
HETATM    9  C3  UNL     1      54.978  18.403  19.548  1.00  0.00     0.187 C 
HETATM   10  N4  UNL     1      54.986  17.528  20.648  1.00  0.00    -0.097 NA
ATOM     11  H3  UNL     1      54.036  19.016  17.902  1.00  0.00     0.162 HD
ENDBRANCH   7   8
TORSDOF 1
ENDMDL
MODEL 4
REMARK VINA RESULT: -2.815152617     13.424     14.457
REMARK  1 active torsions:
REMARK  status: ('A' for Active; 'I' for Inactive)
REMARK    1  A    between atoms: C2_7  and  N3_8 
ROOT
HETATM    1  N1  UNL     1      65.458  21.403  17.745  1.00  0.00    -0.386 N 
ATOM      2  H11 UNL     1      66.329  20.886  17.616  1.00  0.00     0.157 HD
ATOM      3  H12 UNL     1      65.486  20.482  17.308  1.00  0.00     0.157 HD
HETATM    4  C1  UNL     1      64.970  22.504  18.205  1.00  0.00     0.116 A 
HETATM    5  N2  UNL     1      63.694  23.261  18.394  1.00  0.00    -0.349 N 
ATOM      6  H2  UNL     1      62.682  23.323  18.285  1.00  0.00     0.163 HD
HETATM    7  C2  UNL     1      64.930  23.836  18.837  1.00  0.00     0.251 A 
ENDROOT
BRANCH   7   8
HETATM    8  N3  UNL     1      65.359  24.994  18.079  1.00  0.00    -0.361 N 
HETATM    9  C3  UNL     1      64.973  26.151  18.442  1.00  0.00     0.187 C 
HETATM   10  N4  UNL     1      64.140  26.317  19.561  1.00  0.00    -0.097 NA
ATOM     11  H3  UNL     1      65.964  24.883  17.265  1.00  0.00     0.162 HD
ENDBRANCH   7   8
TORSDOF 1
ENDMDL
MODEL 5
REMARK VINA RESULT: -2.577447755      2.188      4.030
REMARK  1 active torsions:
REMARK  status: ('A' for Active; 'I' for Inactive)
REMARK    1  A    between atoms: C2_7  and  N3_8 
ROOT
HETATM    1  N1  UNL     1      51.257  16.997  19.911  1.00  0.00    -0.386 N 
ATOM      2  H11 UNL     1      50.732  16.855  20.774  1.00  0.00     0.157 HD
ATOM      3  H12 UNL     1      50.418  16.417  19.950  1.00  0.00     0.157 HD
HETATM    4  C1  UNL     1      52.288  17.591  19.415  1.00  0.00     0.116 A 
HETATM    5  N2  UNL     1      53.056  17.799  18.149  1.00  0.00    -0.349 N 
ATOM      6  H2  UNL     1      53.177  17.621  17.152  1.00  0.00     0.163 HD
HETATM    7  C2  UNL     1      53.501  18.429  19.357  1.00  0.00     0.251 A 
ENDROOT
BRANCH   7   8
HETATM    8  N3  UNL     1      54.747  17.909  19.882  1.00  0.00    -0.361 N 
HETATM    9  C3  UNL     1      55.839  18.216  19.305  1.00  0.00     0.187 C 
HETATM   10  N4  UNL     1      55.850  19.048  18.173  1.00  0.00    -0.097 NA
ATOM     11  H3  UNL     1      54.750  17.305  20.704  1.00  0.00     0.162 HD
ENDBRANCH   7   8
TORSDOF 1
ENDMDL
