MODEL 1
REMARK VINA RESULT: -4.798570991      0.000      0.000
REMARK  0 active torsions:
REMARK  status: ('A' for Active; 'I' for Inactive)
ROOT
HETATM    1  C1  UNL     1      32.297  29.058 -40.835  1.00  0.00     0.164 C 
HETATM    2  N1  UNL     1      32.817  29.554 -42.101  1.00  0.00    -0.269 N 
HETATM    3  C2  UNL     1      32.664  30.831 -42.490  1.00  0.00     0.328 A 
HETATM    4  O1  UNL     1      32.056  31.643 -41.753  1.00  0.00    -0.246 OA
HETATM    5  N2  UNL     1      33.156  31.257 -43.664  1.00  0.00    -0.317 N 
ATOM      6  H2  UNL     1      33.022  32.234 -43.926  1.00  0.00     0.170 HD
HETATM    7  C3  UNL     1      33.818  30.448 -44.506  1.00  0.00     0.125 A 
HETATM    8  C4  UNL     1      33.986  29.129 -44.126  1.00  0.00     0.130 A 
HETATM    9  N3  UNL     1      34.655  28.173 -44.902  1.00  0.00    -0.095 NA
HETATM   10  C5  UNL     1      33.471  28.698 -42.903  1.00  0.00     0.276 A 
HETATM   11  O2  UNL     1      33.603  27.513 -42.522  1.00  0.00    -0.266 OA
ENDROOT
TORSDOF 0
ENDMDL
MODEL 2
REMARK VINA RESULT: -4.794325470      1.997      3.470
REMARK  0 active torsions:
REMARK  status: ('A' for Active; 'I' for Inactive)
ROOT
HETATM    1  C1  UNL     1      32.235  27.818 -41.048  1.00  0.00     0.164 C 
HETATM    2  N1  UNL     1      33.015  27.446 -42.219  1.00  0.00    -0.269 N 
HETATM    3  C2  UNL     1      33.294  26.167 -42.521  1.00  0.00     0.328 A 
HETATM    4  O1  UNL     1      32.878  25.243 -41.782  1.00  0.00    -0.246 OA
HETATM    5  N2  UNL     1      34.016  25.858 -43.610  1.00  0.00    -0.317 N 
ATOM      6  H2  UNL     1      34.207  24.875 -43.808  1.00  0.00     0.170 HD
HETATM    7  C3  UNL     1      34.495  26.791 -44.448  1.00  0.00     0.125 A 
HETATM    8  C4  UNL     1      34.219  28.113 -44.156  1.00  0.00     0.130 A 
HETATM    9  N3  UNL     1      34.653  29.192 -44.939  1.00  0.00    -0.095 NA
HETATM   10  C5  UNL     1      33.467  28.423 -43.022  1.00  0.00     0.276 A 
HETATM   11  O2  UNL     1      33.196  29.608 -42.723  1.00  0.00    -0.266 OA
ENDROOT
TORSDOF 0
ENDMDL
MODEL 3
REMARK VINA RESULT: -4.732767781      2.796      3.845
REMARK  0 active torsions:
REMARK  status: ('A' for Active; 'I' for Inactive)
ROOT
HETATM    1  C1  UNL     1      36.659  25.713 -42.001  1.00  0.00     0.164 C 
HETATM    2  N1  UNL     1      35.740  26.838 -42.092  1.00  0.00    -0.269 N 
HETATM    3  C2  UNL     1      34.984  27.235 -41.054  1.00  0.00     0.328 A 
HETATM    4  O1  UNL     1      35.057  26.632 -39.958  1.00  0.00    -0.246 OA
HETATM    5  N2  UNL     1      34.146  28.277 -41.172  1.00  0.00    -0.317 N 
ATOM      6  H2  UNL     1      33.589  28.552 -40.363  1.00  0.00     0.170 HD
HETATM    7  C3  UNL     1      34.013  28.972 -42.313  1.00  0.00     0.125 A 
HETATM    8  C4  UNL     1      34.781  28.580 -43.393  1.00  0.00     0.130 A 
HETATM    9  N3  UNL     1      34.748  29.211 -44.644  1.00  0.00    -0.095 NA
HETATM   10  C5  UNL     1      35.649  27.496 -43.259  1.00  0.00     0.276 A 
HETATM   11  O2  UNL     1      36.362  27.110 -44.214  1.00  0.00    -0.266 OA
ENDROOT
TORSDOF 0
ENDMDL
MODEL 4
REMARK VINA RESULT: -4.732221547      1.751      2.598
REMARK  0 active torsions:
REMARK  status: ('A' for Active; 'I' for Inactive)
ROOT
HETATM    1  C1  UNL     1      33.838  26.583 -43.288  1.00  0.00     0.164 C 
HETATM    2  N1  UNL     1      33.578  28.007 -43.135  1.00  0.00    -0.269 N 
HETATM    3  C2  UNL     1      32.861  28.501 -42.112  1.00  0.00     0.328 A 
HETATM    4  O1  UNL     1      32.390  27.729 -41.245  1.00  0.00    -0.246 OA
HETATM    5  N2  UNL     1      32.640  29.821 -42.001  1.00  0.00    -0.317 N 
ATOM      6  H2  UNL     1      32.092  30.161 -41.210  1.00  0.00     0.170 HD
HETATM    7  C3  UNL     1      33.112  30.710 -42.889  1.00  0.00     0.125 A 
HETATM    8  C4  UNL     1      33.852  30.222 -43.949  1.00  0.00     0.130 A 
HETATM    9  N3  UNL     1      34.406  31.031 -44.951  1.00  0.00    -0.095 NA
HETATM   10  C5  UNL     1      34.076  28.849 -44.055  1.00  0.00     0.276 A 
HETATM   11  O2  UNL     1      34.741  28.368 -45.000  1.00  0.00    -0.266 OA
ENDROOT
TORSDOF 0
ENDMDL
MODEL 5
REMARK VINA RESULT: -4.720464374      2.410      3.579
REMARK  0 active torsions:
REMARK  status: ('A' for Active; 'I' for Inactive)
ROOT
HETATM    1  C1  UNL     1      33.293  28.031 -43.903  1.00  0.00     0.164 C 
HETATM    2  N1  UNL     1      34.467  28.890 -43.864  1.00  0.00    -0.269 N 
HETATM    3  C2  UNL     1      35.558  28.585 -43.140  1.00  0.00     0.328 A 
HETATM    4  O1  UNL     1      35.589  27.528 -42.467  1.00  0.00    -0.246 OA
HETATM    5  N2  UNL     1      36.625  29.399 -43.127  1.00  0.00    -0.317 N 
ATOM      6  H2  UNL     1      37.436  29.135 -42.567  1.00  0.00     0.170 HD
HETATM    7  C3  UNL     1      36.666  30.548 -43.821  1.00  0.00     0.125 A 
HETATM    8  C4  UNL     1      35.555  30.881 -44.572  1.00  0.00     0.130 A 
HETATM    9  N3  UNL     1      35.456  32.045 -45.345  1.00  0.00    -0.095 NA
HETATM   10  C5  UNL     1      34.452  30.026 -44.579  1.00  0.00     0.276 A 
HETATM   11  O2  UNL     1      33.426  30.292 -45.246  1.00  0.00    -0.266 OA
ENDROOT
TORSDOF 0
ENDMDL
