MODEL 1
REMARK VINA RESULT: -6.398910960      0.000      0.000
REMARK  2 active torsions:
REMARK  status: ('A' for Active; 'I' for Inactive)
REMARK    1  A    between atoms: N2_3  and  C2_5 
REMARK    2  A    between atoms: C3_8  and  N4_9 
ROOT
HETATM    1  N1  UNL     1      18.634   0.228   9.743  1.00  0.00    -0.171 NA
HETATM    2  C1  UNL     1      19.734   0.413   9.384  1.00  0.00     0.196 C 
HETATM    3  N2  UNL     1      21.042   0.621   8.938  1.00  0.00    -0.124 N 
ATOM      4  H2  UNL     1      21.502  -0.111   8.398  1.00  0.00     0.197 HD
ENDROOT
BRANCH   3   5
HETATM    5  C2  UNL     1      21.750   1.823   9.214  1.00  0.00     0.720 A 
HETATM    6  N3  UNL     1      23.076   1.981   9.130  1.00  0.00    -0.019 N 
HETATM    7  C3  UNL     1      23.415   3.249   9.462  1.00  0.00     0.705 A 
ATOM      8  H3  UNL     1      23.735   1.252   8.857  1.00  0.00     0.203 HD
HETATM    9  N5  UNL     1      22.269   3.877   9.754  1.00  0.00    -0.118 N 
HETATM   10  N6  UNL     1      21.267   3.011   9.603  1.00  0.00    -0.117 N 
ATOM     11  H5  UNL     1      22.178   4.851  10.044  1.00  0.00     0.206 HD
ATOM     12  H6  UNL     1      20.281   3.222   9.758  1.00  0.00     0.206 HD
BRANCH   7  13
HETATM   13  N4  UNL     1      24.577   3.799   9.507  1.00  0.00    -0.233 N 
ATOM     14  H42 UNL     1      25.372   3.423  10.023  1.00  0.00     0.174 HD
ATOM     15  H41 UNL     1      24.905   4.657   9.065  1.00  0.00     0.174 HD
ENDBRANCH   7  13
ENDBRANCH   3   5
TORSDOF 2
ENDMDL
MODEL 2
REMARK VINA RESULT: -6.221598448      1.156      1.357
REMARK  2 active torsions:
REMARK  status: ('A' for Active; 'I' for Inactive)
REMARK    1  A    between atoms: N2_3  and  C2_5 
REMARK    2  A    between atoms: C3_8  and  N4_9 
ROOT
HETATM    1  N1  UNL     1      19.088   1.600  10.865  1.00  0.00    -0.171 NA
HETATM    2  C1  UNL     1      19.976   1.325  10.152  1.00  0.00     0.196 C 
HETATM    3  N2  UNL     1      21.021   0.983   9.289  1.00  0.00    -0.124 N 
ATOM      4  H2  UNL     1      21.042   0.047   8.884  1.00  0.00     0.197 HD
ENDROOT
BRANCH   3   5
HETATM    5  C2  UNL     1      22.056   1.900   8.957  1.00  0.00     0.720 A 
HETATM    6  N3  UNL     1      22.910   2.454   9.825  1.00  0.00    -0.019 N 
HETATM    7  C3  UNL     1      23.764   3.279   9.174  1.00  0.00     0.705 A 
ATOM      8  H3  UNL     1      22.917   2.280  10.830  1.00  0.00     0.203 HD
HETATM    9  N5  UNL     1      23.420   3.225   7.881  1.00  0.00    -0.118 N 
HETATM   10  N6  UNL     1      22.389   2.391   7.756  1.00  0.00    -0.117 N 
ATOM     11  H5  UNL     1      23.872   3.736   7.121  1.00  0.00     0.206 HD
ATOM     12  H6  UNL     1      21.923   2.161   6.877  1.00  0.00     0.206 HD
BRANCH   7  13
HETATM   13  N4  UNL     1      24.726   3.993   9.642  1.00  0.00    -0.233 N 
ATOM     14  H42 UNL     1      24.696   5.008   9.738  1.00  0.00     0.174 HD
ATOM     15  H41 UNL     1      25.642   3.703   9.984  1.00  0.00     0.174 HD
ENDBRANCH   7  13
ENDBRANCH   3   5
TORSDOF 2
ENDMDL
MODEL 3
REMARK VINA RESULT: -6.208381162      1.279      1.534
REMARK  2 active torsions:
REMARK  status: ('A' for Active; 'I' for Inactive)
REMARK    1  A    between atoms: N2_3  and  C2_5 
REMARK    2  A    between atoms: C3_8  and  N4_9 
ROOT
HETATM    1  N1  UNL     1      18.710   0.072   9.666  1.00  0.00    -0.171 NA
HETATM    2  C1  UNL     1      19.298   1.071   9.836  1.00  0.00     0.196 C 
HETATM    3  N2  UNL     1      19.986   2.267  10.057  1.00  0.00    -0.124 N 
ATOM      4  H2  UNL     1      19.493   3.050  10.486  1.00  0.00     0.197 HD
ENDROOT
BRANCH   3   5
HETATM    5  C2  UNL     1      21.354   2.426   9.703  1.00  0.00     0.720 A 
HETATM    6  N3  UNL     1      21.808   3.100   8.639  1.00  0.00    -0.019 N 
HETATM    7  C3  UNL     1      23.160   3.051   8.601  1.00  0.00     0.705 A 
ATOM      8  H3  UNL     1      21.220   3.580   7.957  1.00  0.00     0.203 HD
HETATM    9  N5  UNL     1      23.538   2.331   9.665  1.00  0.00    -0.118 N 
HETATM   10  N6  UNL     1      22.443   1.957  10.327  1.00  0.00    -0.117 N 
ATOM     11  H5  UNL     1      24.499   2.108   9.925  1.00  0.00     0.206 HD
ATOM     12  H6  UNL     1      22.436   1.398  11.180  1.00  0.00     0.206 HD
BRANCH   7  13
HETATM   13  N4  UNL     1      23.972   3.568   7.747  1.00  0.00    -0.233 N 
ATOM     14  H42 UNL     1      23.828   3.560   6.738  1.00  0.00     0.174 HD
ATOM     15  H41 UNL     1      24.856   4.051   7.904  1.00  0.00     0.174 HD
ENDBRANCH   7  13
ENDBRANCH   3   5
TORSDOF 2
ENDMDL
MODEL 4
REMARK VINA RESULT: -6.109034177      2.267      2.920
REMARK  2 active torsions:
REMARK  status: ('A' for Active; 'I' for Inactive)
REMARK    1  A    between atoms: N2_3  and  C2_5 
REMARK    2  A    between atoms: C3_8  and  N4_9 
ROOT
HETATM    1  N1  UNL     1      21.377   2.967   4.747  1.00  0.00    -0.171 NA
HETATM    2  C1  UNL     1      21.333   2.471   5.807  1.00  0.00     0.196 C 
HETATM    3  N2  UNL     1      21.273   1.860   7.063  1.00  0.00    -0.124 N 
ATOM      4  H2  UNL     1      20.547   1.167   7.241  1.00  0.00     0.197 HD
ENDROOT
BRANCH   3   5
HETATM    5  C2  UNL     1      22.193   2.176   8.100  1.00  0.00     0.720 A 
HETATM    6  N3  UNL     1      23.055   3.199   8.088  1.00  0.00    -0.019 N 
HETATM    7  C3  UNL     1      23.782   3.207   9.231  1.00  0.00     0.705 A 
ATOM      8  H3  UNL     1      23.152   3.874   7.329  1.00  0.00     0.203 HD
HETATM    9  N5  UNL     1      23.351   2.165   9.954  1.00  0.00    -0.118 N 
HETATM   10  N6  UNL     1      22.392   1.547   9.266  1.00  0.00    -0.117 N 
ATOM     11  H5  UNL     1      23.699   1.892  10.873  1.00  0.00     0.206 HD
ATOM     12  H6  UNL     1      21.885   0.719   9.581  1.00  0.00     0.206 HD
BRANCH   7  13
HETATM   13  N4  UNL     1      24.707   4.019   9.605  1.00  0.00    -0.233 N 
ATOM     14  H42 UNL     1      25.632   4.074   9.179  1.00  0.00     0.174 HD
ATOM     15  H41 UNL     1      24.695   4.716  10.349  1.00  0.00     0.174 HD
ENDBRANCH   7  13
ENDBRANCH   3   5
TORSDOF 2
ENDMDL
MODEL 5
REMARK VINA RESULT: -5.777030840      2.756      3.923
REMARK  2 active torsions:
REMARK  status: ('A' for Active; 'I' for Inactive)
REMARK    1  A    between atoms: N2_3  and  C2_5 
REMARK    2  A    between atoms: C3_8  and  N4_9 
ROOT
HETATM    1  N1  UNL     1      21.616   3.128   4.422  1.00  0.00    -0.171 NA
HETATM    2  C1  UNL     1      22.560   3.224   5.110  1.00  0.00     0.196 C 
HETATM    3  N2  UNL     1      23.695   3.354   5.915  1.00  0.00    -0.124 N 
ATOM      4  H2  UNL     1      24.595   3.539   5.474  1.00  0.00     0.197 HD
ENDROOT
BRANCH   3   5
HETATM    5  C2  UNL     1      23.632   3.234   7.330  1.00  0.00     0.720 A 
HETATM    6  N3  UNL     1      22.809   2.424   8.006  1.00  0.00    -0.019 N 
HETATM    7  C3  UNL     1      23.012   2.561   9.338  1.00  0.00     0.705 A 
ATOM      8  H3  UNL     1      22.128   1.795   7.581  1.00  0.00     0.203 HD
HETATM    9  N5  UNL     1      23.980   3.477   9.475  1.00  0.00    -0.118 N 
HETATM   10  N6  UNL     1      24.351   3.879   8.260  1.00  0.00    -0.117 N 
ATOM     11  H5  UNL     1      24.368   3.809  10.359  1.00  0.00     0.206 HD
ATOM     12  H6  UNL     1      25.074   4.573   8.067  1.00  0.00     0.206 HD
BRANCH   7  13
HETATM   13  N4  UNL     1      22.430   1.967  10.319  1.00  0.00    -0.233 N 
ATOM     14  H42 UNL     1      21.506   1.538  10.266  1.00  0.00     0.174 HD
ATOM     15  H41 UNL     1      22.757   1.820  11.273  1.00  0.00     0.174 HD
ENDBRANCH   7  13
ENDBRANCH   3   5
TORSDOF 2
ENDMDL
