MODEL 1
REMARK VINA RESULT: -5.625097573      0.000      0.000
REMARK  4 active torsions:
REMARK  status: ('A' for Active; 'I' for Inactive)
REMARK    1  A    between atoms: N1_1  and  C1_4 
REMARK    2  A    between atoms: C3_8  and  C4_9 
REMARK    3  A    between atoms: C4_9  and  N3_10 
REMARK    4  A    between atoms: N3_10  and  N4_11 
ROOT
HETATM    1  C1  UNL     1      22.990   3.047   9.170  1.00  0.00     0.114 A 
HETATM    2  C2  UNL     1      21.828   3.761   9.278  1.00  0.00     0.136 A 
HETATM    3  N2  UNL     1      20.625   3.171   9.533  1.00  0.00    -0.363 N 
ATOM      4  H2  UNL     1      19.784   3.743   9.604  1.00  0.00     0.165 HD
HETATM    5  C3  UNL     1      20.545   1.847   9.690  1.00  0.00     0.041 A 
HETATM    6  C5  UNL     1      21.717   1.104   9.587  1.00  0.00     0.116 A 
HETATM    7  N5  UNL     1      22.911   1.716   9.332  1.00  0.00    -0.350 N 
ATOM      8  H5  UNL     1      23.759   1.152   9.264  1.00  0.00     0.166 HD
ENDROOT
BRANCH   5   9
HETATM    9  C4  UNL     1      19.229   1.181   9.884  1.00  0.00     0.192 C 
BRANCH   9  10
HETATM   10  N3  UNL     1      18.672   1.589  11.170  1.00  0.00    -0.142 NA
BRANCH  10  11
HETATM   11  N4  UNL     1      17.460   2.362  10.971  1.00  0.00    -0.348 N 
ATOM     12  H42 UNL     1      17.347   3.332  11.266  1.00  0.00     0.172 HD
ATOM     13  H41 UNL     1      16.754   1.797  10.500  1.00  0.00     0.172 HD
ENDBRANCH  10  11
ENDBRANCH   9  10
ENDBRANCH   5   9
BRANCH   1  14
HETATM   14  N1  UNL     1      24.141   3.626   8.909  1.00  0.00    -0.384 N 
ATOM     15  H12 UNL     1      24.825   3.786   9.649  1.00  0.00     0.157 HD
ATOM     16  H11 UNL     1      24.393   3.927   7.967  1.00  0.00     0.157 HD
ENDBRANCH   1  14
TORSDOF 4
ENDMDL
MODEL 2
REMARK VINA RESULT: -5.581898024      1.256      1.487
REMARK  4 active torsions:
REMARK  status: ('A' for Active; 'I' for Inactive)
REMARK    1  A    between atoms: N1_1  and  C1_4 
REMARK    2  A    between atoms: C3_8  and  C4_9 
REMARK    3  A    between atoms: C4_9  and  N3_10 
REMARK    4  A    between atoms: N3_10  and  N4_11 
ROOT
HETATM    1  C1  UNL     1      22.942   2.943   8.242  1.00  0.00     0.114 A 
HETATM    2  C2  UNL     1      22.916   2.393   9.493  1.00  0.00     0.136 A 
HETATM    3  N2  UNL     1      21.817   1.757   9.993  1.00  0.00    -0.363 N 
ATOM      4  H2  UNL     1      21.842   1.363  10.933  1.00  0.00     0.165 HD
HETATM    5  C3  UNL     1      20.709   1.650   9.255  1.00  0.00     0.041 A 
HETATM    6  C5  UNL     1      20.717   2.200   7.977  1.00  0.00     0.116 A 
HETATM    7  N5  UNL     1      21.829   2.832   7.497  1.00  0.00    -0.350 N 
ATOM      8  H5  UNL     1      21.815   3.225   6.556  1.00  0.00     0.166 HD
ENDROOT
BRANCH   5   9
HETATM    9  C4  UNL     1      19.476   1.034   9.817  1.00  0.00     0.192 C 
BRANCH   9  10
HETATM   10  N3  UNL     1      19.152   1.683  11.083  1.00  0.00    -0.142 NA
BRANCH  10  11
HETATM   11  N4  UNL     1      18.708   3.045  10.851  1.00  0.00    -0.348 N 
ATOM     12  H42 UNL     1      19.338   3.835  10.712  1.00  0.00     0.172 HD
ATOM     13  H41 UNL     1      17.690   3.090  10.850  1.00  0.00     0.172 HD
ENDBRANCH  10  11
ENDBRANCH   9  10
ENDBRANCH   5   9
BRANCH   1  14
HETATM   14  N1  UNL     1      24.003   3.567   7.778  1.00  0.00    -0.384 N 
ATOM     15  H12 UNL     1      24.397   3.321   6.869  1.00  0.00     0.157 HD
ATOM     16  H11 UNL     1      24.460   4.315   8.299  1.00  0.00     0.157 HD
ENDBRANCH   1  14
TORSDOF 4
ENDMDL
MODEL 3
REMARK VINA RESULT: -5.422021570      4.247      5.935
REMARK  4 active torsions:
REMARK  status: ('A' for Active; 'I' for Inactive)
REMARK    1  A    between atoms: N1_1  and  C1_4 
REMARK    2  A    between atoms: C3_8  and  C4_9 
REMARK    3  A    between atoms: C4_9  and  N3_10 
REMARK    4  A    between atoms: N3_10  and  N4_11 
ROOT
HETATM    1  C1  UNL     1      22.599   2.839   7.666  1.00  0.00     0.114 A 
HETATM    2  C2  UNL     1      21.518   2.432   6.934  1.00  0.00     0.136 A 
HETATM    3  N2  UNL     1      21.484   2.505   5.572  1.00  0.00    -0.363 N 
ATOM      4  H2  UNL     1      20.656   2.191   5.067  1.00  0.00     0.165 HD
HETATM    5  C3  UNL     1      22.532   2.987   4.898  1.00  0.00     0.041 A 
HETATM    6  C5  UNL     1      23.642   3.403   5.625  1.00  0.00     0.116 A 
HETATM    7  N5  UNL     1      23.655   3.320   6.989  1.00  0.00    -0.350 N 
ATOM      8  H5  UNL     1      24.481   3.628   7.502  1.00  0.00     0.166 HD
ENDROOT
BRANCH   5   9
HETATM    9  C4  UNL     1      22.477   3.152   3.421  1.00  0.00     0.192 C 
BRANCH   9  10
HETATM   10  N3  UNL     1      22.313   4.567   3.102  1.00  0.00    -0.142 NA
BRANCH  10  11
HETATM   11  N4  UNL     1      23.455   5.049   2.349  1.00  0.00    -0.348 N 
ATOM     12  H42 UNL     1      24.041   5.831   2.638  1.00  0.00     0.172 HD
ATOM     13  H41 UNL     1      23.578   4.495   1.501  1.00  0.00     0.172 HD
ENDBRANCH  10  11
ENDBRANCH   9  10
ENDBRANCH   5   9
BRANCH   1  14
HETATM   14  N1  UNL     1      22.613   2.777   8.979  1.00  0.00    -0.384 N 
ATOM     15  H12 UNL     1      23.075   3.500   9.531  1.00  0.00     0.157 HD
ATOM     16  H11 UNL     1      22.160   2.018   9.489  1.00  0.00     0.157 HD
ENDBRANCH   1  14
TORSDOF 4
ENDMDL
MODEL 4
REMARK VINA RESULT: -5.320089549      1.309      1.312
REMARK  4 active torsions:
REMARK  status: ('A' for Active; 'I' for Inactive)
REMARK    1  A    between atoms: N1_1  and  C1_4 
REMARK    2  A    between atoms: C3_8  and  C4_9 
REMARK    3  A    between atoms: C4_9  and  N3_10 
REMARK    4  A    between atoms: N3_10  and  N4_11 
ROOT
HETATM    1  C1  UNL     1      22.741   2.901   7.786  1.00  0.00     0.114 A 
HETATM    2  C2  UNL     1      21.478   2.922   7.264  1.00  0.00     0.136 A 
HETATM    3  N2  UNL     1      20.416   2.334   7.885  1.00  0.00    -0.363 N 
ATOM      4  H2  UNL     1      19.491   2.373   7.458  1.00  0.00     0.165 HD
HETATM    5  C3  UNL     1      20.584   1.705   9.052  1.00  0.00     0.041 A 
HETATM    6  C5  UNL     1      21.861   1.675   9.601  1.00  0.00     0.116 A 
HETATM    7  N5  UNL     1      22.910   2.272   8.962  1.00  0.00    -0.350 N 
ATOM      8  H5  UNL     1      23.839   2.241   9.384  1.00  0.00     0.166 HD
ENDROOT
BRANCH   5   9
HETATM    9  C4  UNL     1      19.453   0.987   9.699  1.00  0.00     0.192 C 
BRANCH   9  10
HETATM   10  N3  UNL     1      19.200   1.575  11.011  1.00  0.00    -0.142 NA
BRANCH  10  11
HETATM   11  N4  UNL     1      18.753   2.948  10.868  1.00  0.00    -0.348 N 
ATOM     12  H42 UNL     1      19.127   3.602  10.180  1.00  0.00     0.172 HD
ATOM     13  H41 UNL     1      18.023   3.155  11.550  1.00  0.00     0.172 HD
ENDBRANCH  10  11
ENDBRANCH   9  10
ENDBRANCH   5   9
BRANCH   1  14
HETATM   14  N1  UNL     1      23.759   3.459   7.169  1.00  0.00    -0.384 N 
ATOM     15  H12 UNL     1      24.397   4.079   7.670  1.00  0.00     0.157 HD
ATOM     16  H11 UNL     1      23.952   3.289   6.182  1.00  0.00     0.157 HD
ENDBRANCH   1  14
TORSDOF 4
ENDMDL
MODEL 5
REMARK VINA RESULT: -5.298349143      3.338      4.436
REMARK  4 active torsions:
REMARK  status: ('A' for Active; 'I' for Inactive)
REMARK    1  A    between atoms: N1_1  and  C1_4 
REMARK    2  A    between atoms: C3_8  and  C4_9 
REMARK    3  A    between atoms: C4_9  and  N3_10 
REMARK    4  A    between atoms: N3_10  and  N4_11 
ROOT
HETATM    1  C1  UNL     1      22.121   2.764   4.708  1.00  0.00     0.114 A 
HETATM    2  C2  UNL     1      21.293   2.461   5.753  1.00  0.00     0.136 A 
HETATM    3  N2  UNL     1      21.663   2.630   7.055  1.00  0.00    -0.363 N 
ATOM      4  H2  UNL     1      21.014   2.390   7.804  1.00  0.00     0.165 HD
HETATM    5  C3  UNL     1      22.874   3.110   7.353  1.00  0.00     0.041 A 
HETATM    6  C5  UNL     1      23.729   3.428   6.302  1.00  0.00     0.116 A 
HETATM    7  N5  UNL     1      23.337   3.251   5.006  1.00  0.00    -0.350 N 
ATOM      8  H5  UNL     1      23.978   3.493   4.250  1.00  0.00     0.166 HD
ENDROOT
BRANCH   5   9
HETATM    9  C4  UNL     1      23.323   3.221   8.767  1.00  0.00     0.192 C 
BRANCH   9  10
HETATM   10  N3  UNL     1      22.184   2.988   9.650  1.00  0.00    -0.142 NA
BRANCH  10  11
HETATM   11  N4  UNL     1      22.375   1.765  10.406  1.00  0.00    -0.348 N 
ATOM     12  H42 UNL     1      21.753   1.451  11.151  1.00  0.00     0.172 HD
ATOM     13  H41 UNL     1      23.211   1.278  10.085  1.00  0.00     0.172 HD
ENDBRANCH  10  11
ENDBRANCH   9  10
ENDBRANCH   5   9
BRANCH   1  14
HETATM   14  N1  UNL     1      21.757   2.582   3.457  1.00  0.00    -0.384 N 
ATOM     15  H12 UNL     1      21.166   1.792   3.195  1.00  0.00     0.157 HD
ATOM     16  H11 UNL     1      22.041   3.219   2.713  1.00  0.00     0.157 HD
ENDBRANCH   1  14
TORSDOF 4
ENDMDL
