MODEL 1
REMARK VINA RESULT: -5.418089116      0.000      0.000
REMARK  3 active torsions:
REMARK  status: ('A' for Active; 'I' for Inactive)
REMARK    1  A    between atoms: C2_8  and  C3_9 
REMARK    2  A    between atoms: C3_9  and  N4_10 
REMARK    3  A    between atoms: N4_10  and  C4_13 
ROOT
HETATM    1  N1  UNL     1      -4.857  -4.357  11.533  1.00  0.00    -0.364 N 
ATOM      2  H11 UNL     1      -4.563  -5.322  11.385  1.00  0.00     0.159 HD
ATOM      3  H12 UNL     1      -5.389  -4.155  10.686  1.00  0.00     0.159 HD
HETATM    4  C1  UNL     1      -4.594  -3.620  12.547  1.00  0.00     0.230 C 
HETATM    5  N2  UNL     1      -5.008  -2.260  12.754  1.00  0.00    -0.267 N 
ATOM      6  H2  UNL     1      -5.695  -1.763  12.188  1.00  0.00     0.186 HD
HETATM    7  N3  UNL     1      -4.315  -1.713  13.868  1.00  0.00    -0.103 NA
HETATM    8  C2  UNL     1      -3.240  -2.632  13.988  1.00  0.00     0.270 C 
HETATM    9  O1  UNL     1      -3.857  -3.900  13.720  1.00  0.00    -0.296 OA
ENDROOT
BRANCH   8  10
HETATM   10  C3  UNL     1      -2.467  -2.649  15.245  1.00  0.00     0.284 C 
BRANCH  10  11
HETATM   11  N4  UNL     1      -3.357  -2.305  16.341  1.00  0.00    -0.067 N 
ATOM     12  H42 UNL     1      -3.180  -1.358  16.677  1.00  0.00     0.277 HD
ATOM     13  H41 UNL     1      -4.316  -2.186  16.014  1.00  0.00     0.277 HD
BRANCH  11  14
HETATM   14  C4  UNL     1      -3.289  -3.271  17.432  1.00  0.00     0.186 A 
HETATM   15  C5  UNL     1      -1.990  -3.987  17.617  1.00  0.00     0.035 A 
HETATM   16  C6  UNL     1      -3.234  -4.722  17.222  1.00  0.00     0.035 A 
ENDBRANCH  11  14
ENDBRANCH  10  11
ENDBRANCH   8  10
TORSDOF 3
ENDMDL
MODEL 2
REMARK VINA RESULT: -5.246186464      0.971      1.410
REMARK  3 active torsions:
REMARK  status: ('A' for Active; 'I' for Inactive)
REMARK    1  A    between atoms: C2_8  and  C3_9 
REMARK    2  A    between atoms: C3_9  and  N4_10 
REMARK    3  A    between atoms: N4_10  and  C4_13 
ROOT
HETATM    1  N1  UNL     1      -5.031  -4.209  11.006  1.00  0.00    -0.364 N 
ATOM      2  H11 UNL     1      -4.767  -5.119  10.629  1.00  0.00     0.159 HD
ATOM      3  H12 UNL     1      -5.644  -3.837  10.281  1.00  0.00     0.159 HD
HETATM    4  C1  UNL     1      -4.657  -3.701  12.121  1.00  0.00     0.230 C 
HETATM    5  N2  UNL     1      -5.029  -2.420  12.652  1.00  0.00    -0.267 N 
ATOM      6  H2  UNL     1      -5.763  -1.819  12.278  1.00  0.00     0.186 HD
HETATM    7  N3  UNL     1      -4.218  -2.115  13.780  1.00  0.00    -0.103 NA
HETATM    8  C2  UNL     1      -3.149  -3.029  13.591  1.00  0.00     0.270 C 
HETATM    9  O1  UNL     1      -3.807  -4.217  13.127  1.00  0.00    -0.296 OA
ENDROOT
BRANCH   8  10
HETATM   10  C3  UNL     1      -2.252  -3.305  14.730  1.00  0.00     0.284 C 
BRANCH  10  11
HETATM   11  N4  UNL     1      -3.063  -3.641  15.889  1.00  0.00    -0.067 N 
ATOM     12  H42 UNL     1      -4.053  -3.482  15.704  1.00  0.00     0.277 HD
ATOM     13  H41 UNL     1      -3.086  -4.650  16.042  1.00  0.00     0.277 HD
BRANCH  11  14
HETATM   14  C4  UNL     1      -2.631  -2.935  17.089  1.00  0.00     0.186 A 
HETATM   15  C5  UNL     1      -3.696  -2.264  17.895  1.00  0.00     0.035 A 
HETATM   16  C6  UNL     1      -2.626  -1.473  17.207  1.00  0.00     0.035 A 
ENDBRANCH  11  14
ENDBRANCH  10  11
ENDBRANCH   8  10
TORSDOF 3
ENDMDL
MODEL 3
REMARK VINA RESULT: -5.218359221      6.431      7.445
REMARK  3 active torsions:
REMARK  status: ('A' for Active; 'I' for Inactive)
REMARK    1  A    between atoms: C2_8  and  C3_9 
REMARK    2  A    between atoms: C3_9  and  N4_10 
REMARK    3  A    between atoms: N4_10  and  C4_13 
ROOT
HETATM    1  N1  UNL     1      -2.895  -3.556  10.378  1.00  0.00    -0.364 N 
ATOM      2  H11 UNL     1      -3.386  -3.817   9.523  1.00  0.00     0.159 HD
ATOM      3  H12 UNL     1      -3.630  -3.115  10.930  1.00  0.00     0.159 HD
HETATM    4  C1  UNL     1      -1.658  -3.752  10.645  1.00  0.00     0.230 C 
HETATM    5  N2  UNL     1      -0.967  -3.384  11.849  1.00  0.00    -0.267 N 
ATOM      6  H2  UNL     1      -1.413  -3.059  12.706  1.00  0.00     0.186 HD
HETATM    7  N3  UNL     1       0.434  -3.541  11.664  1.00  0.00    -0.103 NA
HETATM    8  C2  UNL     1       0.510  -3.587  10.248  1.00  0.00     0.270 C 
HETATM    9  O1  UNL     1      -0.638  -4.364   9.879  1.00  0.00    -0.296 OA
ENDROOT
BRANCH   8  10
HETATM   10  C3  UNL     1       1.747  -4.101   9.627  1.00  0.00     0.284 C 
BRANCH  10  11
HETATM   11  N4  UNL     1       1.446  -5.365   8.975  1.00  0.00    -0.067 N 
ATOM     12  H42 UNL     1       0.929  -5.987   9.596  1.00  0.00     0.277 HD
ATOM     13  H41 UNL     1       0.745  -5.245   8.243  1.00  0.00     0.277 HD
BRANCH  11  14
HETATM   14  C4  UNL     1       2.643  -6.017   8.455  1.00  0.00     0.186 A 
HETATM   15  C5  UNL     1       2.939  -7.389   8.968  1.00  0.00     0.035 A 
HETATM   16  C6  UNL     1       3.853  -6.237   9.255  1.00  0.00     0.035 A 
ENDBRANCH  11  14
ENDBRANCH  10  11
ENDBRANCH   8  10
TORSDOF 3
ENDMDL
MODEL 4
REMARK VINA RESULT: -5.216264102      2.781      3.059
REMARK  3 active torsions:
REMARK  status: ('A' for Active; 'I' for Inactive)
REMARK    1  A    between atoms: C2_8  and  C3_9 
REMARK    2  A    between atoms: C3_9  and  N4_10 
REMARK    3  A    between atoms: N4_10  and  C4_13 
ROOT
HETATM    1  N1  UNL     1      -5.221  -4.401  11.096  1.00  0.00    -0.364 N 
ATOM      2  H11 UNL     1      -4.909  -5.185  10.524  1.00  0.00     0.159 HD
ATOM      3  H12 UNL     1      -6.208  -4.326  10.851  1.00  0.00     0.159 HD
HETATM    4  C1  UNL     1      -4.510  -3.708  11.905  1.00  0.00     0.230 C 
HETATM    5  N2  UNL     1      -4.949  -2.603  12.710  1.00  0.00    -0.267 N 
ATOM      6  H2  UNL     1      -5.922  -2.331  12.854  1.00  0.00     0.186 HD
HETATM    7  N3  UNL     1      -3.824  -1.945  13.277  1.00  0.00    -0.103 NA
HETATM    8  C2  UNL     1      -2.785  -2.436  12.445  1.00  0.00     0.270 C 
HETATM    9  O1  UNL     1      -3.141  -3.812  12.245  1.00  0.00    -0.296 OA
ENDROOT
BRANCH   8  10
HETATM   10  C3  UNL     1      -1.389  -2.288  12.902  1.00  0.00     0.284 C 
BRANCH  10  11
HETATM   11  N4  UNL     1      -1.389  -2.138  14.348  1.00  0.00    -0.067 N 
ATOM     12  H42 UNL     1      -2.336  -2.182  14.724  1.00  0.00     0.277 HD
ATOM     13  H41 UNL     1      -0.994  -2.961  14.804  1.00  0.00     0.277 HD
BRANCH  11  14
HETATM   14  C4  UNL     1      -0.709  -0.921  14.777  1.00  0.00     0.186 A 
HETATM   15  C5  UNL     1      -1.537   0.096  15.493  1.00  0.00     0.035 A 
HETATM   16  C6  UNL     1      -0.931   0.389  14.154  1.00  0.00     0.035 A 
ENDBRANCH  11  14
ENDBRANCH  10  11
ENDBRANCH   8  10
TORSDOF 3
ENDMDL
MODEL 5
REMARK VINA RESULT: -5.178424447      1.849      2.378
REMARK  3 active torsions:
REMARK  status: ('A' for Active; 'I' for Inactive)
REMARK    1  A    between atoms: C2_8  and  C3_9 
REMARK    2  A    between atoms: C3_9  and  N4_10 
REMARK    3  A    between atoms: N4_10  and  C4_13 
ROOT
HETATM    1  N1  UNL     1      -5.086  -4.212  11.002  1.00  0.00    -0.364 N 
ATOM      2  H11 UNL     1      -4.803  -5.096  10.581  1.00  0.00     0.159 HD
ATOM      3  H12 UNL     1      -5.793  -3.872  10.351  1.00  0.00     0.159 HD
HETATM    4  C1  UNL     1      -4.633  -3.696  12.084  1.00  0.00     0.230 C 
HETATM    5  N2  UNL     1      -5.032  -2.451  12.678  1.00  0.00    -0.267 N 
ATOM      6  H2  UNL     1      -5.839  -1.896  12.393  1.00  0.00     0.186 HD
HETATM    7  N3  UNL     1      -4.132  -2.109  13.723  1.00  0.00    -0.103 NA
HETATM    8  C2  UNL     1      -3.031  -2.946  13.408  1.00  0.00     0.270 C 
HETATM    9  O1  UNL     1      -3.653  -4.169  12.987  1.00  0.00    -0.296 OA
ENDROOT
BRANCH   8  10
HETATM   10  C3  UNL     1      -2.005  -3.177  14.443  1.00  0.00     0.284 C 
BRANCH  10  11
HETATM   11  N4  UNL     1      -2.310  -2.342  15.594  1.00  0.00    -0.067 N 
ATOM     12  H42 UNL     1      -3.255  -1.961  15.532  1.00  0.00     0.277 HD
ATOM     13  H41 UNL     1      -2.416  -2.904  16.439  1.00  0.00     0.277 HD
BRANCH  11  14
HETATM   14  C4  UNL     1      -1.326  -1.283  15.785  1.00  0.00     0.186 A 
HETATM   15  C5  UNL     1      -1.782  -0.067  16.524  1.00  0.00     0.035 A 
HETATM   16  C6  UNL     1      -1.380   0.004  15.082  1.00  0.00     0.035 A 
ENDBRANCH  11  14
ENDBRANCH  10  11
ENDBRANCH   8  10
TORSDOF 3
ENDMDL
