MODEL 1
REMARK VINA RESULT: -5.855017969      0.000      0.000
REMARK  3 active torsions:
REMARK  status: ('A' for Active; 'I' for Inactive)
REMARK    1  A    between atoms: N1_3  and  N2_5 
REMARK    2  A    between atoms: N3_7  and  C3_9 
REMARK    3  A    between atoms: C5_15  and  N6_16 
ROOT
HETATM    1  C3  UNL     1      -3.260  -2.733  11.922  1.00  0.00     0.111 A 
HETATM    2  C4  UNL     1      -3.323  -1.830  12.954  1.00  0.00     0.142 A 
HETATM    3  N4  UNL     1      -4.613  -1.727  13.304  1.00  0.00    -0.308 N 
ATOM      4  H4  UNL     1      -4.960  -1.123  14.050  1.00  0.00     0.186 HD
HETATM    5  N5  UNL     1      -5.367  -2.496  12.571  1.00  0.00    -0.284 N 
ATOM      6  H5  UNL     1      -6.379  -2.594  12.644  1.00  0.00     0.188 HD
HETATM    7  C5  UNL     1      -4.553  -3.148  11.686  1.00  0.00     0.143 A 
ENDROOT
BRANCH   1   8
HETATM    8  N3  UNL     1      -2.054  -3.112  11.274  1.00  0.00    -0.281 N 
HETATM    9  N2  UNL     1      -1.973  -3.243  10.019  1.00  0.00    -0.243 N 
ATOM     10  H2  UNL     1      -2.782  -3.078   9.421  1.00  0.00     0.208 HD
ATOM     11  H3  UNL     1      -1.225  -3.286  11.842  1.00  0.00     0.188 HD
BRANCH   9  12
HETATM   12  N1  UNL     1      -0.743  -3.620   9.477  1.00  0.00    -0.302 N 
HETATM   13  C2  UNL     1       0.325  -3.251  10.093  1.00  0.00     0.077 C 
HETATM   14  C1  UNL     1       1.685  -3.615   9.576  1.00  0.00     0.056 C 
ATOM     15  H1  UNL     1      -0.693  -4.171   8.620  1.00  0.00     0.187 HD
ENDBRANCH   9  12
ENDBRANCH   1   8
BRANCH   7  16
HETATM   16  N6  UNL     1      -4.930  -3.998  10.793  1.00  0.00    -0.383 N 
ATOM     17  H62 UNL     1      -4.317  -4.567  10.209  1.00  0.00     0.157 HD
ATOM     18  H61 UNL     1      -5.893  -4.222  10.542  1.00  0.00     0.157 HD
ENDBRANCH   7  16
TORSDOF 3
ENDMDL
MODEL 2
REMARK VINA RESULT: -5.666262844      0.893      1.057
REMARK  3 active torsions:
REMARK  status: ('A' for Active; 'I' for Inactive)
REMARK    1  A    between atoms: N1_3  and  N2_5 
REMARK    2  A    between atoms: N3_7  and  C3_9 
REMARK    3  A    between atoms: C5_15  and  N6_16 
ROOT
HETATM    1  C3  UNL     1      -3.166  -2.609  12.101  1.00  0.00     0.111 A 
HETATM    2  C4  UNL     1      -3.368  -1.794  13.187  1.00  0.00     0.142 A 
HETATM    3  N4  UNL     1      -4.682  -1.822  13.457  1.00  0.00    -0.308 N 
ATOM      4  H4  UNL     1      -5.123  -1.307  14.218  1.00  0.00     0.186 HD
HETATM    5  N5  UNL     1      -5.320  -2.593  12.623  1.00  0.00    -0.284 N 
ATOM      6  H5  UNL     1      -6.324  -2.778  12.621  1.00  0.00     0.188 HD
HETATM    7  C5  UNL     1      -4.402  -3.109  11.751  1.00  0.00     0.143 A 
ENDROOT
BRANCH   1   8
HETATM    8  N3  UNL     1      -1.895  -2.840  11.510  1.00  0.00    -0.281 N 
HETATM    9  N2  UNL     1      -0.818  -2.454  12.049  1.00  0.00    -0.243 N 
ATOM     10  H2  UNL     1      -0.826  -1.956  12.939  1.00  0.00     0.208 HD
ATOM     11  H3  UNL     1      -1.850  -3.335  10.620  1.00  0.00     0.188 HD
BRANCH   9  12
HETATM   12  N1  UNL     1       0.381  -2.728  11.390  1.00  0.00    -0.302 N 
HETATM   13  C2  UNL     1       0.316  -3.228  10.205  1.00  0.00     0.077 C 
HETATM   14  C1  UNL     1       1.558  -3.551   9.429  1.00  0.00     0.056 C 
ATOM     15  H1  UNL     1       1.280  -2.539  11.833  1.00  0.00     0.187 HD
ENDBRANCH   9  12
ENDBRANCH   1   8
BRANCH   7  16
HETATM   16  N6  UNL     1      -4.650  -3.917  10.777  1.00  0.00    -0.383 N 
ATOM     17  H62 UNL     1      -4.415  -4.909  10.746  1.00  0.00     0.157 HD
ATOM     18  H61 UNL     1      -5.115  -3.680   9.901  1.00  0.00     0.157 HD
ENDBRANCH   7  16
TORSDOF 3
ENDMDL
MODEL 3
REMARK VINA RESULT: -5.530654020      0.764      1.839
REMARK  3 active torsions:
REMARK  status: ('A' for Active; 'I' for Inactive)
REMARK    1  A    between atoms: N1_3  and  N2_5 
REMARK    2  A    between atoms: N3_7  and  C3_9 
REMARK    3  A    between atoms: C5_15  and  N6_16 
ROOT
HETATM    1  C3  UNL     1      -3.179  -2.584  12.137  1.00  0.00     0.111 A 
HETATM    2  C4  UNL     1      -4.436  -2.959  11.731  1.00  0.00     0.142 A 
HETATM    3  N4  UNL     1      -5.297  -2.497  12.648  1.00  0.00    -0.308 N 
ATOM      4  H4  UNL     1      -6.308  -2.628  12.605  1.00  0.00     0.186 HD
HETATM    5  N5  UNL     1      -4.678  -1.860  13.602  1.00  0.00    -0.284 N 
ATOM      6  H5  UNL     1      -5.112  -1.419  14.412  1.00  0.00     0.188 HD
HETATM    7  C5  UNL     1      -3.341  -1.892  13.319  1.00  0.00     0.143 A 
ENDROOT
BRANCH   1   8
HETATM    8  N3  UNL     1      -1.991  -2.890  11.422  1.00  0.00    -0.281 N 
HETATM    9  N2  UNL     1      -2.009  -3.316  10.232  1.00  0.00    -0.243 N 
ATOM     10  H2  UNL     1      -2.890  -3.457   9.738  1.00  0.00     0.208 HD
ATOM     11  H3  UNL     1      -1.092  -2.762  11.886  1.00  0.00     0.188 HD
BRANCH   9  12
HETATM   12  N1  UNL     1      -0.787  -3.590   9.614  1.00  0.00    -0.302 N 
HETATM   13  C2  UNL     1       0.287  -3.184  10.197  1.00  0.00     0.077 C 
HETATM   14  C1  UNL     1       1.638  -3.436   9.600  1.00  0.00     0.056 C 
ATOM     15  H1  UNL     1      -0.746  -4.095   8.729  1.00  0.00     0.187 HD
ENDBRANCH   9  12
ENDBRANCH   1   8
BRANCH   7  16
HETATM   16  N6  UNL     1      -2.402  -1.368  14.029  1.00  0.00    -0.383 N 
ATOM     17  H62 UNL     1      -2.464  -1.118  15.017  1.00  0.00     0.157 HD
ATOM     18  H61 UNL     1      -1.465  -1.127  13.707  1.00  0.00     0.157 HD
ENDBRANCH   7  16
TORSDOF 3
ENDMDL
MODEL 4
REMARK VINA RESULT: -5.298954156      2.325      3.213
REMARK  3 active torsions:
REMARK  status: ('A' for Active; 'I' for Inactive)
REMARK    1  A    between atoms: N1_3  and  N2_5 
REMARK    2  A    between atoms: N3_7  and  C3_9 
REMARK    3  A    between atoms: C5_15  and  N6_16 
ROOT
HETATM    1  C3  UNL     1      -3.117  -2.926  11.583  1.00  0.00     0.111 A 
HETATM    2  C4  UNL     1      -2.915  -3.698  10.466  1.00  0.00     0.142 A 
HETATM    3  N4  UNL     1      -4.104  -4.223  10.134  1.00  0.00    -0.308 N 
ATOM      4  H4  UNL     1      -4.257  -4.843   9.339  1.00  0.00     0.186 HD
HETATM    5  N5  UNL     1      -5.038  -3.841  10.959  1.00  0.00    -0.284 N 
ATOM      6  H5  UNL     1      -6.022  -4.105  10.918  1.00  0.00     0.188 HD
HETATM    7  C5  UNL     1      -4.458  -3.022  11.888  1.00  0.00     0.143 A 
ENDROOT
BRANCH   1   8
HETATM    8  N3  UNL     1      -2.089  -2.199  12.240  1.00  0.00    -0.281 N 
HETATM    9  N2  UNL     1      -2.065  -0.935  12.267  1.00  0.00    -0.243 N 
ATOM     10  H2  UNL     1      -2.794  -0.387  11.812  1.00  0.00     0.208 HD
ATOM     11  H3  UNL     1      -1.342  -2.716  12.705  1.00  0.00     0.188 HD
BRANCH   9  12
HETATM   12  N1  UNL     1      -1.011  -0.313  12.939  1.00  0.00    -0.302 N 
HETATM   13  C2  UNL     1       0.176  -0.457  12.462  1.00  0.00     0.077 C 
HETATM   14  C1  UNL     1       1.361   0.178  13.123  1.00  0.00     0.056 C 
ATOM     15  H1  UNL     1      -1.176   0.239  13.781  1.00  0.00     0.187 HD
ENDBRANCH   9  12
ENDBRANCH   1   8
BRANCH   7  16
HETATM   16  N6  UNL     1      -5.060  -2.444  12.871  1.00  0.00    -0.383 N 
ATOM     17  H62 UNL     1      -4.935  -1.475  13.165  1.00  0.00     0.157 HD
ATOM     18  H61 UNL     1      -5.744  -2.872  13.494  1.00  0.00     0.157 HD
ENDBRANCH   7  16
TORSDOF 3
ENDMDL
MODEL 5
REMARK VINA RESULT: -5.243530799      2.282      2.649
REMARK  3 active torsions:
REMARK  status: ('A' for Active; 'I' for Inactive)
REMARK    1  A    between atoms: N1_3  and  N2_5 
REMARK    2  A    between atoms: N3_7  and  C3_9 
REMARK    3  A    between atoms: C5_15  and  N6_16 
ROOT
HETATM    1  C3  UNL     1      -2.953  -2.298  12.413  1.00  0.00     0.111 A 
HETATM    2  C4  UNL     1      -3.982  -1.921  13.240  1.00  0.00     0.142 A 
HETATM    3  N4  UNL     1      -5.087  -2.535  12.792  1.00  0.00    -0.308 N 
ATOM      4  H4  UNL     1      -6.010  -2.440  13.217  1.00  0.00     0.186 HD
HETATM    5  N5  UNL     1      -4.831  -3.268  11.746  1.00  0.00    -0.284 N 
ATOM      6  H5  UNL     1      -5.504  -3.831  11.225  1.00  0.00     0.188 HD
HETATM    7  C5  UNL     1      -3.497  -3.147  11.473  1.00  0.00     0.143 A 
ENDROOT
BRANCH   1   8
HETATM    8  N3  UNL     1      -1.613  -1.852  12.564  1.00  0.00    -0.281 N 
HETATM    9  N2  UNL     1      -1.318  -0.631  12.704  1.00  0.00    -0.243 N 
ATOM     10  H2  UNL     1      -2.043   0.087  12.714  1.00  0.00     0.208 HD
ATOM     11  H3  UNL     1      -0.862  -2.543  12.559  1.00  0.00     0.188 HD
BRANCH   9  12
HETATM   12  N1  UNL     1       0.030  -0.293  12.845  1.00  0.00    -0.302 N 
HETATM   13  C2  UNL     1       0.853  -0.715  11.949  1.00  0.00     0.077 C 
HETATM   14  C1  UNL     1       2.315  -0.396  12.027  1.00  0.00     0.056 C 
ATOM     15  H1  UNL     1       0.351   0.270  13.632  1.00  0.00     0.187 HD
ENDBRANCH   9  12
ENDBRANCH   1   8
BRANCH   7  16
HETATM   16  N6  UNL     1      -2.864  -3.724  10.510  1.00  0.00    -0.383 N 
ATOM     17  H62 UNL     1      -2.497  -3.268   9.674  1.00  0.00     0.157 HD
ATOM     18  H61 UNL     1      -2.639  -4.717  10.446  1.00  0.00     0.157 HD
ENDBRANCH   7  16
TORSDOF 3
ENDMDL
