MODEL 1
REMARK VINA RESULT: -6.367674998      0.000      0.000
REMARK  5 active torsions:
REMARK  status: ('A' for Active; 'I' for Inactive)
REMARK    1  A    between atoms: C3_6  and  N3_7 
REMARK    2  A    between atoms: N3_7  and  C4_9 
REMARK    3  A    between atoms: C4_9  and  C5_10 
REMARK    4  A    between atoms: C5_10  and  C6_11 
REMARK    5  A    between atoms: C6_11  and  C7_12 
ROOT
HETATM    1  N3  UNL     1      14.483  32.711  -1.076  1.00  0.00    -0.225 N 
ATOM      2  H3  UNL     1      14.872  32.945  -0.163  1.00  0.00     0.177 HD
ENDROOT
BRANCH   1   3
HETATM    3  C3  UNL     1      14.373  31.337  -1.435  1.00  0.00     0.686 C 
HETATM    4  N2  UNL     1      13.092  30.731  -1.540  1.00  0.00    -0.136 N 
HETATM    5  N1  UNL     1      12.950  29.560  -2.281  1.00  0.00    -0.119 NA
ATOM      6  H2  UNL     1      12.285  31.148  -1.077  1.00  0.00     0.201 HD
HETATM    7  C2  UNL     1      13.981  28.637  -1.863  1.00  0.00     0.130 C 
HETATM    8  C1  UNL     1      13.894  27.308  -2.573  1.00  0.00     0.033 C 
HETATM    9  C13 UNL     1      15.366  29.228  -2.035  1.00  0.00     0.193 C 
HETATM   10  N4  UNL     1      15.421  30.609  -1.673  1.00  0.00    -0.210 N 
HETATM   11  S1  UNL     1      15.899  29.093  -3.771  1.00  0.00    -0.068 SA
ATOM     12  H4  UNL     1      16.337  31.049  -1.597  1.00  0.00     0.179 HD
ENDBRANCH   1   3
BRANCH   1  13
HETATM   13  C4  UNL     1      14.069  33.787  -1.946  1.00  0.00     0.138 C 
BRANCH  13  14
HETATM   14  C5  UNL     1      15.093  33.844  -3.087  1.00  0.00     0.020 C 
BRANCH  14  15
HETATM   15  C6  UNL     1      14.401  33.824  -4.422  1.00  0.00     0.006 C 
BRANCH  15  16
HETATM   16  C7  UNL     1      14.621  32.472  -5.073  1.00  0.00    -0.014 C 
HETATM   17  C8  UNL     1      13.307  31.763  -5.041  1.00  0.00     0.004 C 
HETATM   18  C9  UNL     1      12.726  31.486  -6.401  1.00  0.00     0.000 C 
HETATM   19  C10 UNL     1      13.820  30.707  -7.147  1.00  0.00     0.000 C 
HETATM   20  C11 UNL     1      14.848  31.750  -7.503  1.00  0.00     0.000 C 
HETATM   21  C12 UNL     1      15.221  32.679  -6.414  1.00  0.00     0.004 C 
ENDBRANCH  15  16
ENDBRANCH  14  15
ENDBRANCH  13  14
ENDBRANCH   1  13
TORSDOF 5
ENDMDL
MODEL 2
REMARK VINA RESULT: -6.323929981      2.337      3.404
REMARK  5 active torsions:
REMARK  status: ('A' for Active; 'I' for Inactive)
REMARK    1  A    between atoms: C3_6  and  N3_7 
REMARK    2  A    between atoms: N3_7  and  C4_9 
REMARK    3  A    between atoms: C4_9  and  C5_10 
REMARK    4  A    between atoms: C5_10  and  C6_11 
REMARK    5  A    between atoms: C6_11  and  C7_12 
ROOT
HETATM    1  N3  UNL     1      15.014  28.431  -3.422  1.00  0.00    -0.225 N 
ATOM      2  H3  UNL     1      14.531  27.594  -3.748  1.00  0.00     0.177 HD
ENDROOT
BRANCH   1   3
HETATM    3  C3  UNL     1      15.063  28.684  -2.021  1.00  0.00     0.686 C 
HETATM    4  N2  UNL     1      14.614  27.695  -1.105  1.00  0.00    -0.136 N 
HETATM    5  N1  UNL     1      15.041  27.749   0.220  1.00  0.00    -0.119 NA
ATOM      6  H2  UNL     1      13.986  26.953  -1.413  1.00  0.00     0.201 HD
HETATM    7  C2  UNL     1      14.842  29.098   0.700  1.00  0.00     0.130 C 
HETATM    8  C1  UNL     1      15.231  29.263   2.149  1.00  0.00     0.033 C 
HETATM    9  C13 UNL     1      15.579  30.111  -0.153  1.00  0.00     0.193 C 
HETATM   10  N4  UNL     1      15.510  29.806  -1.547  1.00  0.00    -0.210 N 
HETATM   11  S1  UNL     1      17.339  30.167   0.311  1.00  0.00    -0.068 SA
ATOM     12  H4  UNL     1      15.830  30.512  -2.210  1.00  0.00     0.179 HD
ENDBRANCH   1   3
BRANCH   1  13
HETATM   13  C4  UNL     1      15.618  29.304  -4.402  1.00  0.00     0.138 C 
BRANCH  13  14
HETATM   14  C5  UNL     1      14.465  30.017  -5.119  1.00  0.00     0.020 C 
BRANCH  14  15
HETATM   15  C6  UNL     1      14.587  31.507  -4.967  1.00  0.00     0.006 C 
BRANCH  15  16
HETATM   16  C7  UNL     1      13.889  32.183  -6.131  1.00  0.00    -0.014 C 
HETATM   17  C8  UNL     1      14.751  31.965  -7.331  1.00  0.00     0.004 C 
HETATM   18  C9  UNL     1      14.108  31.128  -8.403  1.00  0.00     0.000 C 
HETATM   19  C10 UNL     1      12.787  31.845  -8.725  1.00  0.00     0.000 C 
HETATM   20  C11 UNL     1      11.890  31.519  -7.559  1.00  0.00     0.000 C 
HETATM   21  C12 UNL     1      12.500  31.670  -6.220  1.00  0.00     0.004 C 
ENDBRANCH  15  16
ENDBRANCH  14  15
ENDBRANCH  13  14
ENDBRANCH   1  13
TORSDOF 5
ENDMDL
MODEL 3
REMARK VINA RESULT: -6.305300064      2.350      4.388
REMARK  5 active torsions:
REMARK  status: ('A' for Active; 'I' for Inactive)
REMARK    1  A    between atoms: C3_6  and  N3_7 
REMARK    2  A    between atoms: N3_7  and  C4_9 
REMARK    3  A    between atoms: C4_9  and  C5_10 
REMARK    4  A    between atoms: C5_10  and  C6_11 
REMARK    5  A    between atoms: C6_11  and  C7_12 
ROOT
HETATM    1  N3  UNL     1      15.374  31.382  -1.845  1.00  0.00    -0.225 N 
ATOM      2  H3  UNL     1      16.265  31.102  -1.435  1.00  0.00     0.177 HD
ENDROOT
BRANCH   1   3
HETATM    3  C3  UNL     1      15.125  31.063  -3.210  1.00  0.00     0.686 C 
HETATM    4  N2  UNL     1      13.907  30.430  -3.581  1.00  0.00    -0.136 N 
HETATM    5  N1  UNL     1      13.475  30.504  -4.903  1.00  0.00    -0.119 NA
ATOM      6  H2  UNL     1      13.355  29.928  -2.886  1.00  0.00     0.201 HD
HETATM    7  C2  UNL     1      14.584  30.142  -5.757  1.00  0.00     0.130 C 
HETATM    8  C1  UNL     1      14.215  30.142  -7.221  1.00  0.00     0.033 C 
HETATM    9  C13 UNL     1      15.786  31.036  -5.524  1.00  0.00     0.193 C 
HETATM   10  N4  UNL     1      15.986  31.335  -4.142  1.00  0.00    -0.210 N 
HETATM   11  S1  UNL     1      15.577  32.616  -6.405  1.00  0.00    -0.068 SA
ATOM     12  H4  UNL     1      16.858  31.789  -3.870  1.00  0.00     0.179 HD
ENDBRANCH   1   3
BRANCH   1  13
HETATM   13  C4  UNL     1      14.423  32.083  -1.013  1.00  0.00     0.138 C 
BRANCH  13  14
HETATM   14  C5  UNL     1      14.007  33.338  -1.790  1.00  0.00     0.020 C 
BRANCH  14  15
HETATM   15  C6  UNL     1      14.492  34.578  -1.094  1.00  0.00     0.006 C 
BRANCH  15  16
HETATM   16  C7  UNL     1      15.589  35.216  -1.924  1.00  0.00    -0.014 C 
HETATM   17  C8  UNL     1      15.304  34.869  -3.348  1.00  0.00     0.004 C 
HETATM   18  C9  UNL     1      14.988  36.056  -4.217  1.00  0.00     0.000 C 
HETATM   19  C10 UNL     1      16.189  37.000  -4.050  1.00  0.00     0.000 C 
HETATM   20  C11 UNL     1      15.999  37.610  -2.684  1.00  0.00     0.000 C 
HETATM   21  C12 UNL     1      15.653  36.663  -1.603  1.00  0.00     0.004 C 
ENDBRANCH  15  16
ENDBRANCH  14  15
ENDBRANCH  13  14
ENDBRANCH   1  13
TORSDOF 5
ENDMDL
MODEL 4
REMARK VINA RESULT: -6.256644004      7.990      9.889
REMARK  5 active torsions:
REMARK  status: ('A' for Active; 'I' for Inactive)
REMARK    1  A    between atoms: C3_6  and  N3_7 
REMARK    2  A    between atoms: N3_7  and  C4_9 
REMARK    3  A    between atoms: C4_9  and  C5_10 
REMARK    4  A    between atoms: C5_10  and  C6_11 
REMARK    5  A    between atoms: C6_11  and  C7_12 
ROOT
HETATM    1  N3  UNL     1      20.015  33.350  -6.878  1.00  0.00    -0.225 N 
ATOM      2  H3  UNL     1      19.428  32.602  -6.509  1.00  0.00     0.177 HD
ENDROOT
BRANCH   1   3
HETATM    3  C3  UNL     1      21.350  33.038  -7.263  1.00  0.00     0.686 C 
HETATM    4  N2  UNL     1      21.780  33.282  -8.595  1.00  0.00    -0.136 N 
HETATM    5  N1  UNL     1      23.143  33.388  -8.863  1.00  0.00    -0.119 NA
ATOM      6  H2  UNL     1      21.099  33.378  -9.348  1.00  0.00     0.201 HD
HETATM    7  C2  UNL     1      23.809  32.260  -8.250  1.00  0.00     0.130 C 
HETATM    8  C1  UNL     1      25.295  32.247  -8.516  1.00  0.00     0.033 C 
HETATM    9  C13 UNL     1      23.549  32.199  -6.758  1.00  0.00     0.193 C 
HETATM   10  N4  UNL     1      22.200  32.530  -6.424  1.00  0.00    -0.210 N 
HETATM   11  S1  UNL     1      24.636  33.365  -5.879  1.00  0.00    -0.068 SA
ATOM     12  H4  UNL     1      21.886  32.357  -5.469  1.00  0.00     0.179 HD
ENDBRANCH   1   3
BRANCH   1  13
HETATM   13  C4  UNL     1      19.453  34.676  -6.986  1.00  0.00     0.138 C 
BRANCH  13  14
HETATM   14  C5  UNL     1      20.209  35.553  -5.979  1.00  0.00     0.020 C 
BRANCH  14  15
HETATM   15  C6  UNL     1      19.246  36.330  -5.126  1.00  0.00     0.006 C 
BRANCH  15  16
HETATM   16  C7  UNL     1      20.017  37.359  -4.322  1.00  0.00    -0.014 C 
HETATM   17  C8  UNL     1      21.128  37.840  -5.196  1.00  0.00     0.004 C 
HETATM   18  C9  UNL     1      21.034  39.296  -5.561  1.00  0.00     0.000 C 
HETATM   19  C10 UNL     1      20.953  40.037  -4.218  1.00  0.00     0.000 C 
HETATM   20  C11 UNL     1      19.545  39.791  -3.738  1.00  0.00     0.000 C 
HETATM   21  C12 UNL     1      19.071  38.394  -3.836  1.00  0.00     0.004 C 
ENDBRANCH  15  16
ENDBRANCH  14  15
ENDBRANCH  13  14
ENDBRANCH   1  13
TORSDOF 5
ENDMDL
MODEL 5
REMARK VINA RESULT: -6.250821247      2.083      2.857
REMARK  5 active torsions:
REMARK  status: ('A' for Active; 'I' for Inactive)
REMARK    1  A    between atoms: C3_6  and  N3_7 
REMARK    2  A    between atoms: N3_7  and  C4_9 
REMARK    3  A    between atoms: C4_9  and  C5_10 
REMARK    4  A    between atoms: C5_10  and  C6_11 
REMARK    5  A    between atoms: C6_11  and  C7_12 
ROOT
HETATM    1  N3  UNL     1      13.459  31.022  -1.312  1.00  0.00    -0.225 N 
ATOM      2  H3  UNL     1      13.094  31.697  -0.640  1.00  0.00     0.177 HD
ENDROOT
BRANCH   1   3
HETATM    3  C3  UNL     1      14.531  30.174  -0.909  1.00  0.00     0.686 C 
HETATM    4  N2  UNL     1      14.701  28.904  -1.523  1.00  0.00    -0.136 N 
HETATM    5  N1  UNL     1      15.942  28.275  -1.456  1.00  0.00    -0.119 NA
ATOM      6  H2  UNL     1      13.924  28.458  -2.009  1.00  0.00     0.201 HD
HETATM    7  C2  UNL     1      16.384  28.302  -0.079  1.00  0.00     0.130 C 
HETATM    8  C1  UNL     1      17.707  27.603   0.121  1.00  0.00     0.033 C 
HETATM    9  C13 UNL     1      16.459  29.718   0.457  1.00  0.00     0.193 C 
HETATM   10  N4  UNL     1      15.369  30.529   0.016  1.00  0.00    -0.210 N 
HETATM   11  S1  UNL     1      17.999  30.520  -0.091  1.00  0.00    -0.068 SA
ATOM     12  H4  UNL     1      15.242  31.442   0.453  1.00  0.00     0.179 HD
ENDBRANCH   1   3
BRANCH   1  13
HETATM   13  C4  UNL     1      12.865  30.969  -2.627  1.00  0.00     0.138 C 
BRANCH  13  14
HETATM   14  C5  UNL     1      13.809  31.736  -3.563  1.00  0.00     0.020 C 
BRANCH  14  15
HETATM   15  C6  UNL     1      14.043  30.963  -4.830  1.00  0.00     0.006 C 
BRANCH  15  16
HETATM   16  C7  UNL     1      13.670  31.832  -6.016  1.00  0.00    -0.014 C 
HETATM   17  C8  UNL     1      14.660  31.534  -7.093  1.00  0.00     0.004 C 
HETATM   18  C9  UNL     1      14.058  30.904  -8.320  1.00  0.00     0.000 C 
HETATM   19  C10 UNL     1      12.953  31.876  -8.762  1.00  0.00     0.000 C 
HETATM   20  C11 UNL     1      11.838  31.651  -7.773  1.00  0.00     0.000 C 
HETATM   21  C12 UNL     1      12.244  31.597  -6.352  1.00  0.00     0.004 C 
ENDBRANCH  15  16
ENDBRANCH  14  15
ENDBRANCH  13  14
ENDBRANCH   1  13
TORSDOF 5
ENDMDL
