MODEL 1
REMARK VINA RESULT: -5.916365242      0.000      0.000
REMARK  2 active torsions:
REMARK  status: ('A' for Active; 'I' for Inactive)
REMARK    1  A    between atoms: O1_1  and  C1_3 
REMARK    2  A    between atoms: C9_15  and  O5_16 
ROOT
HETATM    1  C1  UNL     1      37.214  20.972  20.548  1.00  0.00     0.288 C 
HETATM    2  O2  UNL     1      37.427  20.466  21.825  1.00  0.00    -0.351 OA
HETATM    3  C2  UNL     1      37.920  21.273  22.761  1.00  0.00     0.159 C 
HETATM    4  C3  UNL     1      36.821  22.311  23.102  1.00  0.00     0.069 C 
HETATM    5  C4  UNL     1      37.760  23.311  23.643  1.00  0.00     0.160 C 
HETATM    6  O3  UNL     1      38.570  23.680  22.553  1.00  0.00    -0.380 OA
HETATM    7  C5  UNL     1      37.885  24.062  21.429  1.00  0.00     0.203 C 
HETATM    8  C6  UNL     1      38.072  23.343  20.169  1.00  0.00     0.179 A 
HETATM    9  O4  UNL     1      39.200  22.458  20.135  1.00  0.00    -0.368 OA
HETATM   10  C7  UNL     1      37.891  22.035  19.844  1.00  0.00     0.208 A 
HETATM   11  C8  UNL     1      38.550  22.401  24.605  1.00  0.00     0.230 C 
HETATM   12  F1  UNL     1      38.040  22.547  25.881  1.00  0.00    -0.244 F 
HETATM   13  C9  UNL     1      38.219  20.949  24.164  1.00  0.00     0.183 C 
ENDROOT
BRANCH   1  14
HETATM   14  O1  UNL     1      36.245  20.354  19.938  1.00  0.00    -0.369 OA
ATOM     15  H1  UNL     1      36.392  20.302  19.001  1.00  0.00     0.212 HD
ENDBRANCH   1  14
BRANCH  13  16
HETATM   16  O5  UNL     1      37.196  20.422  24.905  1.00  0.00    -0.390 OA
ATOM     17  H5  UNL     1      37.355  19.578  25.312  1.00  0.00     0.210 HD
ENDBRANCH  13  16
TORSDOF 2
ENDMDL
MODEL 2
REMARK VINA RESULT: -5.542364092      2.659      4.611
REMARK  2 active torsions:
REMARK  status: ('A' for Active; 'I' for Inactive)
REMARK    1  A    between atoms: O1_1  and  C1_3 
REMARK    2  A    between atoms: C9_15  and  O5_16 
ROOT
HETATM    1  C1  UNL     1      36.399  23.254  23.260  1.00  0.00     0.288 C 
HETATM    2  O2  UNL     1      36.529  23.956  22.068  1.00  0.00    -0.351 OA
HETATM    3  C2  UNL     1      37.326  23.469  21.120  1.00  0.00     0.159 C 
HETATM    4  C3  UNL     1      36.655  22.188  20.565  1.00  0.00     0.069 C 
HETATM    5  C4  UNL     1      37.906  21.611  20.039  1.00  0.00     0.160 C 
HETATM    6  O3  UNL     1      38.709  21.385  21.172  1.00  0.00    -0.380 OA
HETATM    7  C5  UNL     1      38.106  20.670  22.172  1.00  0.00     0.203 C 
HETATM    8  C6  UNL     1      37.954  21.247  23.507  1.00  0.00     0.179 A 
HETATM    9  O4  UNL     1      38.725  22.433  23.748  1.00  0.00    -0.368 OA
HETATM   10  C7  UNL     1      37.332  22.381  23.931  1.00  0.00     0.208 A 
HETATM   11  C8  UNL     1      38.425  22.837  19.259  1.00  0.00     0.230 C 
HETATM   12  F1  UNL     1      38.086  22.697  17.927  1.00  0.00    -0.244 F 
HETATM   13  C9  UNL     1      37.606  24.043  19.795  1.00  0.00     0.183 C 
ENDROOT
BRANCH   1  14
HETATM   14  O1  UNL     1      35.239  23.452  23.815  1.00  0.00    -0.369 OA
ATOM     15  H1  UNL     1      35.280  23.369  24.761  1.00  0.00     0.212 HD
ENDBRANCH   1  14
BRANCH  13  16
HETATM   16  O5  UNL     1      36.525  24.307  18.999  1.00  0.00    -0.390 OA
ATOM     17  H5  UNL     1      35.712  23.870  19.225  1.00  0.00     0.210 HD
ENDBRANCH  13  16
TORSDOF 2
ENDMDL
MODEL 3
REMARK VINA RESULT: -5.427436920      1.563      2.828
REMARK  2 active torsions:
REMARK  status: ('A' for Active; 'I' for Inactive)
REMARK    1  A    between atoms: O1_1  and  C1_3 
REMARK    2  A    between atoms: C9_15  and  O5_16 
ROOT
HETATM    1  C1  UNL     1      36.752  23.391  20.018  1.00  0.00     0.288 C 
HETATM    2  O2  UNL     1      36.690  23.736  21.363  1.00  0.00    -0.351 OA
HETATM    3  C2  UNL     1      36.952  22.806  22.278  1.00  0.00     0.159 C 
HETATM    4  C3  UNL     1      38.465  22.483  22.189  1.00  0.00     0.069 C 
HETATM    5  C4  UNL     1      38.344  21.151  22.811  1.00  0.00     0.160 C 
HETATM    6  O3  UNL     1      37.551  20.402  21.921  1.00  0.00    -0.380 OA
HETATM    7  C5  UNL     1      37.982  20.408  20.621  1.00  0.00     0.203 C 
HETATM    8  C6  UNL     1      37.115  20.909  19.556  1.00  0.00     0.179 A 
HETATM    9  O4  UNL     1      35.741  21.090  19.925  1.00  0.00    -0.368 OA
HETATM   10  C7  UNL     1      36.523  22.120  19.373  1.00  0.00     0.208 A 
HETATM   11  C8  UNL     1      37.518  21.543  24.053  1.00  0.00     0.230 C 
HETATM   12  F1  UNL     1      38.372  21.699  25.129  1.00  0.00    -0.244 F 
HETATM   13  C9  UNL     1      36.945  22.952  23.741  1.00  0.00     0.183 C 
ENDROOT
BRANCH   1  14
HETATM   14  O1  UNL     1      37.068  24.409  19.271  1.00  0.00    -0.369 OA
ATOM     15  H1  UNL     1      36.894  24.241  18.352  1.00  0.00     0.212 HD
ENDBRANCH   1  14
BRANCH  13  16
HETATM   16  O5  UNL     1      37.734  23.941  24.263  1.00  0.00    -0.390 OA
ATOM     17  H5  UNL     1      37.923  24.680  23.696  1.00  0.00     0.210 HD
ENDBRANCH  13  16
TORSDOF 2
ENDMDL
MODEL 4
REMARK VINA RESULT: -5.373767399      1.845      2.617
REMARK  2 active torsions:
REMARK  status: ('A' for Active; 'I' for Inactive)
REMARK    1  A    between atoms: O1_1  and  C1_3 
REMARK    2  A    between atoms: C9_15  and  O5_16 
ROOT
HETATM    1  C1  UNL     1      38.127  18.671  22.521  1.00  0.00     0.288 C 
HETATM    2  O2  UNL     1      38.382  19.586  23.536  1.00  0.00    -0.351 OA
HETATM    3  C2  UNL     1      38.329  20.886  23.257  1.00  0.00     0.159 C 
HETATM    4  C3  UNL     1      36.845  21.241  22.988  1.00  0.00     0.069 C 
HETATM    5  C4  UNL     1      37.148  22.451  22.201  1.00  0.00     0.160 C 
HETATM    6  O3  UNL     1      37.834  21.985  21.064  1.00  0.00    -0.380 OA
HETATM    7  C5  UNL     1      37.202  20.980  20.380  1.00  0.00     0.203 C 
HETATM    8  C6  UNL     1      37.854  19.684  20.197  1.00  0.00     0.179 A 
HETATM    9  O4  UNL     1      39.255  19.661  20.504  1.00  0.00    -0.368 OA
HETATM   10  C7  UNL     1      38.331  18.782  21.097  1.00  0.00     0.208 A 
HETATM   11  C8  UNL     1      38.135  23.127  23.173  1.00  0.00     0.230 C 
HETATM   12  F1  UNL     1      37.455  24.076  23.914  1.00  0.00    -0.244 F 
HETATM   13  C9  UNL     1      38.560  22.015  24.171  1.00  0.00     0.183 C 
ENDROOT
BRANCH   1  14
HETATM   14  O1  UNL     1      37.632  17.560  22.984  1.00  0.00    -0.369 OA
ATOM     15  H1  UNL     1      37.769  17.474  23.920  1.00  0.00     0.212 HD
ENDBRANCH   1  14
BRANCH  13  16
HETATM   16  O5  UNL     1      37.803  22.048  25.310  1.00  0.00    -0.390 OA
ATOM     17  H5  UNL     1      36.859  22.058  25.195  1.00  0.00     0.210 HD
ENDBRANCH  13  16
TORSDOF 2
ENDMDL
MODEL 5
REMARK VINA RESULT: -5.359447207      2.061      2.388
REMARK  2 active torsions:
REMARK  status: ('A' for Active; 'I' for Inactive)
REMARK    1  A    between atoms: O1_1  and  C1_3 
REMARK    2  A    between atoms: C9_15  and  O5_16 
ROOT
HETATM    1  C1  UNL     1      34.937  23.006  20.608  1.00  0.00     0.288 C 
HETATM    2  O2  UNL     1      35.200  22.724  21.943  1.00  0.00    -0.351 OA
HETATM    3  C2  UNL     1      36.465  22.599  22.336  1.00  0.00     0.159 C 
HETATM    4  C3  UNL     1      37.112  24.006  22.262  1.00  0.00     0.069 C 
HETATM    5  C4  UNL     1      38.495  23.500  22.171  1.00  0.00     0.160 C 
HETATM    6  O3  UNL     1      38.545  22.789  20.958  1.00  0.00    -0.380 OA
HETATM    7  C5  UNL     1      38.099  23.482  19.864  1.00  0.00     0.203 C 
HETATM    8  C6  UNL     1      36.976  22.976  19.076  1.00  0.00     0.179 A 
HETATM    9  O4  UNL     1      36.608  21.616  19.344  1.00  0.00    -0.368 OA
HETATM   10  C7  UNL     1      35.693  22.681  19.422  1.00  0.00     0.208 A 
HETATM   11  C8  UNL     1      38.468  22.518  23.360  1.00  0.00     0.230 C 
HETATM   12  F1  UNL     1      39.025  23.135  24.464  1.00  0.00    -0.244 F 
HETATM   13  C9  UNL     1      36.965  22.307  23.688  1.00  0.00     0.183 C 
ENDROOT
BRANCH   1  14
HETATM   14  O1  UNL     1      33.824  23.664  20.462  1.00  0.00    -0.369 OA
ATOM     15  H1  UNL     1      33.734  24.018  19.585  1.00  0.00     0.212 HD
ENDBRANCH   1  14
BRANCH  13  16
HETATM   16  O5  UNL     1      36.549  23.140  24.690  1.00  0.00    -0.390 OA
ATOM     17  H5  UNL     1      36.617  22.807  25.578  1.00  0.00     0.210 HD
ENDBRANCH  13  16
TORSDOF 2
ENDMDL
