MODEL 1
REMARK VINA RESULT: -5.962998671      0.000      0.000
REMARK  5 active torsions:
REMARK  status: ('A' for Active; 'I' for Inactive)
REMARK    1  A    between atoms: O1_1  and  N1_3 
REMARK    2  A    between atoms: C4_7  and  C5_8 
REMARK    3  A    between atoms: C7_10  and  O2_11 
REMARK    4  A    between atoms: C8_14  and  C9_15 
REMARK    5  A    between atoms: C9_15  and  O4_16 
ROOT
HETATM    1  C5  UNL     1      37.949  21.205  22.614  1.00  0.00     0.163 C 
HETATM    2  C6  UNL     1      38.484  21.298  24.051  1.00  0.00     0.097 C 
HETATM    3  C7  UNL     1      38.202  22.695  24.506  1.00  0.00     0.262 C 
HETATM    4  O3  UNL     1      38.373  23.670  23.595  1.00  0.00    -0.330 OA
HETATM    5  C8  UNL     1      38.389  23.380  22.276  1.00  0.00     0.287 C 
HETATM    6  O5  UNL     1      38.722  22.111  21.894  1.00  0.00    -0.349 OA
ENDROOT
BRANCH   1   7
HETATM    7  C4  UNL     1      38.137  19.827  22.084  1.00  0.00    -0.011 A 
HETATM    8  C3  UNL     1      38.563  19.609  20.790  1.00  0.00     0.012 A 
HETATM    9  C2  UNL     1      38.715  18.305  20.365  1.00  0.00     0.020 A 
HETATM   10  C1  UNL     1      38.439  17.270  21.236  1.00  0.00     0.122 A 
HETATM   11  N1  UNL     1      38.023  17.510  22.493  1.00  0.00    -0.247 N 
HETATM   12  C10 UNL     1      37.871  18.777  22.921  1.00  0.00     0.132 A 
BRANCH  11  13
HETATM   13  O1  UNL     1      37.744  16.476  23.377  1.00  0.00    -0.284 OA
ATOM     14  H1  UNL     1      38.411  16.120  23.952  1.00  0.00     0.245 HD
ENDBRANCH  11  13
ENDBRANCH   1   7
BRANCH   3  15
HETATM   15  O2  UNL     1      36.889  22.724  25.025  1.00  0.00    -0.371 OA
ATOM     16  H2  UNL     1      36.286  22.708  24.292  1.00  0.00     0.212 HD
ENDBRANCH   3  15
BRANCH   5  17
HETATM   17  C9  UNL     1      37.104  23.776  21.549  1.00  0.00     0.224 C 
BRANCH  17  18
HETATM   18  O4  UNL     1      36.146  24.208  22.497  1.00  0.00    -0.396 OA
ATOM     19  H4  UNL     1      35.601  24.882  22.107  1.00  0.00     0.209 HD
ENDBRANCH  17  18
ENDBRANCH   5  17
TORSDOF 5
ENDMDL
MODEL 2
REMARK VINA RESULT: -5.908002638      2.757      4.731
REMARK  5 active torsions:
REMARK  status: ('A' for Active; 'I' for Inactive)
REMARK    1  A    between atoms: O1_1  and  N1_3 
REMARK    2  A    between atoms: C4_7  and  C5_8 
REMARK    3  A    between atoms: C7_10  and  O2_11 
REMARK    4  A    between atoms: C8_14  and  C9_15 
REMARK    5  A    between atoms: C9_15  and  O4_16 
ROOT
HETATM    1  C5  UNL     1      38.044  21.526  20.860  1.00  0.00     0.163 C 
HETATM    2  C6  UNL     1      36.600  21.473  20.340  1.00  0.00     0.097 C 
HETATM    3  C7  UNL     1      36.697  21.126  18.888  1.00  0.00     0.262 C 
HETATM    4  O3  UNL     1      37.703  21.695  18.200  1.00  0.00    -0.330 OA
HETATM    5  C8  UNL     1      38.776  22.199  18.846  1.00  0.00     0.287 C 
HETATM    6  O5  UNL     1      38.632  22.572  20.153  1.00  0.00    -0.349 OA
ENDROOT
BRANCH   1   7
HETATM    7  C4  UNL     1      38.056  21.816  22.319  1.00  0.00    -0.011 A 
HETATM    8  C3  UNL     1      38.415  23.058  22.800  1.00  0.00     0.012 A 
HETATM    9  C2  UNL     1      38.403  23.257  24.166  1.00  0.00     0.020 A 
HETATM   10  C1  UNL     1      38.037  22.218  25.000  1.00  0.00     0.122 A 
HETATM   11  N1  UNL     1      37.693  21.015  24.504  1.00  0.00    -0.247 N 
HETATM   12  C10 UNL     1      37.700  20.809  23.174  1.00  0.00     0.132 A 
BRANCH  11  13
HETATM   13  O1  UNL     1      37.323  19.966  25.335  1.00  0.00    -0.284 OA
ATOM     14  H1  UNL     1      37.818  19.155  25.362  1.00  0.00     0.245 HD
ENDBRANCH  11  13
ENDBRANCH   1   7
BRANCH   3  15
HETATM   15  O2  UNL     1      36.755  19.719  18.782  1.00  0.00    -0.371 OA
ATOM     16  H2  UNL     1      36.646  19.492  17.866  1.00  0.00     0.212 HD
ENDBRANCH   3  15
BRANCH   5  17
HETATM   17  C9  UNL     1      40.022  21.319  18.736  1.00  0.00     0.224 C 
BRANCH  17  18
HETATM   18  O4  UNL     1      41.132  22.124  18.383  1.00  0.00    -0.396 OA
ATOM     19  H4  UNL     1      41.347  22.697  19.110  1.00  0.00     0.209 HD
ENDBRANCH  17  18
ENDBRANCH   5  17
TORSDOF 5
ENDMDL
MODEL 3
REMARK VINA RESULT: -5.857570979      1.398      1.657
REMARK  5 active torsions:
REMARK  status: ('A' for Active; 'I' for Inactive)
REMARK    1  A    between atoms: O1_1  and  N1_3 
REMARK    2  A    between atoms: C4_7  and  C5_8 
REMARK    3  A    between atoms: C7_10  and  O2_11 
REMARK    4  A    between atoms: C8_14  and  C9_15 
REMARK    5  A    between atoms: C9_15  and  O4_16 
ROOT
HETATM    1  C5  UNL     1      37.833  21.097  22.646  1.00  0.00     0.163 C 
HETATM    2  C6  UNL     1      38.428  21.184  24.059  1.00  0.00     0.097 C 
HETATM    3  C7  UNL     1      38.253  22.605  24.493  1.00  0.00     0.262 C 
HETATM    4  O3  UNL     1      38.449  23.549  23.556  1.00  0.00    -0.330 OA
HETATM    5  C8  UNL     1      38.396  23.233  22.244  1.00  0.00     0.287 C 
HETATM    6  O5  UNL     1      38.633  21.938  21.877  1.00  0.00    -0.349 OA
ENDROOT
BRANCH   1   7
HETATM    7  C4  UNL     1      37.913  19.699  22.140  1.00  0.00    -0.011 A 
HETATM    8  C3  UNL     1      38.265  18.656  22.970  1.00  0.00     0.012 A 
HETATM    9  C2  UNL     1      38.319  17.386  22.433  1.00  0.00     0.020 A 
HETATM   10  C1  UNL     1      38.023  17.200  21.097  1.00  0.00     0.122 A 
HETATM   11  N1  UNL     1      37.683  18.236  20.309  1.00  0.00    -0.247 N 
HETATM   12  C10 UNL     1      37.626  19.480  20.820  1.00  0.00     0.132 A 
BRANCH  11  13
HETATM   13  O1  UNL     1      37.383  18.059  18.964  1.00  0.00    -0.284 OA
ATOM     14  H1  UNL     1      37.267  18.798  18.379  1.00  0.00     0.245 HD
ENDBRANCH  11  13
ENDBRANCH   1   7
BRANCH   3  15
HETATM   15  O2  UNL     1      36.965  22.729  25.061  1.00  0.00    -0.371 OA
ATOM     16  H2  UNL     1      36.344  22.334  24.461  1.00  0.00     0.212 HD
ENDBRANCH   3  15
BRANCH   5  17
HETATM   17  C9  UNL     1      37.111  23.695  21.556  1.00  0.00     0.224 C 
BRANCH  17  18
HETATM   18  O4  UNL     1      36.229  24.228  22.527  1.00  0.00    -0.396 OA
ATOM     19  H4  UNL     1      35.415  24.480  22.106  1.00  0.00     0.209 HD
ENDBRANCH  17  18
ENDBRANCH   5  17
TORSDOF 5
ENDMDL
MODEL 4
REMARK VINA RESULT: -5.844931947      2.821      4.647
REMARK  5 active torsions:
REMARK  status: ('A' for Active; 'I' for Inactive)
REMARK    1  A    between atoms: O1_1  and  N1_3 
REMARK    2  A    between atoms: C4_7  and  C5_8 
REMARK    3  A    between atoms: C7_10  and  O2_11 
REMARK    4  A    between atoms: C8_14  and  C9_15 
REMARK    5  A    between atoms: C9_15  and  O4_16 
ROOT
HETATM    1  C5  UNL     1      38.322  22.058  20.690  1.00  0.00     0.163 C 
HETATM    2  C6  UNL     1      39.027  20.937  19.913  1.00  0.00     0.097 C 
HETATM    3  C7  UNL     1      39.119  21.413  18.497  1.00  0.00     0.262 C 
HETATM    4  O3  UNL     1      38.055  22.080  18.017  1.00  0.00    -0.330 OA
HETATM    5  C8  UNL     1      37.159  22.638  18.859  1.00  0.00     0.287 C 
HETATM    6  O5  UNL     1      37.052  22.131  20.124  1.00  0.00    -0.349 OA
ENDROOT
BRANCH   1   7
HETATM    7  C4  UNL     1      38.226  21.702  22.132  1.00  0.00    -0.011 A 
HETATM    8  C3  UNL     1      38.068  20.394  22.538  1.00  0.00     0.012 A 
HETATM    9  C2  UNL     1      37.986  20.136  23.892  1.00  0.00     0.020 A 
HETATM   10  C1  UNL     1      38.064  21.184  24.788  1.00  0.00     0.122 A 
HETATM   11  N1  UNL     1      38.218  22.452  24.365  1.00  0.00    -0.247 N 
HETATM   12  C10 UNL     1      38.299  22.716  23.048  1.00  0.00     0.132 A 
BRANCH  11  13
HETATM   13  O1  UNL     1      38.298  23.511  25.259  1.00  0.00    -0.284 OA
ATOM     14  H1  UNL     1      38.067  24.397  25.002  1.00  0.00     0.245 HD
ENDBRANCH  11  13
ENDBRANCH   1   7
BRANCH   3  15
HETATM   15  O2  UNL     1      40.291  22.192  18.377  1.00  0.00    -0.371 OA
ATOM     16  H2  UNL     1      40.255  22.874  19.037  1.00  0.00     0.212 HD
ENDBRANCH   3  15
BRANCH   5  17
HETATM   17  C9  UNL     1      37.286  24.158  18.965  1.00  0.00     0.224 C 
BRANCH  17  18
HETATM   18  O4  UNL     1      36.335  24.766  18.110  1.00  0.00    -0.396 OA
ATOM     19  H4  UNL     1      35.764  25.324  18.624  1.00  0.00     0.209 HD
ENDBRANCH  17  18
ENDBRANCH   5  17
TORSDOF 5
ENDMDL
MODEL 5
REMARK VINA RESULT: -5.835498562      2.135      5.973
REMARK  5 active torsions:
REMARK  status: ('A' for Active; 'I' for Inactive)
REMARK    1  A    between atoms: O1_1  and  N1_3 
REMARK    2  A    between atoms: C4_7  and  C5_8 
REMARK    3  A    between atoms: C7_10  and  O2_11 
REMARK    4  A    between atoms: C8_14  and  C9_15 
REMARK    5  A    between atoms: C9_15  and  O4_16 
ROOT
HETATM    1  C5  UNL     1      37.965  18.444  22.022  1.00  0.00     0.163 C 
HETATM    2  C6  UNL     1      37.456  18.635  20.586  1.00  0.00     0.097 C 
HETATM    3  C7  UNL     1      37.301  17.260  20.017  1.00  0.00     0.262 C 
HETATM    4  O3  UNL     1      38.248  16.363  20.346  1.00  0.00    -0.330 OA
HETATM    5  C8  UNL     1      39.035  16.563  21.425  1.00  0.00     0.287 C 
HETATM    6  O5  UNL     1      39.211  17.841  21.874  1.00  0.00    -0.349 OA
ENDROOT
BRANCH   1   7
HETATM    7  C4  UNL     1      38.104  19.763  22.698  1.00  0.00    -0.011 A 
HETATM    8  C3  UNL     1      38.107  19.866  24.074  1.00  0.00     0.012 A 
HETATM    9  C2  UNL     1      38.239  21.120  24.633  1.00  0.00     0.020 A 
HETATM   10  C1  UNL     1      38.363  22.221  23.809  1.00  0.00     0.122 A 
HETATM   11  N1  UNL     1      38.356  22.093  22.470  1.00  0.00    -0.247 N 
HETATM   12  C10 UNL     1      38.228  20.875  21.911  1.00  0.00     0.132 A 
BRANCH  11  13
HETATM   13  O1  UNL     1      38.480  23.195  21.634  1.00  0.00    -0.284 OA
ATOM     14  H1  UNL     1      38.384  23.117  20.692  1.00  0.00     0.245 HD
ENDBRANCH  11  13
ENDBRANCH   1   7
BRANCH   3  15
HETATM   15  O2  UNL     1      36.021  16.784  20.375  1.00  0.00    -0.371 OA
ATOM     16  H2  UNL     1      35.758  16.141  19.728  1.00  0.00     0.212 HD
ENDBRANCH   3  15
BRANCH   5  17
HETATM   17  C9  UNL     1      38.664  15.684  22.620  1.00  0.00     0.224 C 
BRANCH  17  18
HETATM   18  O4  UNL     1      37.637  14.788  22.240  1.00  0.00    -0.396 OA
ATOM     19  H4  UNL     1      37.624  14.053  22.841  1.00  0.00     0.209 HD
ENDBRANCH  17  18
ENDBRANCH   5  17
TORSDOF 5
ENDMDL
