MODEL 1
REMARK VINA RESULT: -5.807422954      0.000      0.000
REMARK  3 active torsions:
REMARK  status: ('A' for Active; 'I' for Inactive)
REMARK    1  A    between atoms: O1_2  and  C2_3 
REMARK    2  A    between atoms: C4_5  and  C5_6 
REMARK    3  A    between atoms: C8_11  and  C10_13 
ROOT
HETATM    1  C2  UNL     1      -3.076   1.671   9.108  1.00  0.00     0.140 C 
HETATM    2  C3  UNL     1      -4.228   0.902   8.547  1.00  0.00     0.048 C 
HETATM    3  C4  UNL     1      -4.300  -0.523   9.016  1.00  0.00     0.089 C 
HETATM    4  C6  UNL     1      -4.183  -0.612  10.497  1.00  0.00     0.017 C 
HETATM    5  C7  UNL     1      -2.986   0.095  11.071  1.00  0.00     0.024 C 
HETATM    6  C8  UNL     1      -2.815   1.491  10.558  1.00  0.00     0.071 C 
HETATM    7  C9  UNL     1      -1.414   1.960  10.898  1.00  0.00     0.029 C 
ENDROOT
BRANCH   6   8
HETATM    8  C10 UNL     1      -3.752   2.338  11.327  1.00  0.00     0.184 C 
HETATM    9  O4  UNL     1      -3.299   3.351  11.902  1.00  0.00    -0.647 OA
HETATM   10  O5  UNL     1      -5.099   2.072  11.445  1.00  0.00    -0.647 OA
ENDBRANCH   6   8
BRANCH   1  11
HETATM   11  O1  UNL     1      -3.224   3.007   8.768  1.00  0.00    -0.389 OA
HETATM   12  C1  UNL     1      -3.934   3.111   7.592  1.00  0.00     0.202 C 
ENDBRANCH   1  11
BRANCH   3  13
HETATM   13  C5  UNL     1      -5.658  -1.055   8.664  1.00  0.00     0.177 C 
HETATM   14  O2  UNL     1      -6.623  -1.001   9.495  1.00  0.00    -0.648 OA
HETATM   15  O3  UNL     1      -5.912  -1.625   7.416  1.00  0.00    -0.648 OA
ENDBRANCH   3  13
TORSDOF 3
ENDMDL
MODEL 2
REMARK VINA RESULT: -5.700596012      1.811      4.578
REMARK  3 active torsions:
REMARK  status: ('A' for Active; 'I' for Inactive)
REMARK    1  A    between atoms: O1_2  and  C2_3 
REMARK    2  A    between atoms: C4_5  and  C5_6 
REMARK    3  A    between atoms: C8_11  and  C10_13 
ROOT
HETATM    1  C2  UNL     1      -5.152   1.067  10.642  1.00  0.00     0.140 C 
HETATM    2  C3  UNL     1      -4.130   2.151  10.746  1.00  0.00     0.048 C 
HETATM    3  C4  UNL     1      -2.917   1.775  11.549  1.00  0.00     0.089 C 
HETATM    4  C6  UNL     1      -2.362   0.467  11.109  1.00  0.00     0.017 C 
HETATM    5  C7  UNL     1      -3.364  -0.655  11.070  1.00  0.00     0.024 C 
HETATM    6  C8  UNL     1      -4.633  -0.295  10.362  1.00  0.00     0.071 C 
HETATM    7  C9  UNL     1      -5.683  -1.334  10.703  1.00  0.00     0.029 C 
ENDROOT
BRANCH   6   8
HETATM    8  C10 UNL     1      -4.356  -0.419   8.915  1.00  0.00     0.184 C 
HETATM    9  O4  UNL     1      -5.105  -1.149   8.230  1.00  0.00    -0.647 OA
HETATM   10  O5  UNL     1      -3.317   0.225   8.279  1.00  0.00    -0.647 OA
ENDBRANCH   6   8
BRANCH   1  11
HETATM   11  O1  UNL     1      -6.120   1.453   9.726  1.00  0.00    -0.389 OA
HETATM   12  C1  UNL     1      -7.290   1.756  10.387  1.00  0.00     0.202 C 
ENDBRANCH   1  11
BRANCH   3  13
HETATM   13  C5  UNL     1      -1.854   2.800  11.283  1.00  0.00     0.177 C 
HETATM   14  O2  UNL     1      -0.632   2.571  11.566  1.00  0.00    -0.648 OA
HETATM   15  O3  UNL     1      -2.164   4.037  10.718  1.00  0.00    -0.648 OA
ENDBRANCH   3  13
TORSDOF 3
ENDMDL
MODEL 3
REMARK VINA RESULT: -5.549918850      1.880      4.793
REMARK  3 active torsions:
REMARK  status: ('A' for Active; 'I' for Inactive)
REMARK    1  A    between atoms: O1_2  and  C2_3 
REMARK    2  A    between atoms: C4_5  and  C5_6 
REMARK    3  A    between atoms: C8_11  and  C10_13 
ROOT
HETATM    1  C2  UNL     1      -4.006   1.625  10.930  1.00  0.00     0.140 C 
HETATM    2  C3  UNL     1      -3.442   2.992  10.721  1.00  0.00     0.048 C 
HETATM    3  C4  UNL     1      -1.977   3.106  11.037  1.00  0.00     0.089 C 
HETATM    4  C6  UNL     1      -1.196   2.027  10.376  1.00  0.00     0.017 C 
HETATM    5  C7  UNL     1      -1.707   0.636  10.638  1.00  0.00     0.024 C 
HETATM    6  C8  UNL     1      -3.183   0.496  10.429  1.00  0.00     0.071 C 
HETATM    7  C9  UNL     1      -3.636  -0.803  11.067  1.00  0.00     0.029 C 
ENDROOT
BRANCH   6   8
HETATM    8  C10 UNL     1      -3.390   0.356   8.972  1.00  0.00     0.184 C 
HETATM    9  O4  UNL     1      -3.906  -0.699   8.546  1.00  0.00    -0.647 OA
HETATM   10  O5  UNL     1      -3.043   1.326   8.056  1.00  0.00    -0.647 OA
ENDBRANCH   6   8
BRANCH   1  11
HETATM   11  O1  UNL     1      -5.297   1.593  10.424  1.00  0.00    -0.389 OA
HETATM   12  C1  UNL     1      -6.202   1.703  11.456  1.00  0.00     0.202 C 
ENDBRANCH   1  11
BRANCH   3  13
HETATM   13  C5  UNL     1      -1.483   4.402  10.465  1.00  0.00     0.177 C 
HETATM   14  O2  UNL     1      -2.294   5.271  10.005  1.00  0.00    -0.648 OA
HETATM   15  O3  UNL     1      -0.122   4.702  10.418  1.00  0.00    -0.648 OA
ENDBRANCH   3  13
TORSDOF 3
ENDMDL
MODEL 4
REMARK VINA RESULT: -5.329608528      1.944      4.428
REMARK  3 active torsions:
REMARK  status: ('A' for Active; 'I' for Inactive)
REMARK    1  A    between atoms: O1_2  and  C2_3 
REMARK    2  A    between atoms: C4_5  and  C5_6 
REMARK    3  A    between atoms: C8_11  and  C10_13 
ROOT
HETATM    1  C2  UNL     1      -4.172   1.389   8.935  1.00  0.00     0.140 C 
HETATM    2  C3  UNL     1      -2.820   1.941   9.250  1.00  0.00     0.048 C 
HETATM    3  C4  UNL     1      -2.813   2.942  10.371  1.00  0.00     0.089 C 
HETATM    4  C6  UNL     1      -3.544   2.428  11.560  1.00  0.00     0.017 C 
HETATM    5  C7  UNL     1      -4.937   1.937  11.271  1.00  0.00     0.024 C 
HETATM    6  C8  UNL     1      -5.010   1.009  10.099  1.00  0.00     0.071 C 
HETATM    7  C9  UNL     1      -6.461   0.881   9.678  1.00  0.00     0.029 C 
ENDROOT
BRANCH   6   8
HETATM    8  C10 UNL     1      -4.584  -0.320  10.588  1.00  0.00     0.184 C 
HETATM    9  O4  UNL     1      -5.444  -1.222  10.677  1.00  0.00    -0.647 OA
HETATM   10  O5  UNL     1      -3.288  -0.619  10.952  1.00  0.00    -0.647 OA
ENDBRANCH   6   8
BRANCH   1  11
HETATM   11  O1  UNL     1      -4.027   0.345   8.034  1.00  0.00    -0.389 OA
HETATM   12  C1  UNL     1      -2.865   0.510   7.314  1.00  0.00     0.202 C 
ENDBRANCH   1  11
BRANCH   3  13
HETATM   13  C5  UNL     1      -1.390   3.142  10.800  1.00  0.00     0.177 C 
HETATM   14  O2  UNL     1      -0.861   2.404  11.694  1.00  0.00    -0.648 OA
HETATM   15  O3  UNL     1      -0.595   4.141  10.236  1.00  0.00    -0.648 OA
ENDBRANCH   3  13
TORSDOF 3
ENDMDL
MODEL 5
REMARK VINA RESULT: -5.276216555      2.793      5.312
REMARK  3 active torsions:
REMARK  status: ('A' for Active; 'I' for Inactive)
REMARK    1  A    between atoms: O1_2  and  C2_3 
REMARK    2  A    between atoms: C4_5  and  C5_6 
REMARK    3  A    between atoms: C8_11  and  C10_13 
ROOT
HETATM    1  C2  UNL     1      -2.920   3.159  10.528  1.00  0.00     0.140 C 
HETATM    2  C3  UNL     1      -2.800   4.226   9.489  1.00  0.00     0.048 C 
HETATM    3  C4  UNL     1      -1.679   5.196   9.733  1.00  0.00     0.089 C 
HETATM    4  C6  UNL     1      -0.402   4.487  10.014  1.00  0.00     0.017 C 
HETATM    5  C7  UNL     1      -0.487   3.460  11.110  1.00  0.00     0.024 C 
HETATM    6  C8  UNL     1      -1.649   2.527  10.963  1.00  0.00     0.071 C 
HETATM    7  C9  UNL     1      -1.852   1.802  12.279  1.00  0.00     0.029 C 
ENDROOT
BRANCH   6   8
HETATM    8  C10 UNL     1      -1.249   1.511   9.968  1.00  0.00     0.184 C 
HETATM    9  O4  UNL     1      -0.045   1.179   9.911  1.00  0.00    -0.647 OA
HETATM   10  O5  UNL     1      -2.130   0.908   9.096  1.00  0.00    -0.647 OA
ENDBRANCH   6   8
BRANCH   1  11
HETATM   11  O1  UNL     1      -3.847   2.222  10.099  1.00  0.00    -0.389 OA
HETATM   12  C1  UNL     1      -4.863   2.118  11.022  1.00  0.00     0.202 C 
ENDBRANCH   1  11
BRANCH   3  13
HETATM   13  C5  UNL     1      -1.463   5.977   8.470  1.00  0.00     0.177 C 
HETATM   14  O2  UNL     1      -1.973   5.596   7.365  1.00  0.00    -0.648 OA
HETATM   15  O3  UNL     1      -0.700   7.145   8.460  1.00  0.00    -0.648 OA
ENDBRANCH   3  13
TORSDOF 3
ENDMDL
