MODEL 1
REMARK VINA RESULT: -7.916920257      0.000      0.000
REMARK  5 active torsions:
REMARK  status: ('A' for Active; 'I' for Inactive)
REMARK    1  A    between atoms: C5_6  and  N1_7 
REMARK    2  A    between atoms: N1_7  and  C6_9 
REMARK    3  A    between atoms: C8_13  and  C9_14 
REMARK    4  A    between atoms: C12_22  and  N4_23 
REMARK    5  A    between atoms: N4_23  and  C13_25 
ROOT
HETATM    1  C1  UNL     1       8.587 -17.997  26.516  1.00  0.00     0.043 C 
HETATM    2  C2  UNL     1       8.475 -17.997  25.032  1.00  0.00     0.173 C 
HETATM    3  O1  UNL     1       7.182 -18.000  24.546  1.00  0.00    -0.348 OA
HETATM    4  C3  UNL     1       6.889 -19.287  24.118  1.00  0.00     0.363 C 
HETATM    5  C4  UNL     1       5.670 -19.756  24.852  1.00  0.00     0.089 C 
HETATM    6  C5  UNL     1       5.672 -21.225  25.145  1.00  0.00     0.089 C 
HETATM    7  C10 UNL     1       6.949 -21.396  26.005  1.00  0.00     0.055 C 
HETATM    8  C11 UNL     1       8.097 -21.196  25.068  1.00  0.00     0.280 C 
HETATM    9  N3  UNL     1       8.060 -20.073  24.227  1.00  0.00     0.142 N 
HETATM   10  C12 UNL     1       9.185 -19.191  24.427  1.00  0.00     0.355 C 
ENDROOT
BRANCH   6  11
HETATM   11  N1  UNL     1       4.552 -21.633  25.877  1.00  0.00    -0.366 N 
ATOM     12  H1  UNL     1       4.269 -21.003  26.627  1.00  0.00     0.162 HD
BRANCH  11  13
HETATM   13  C6  UNL     1       3.819 -22.699  25.741  1.00  0.00     0.145 A 
HETATM   14  N2  UNL     1       2.613 -22.977  26.275  1.00  0.00    -0.345 N 
HETATM   15  C7  UNL     1       2.009 -24.080  25.921  1.00  0.00     0.114 A 
ATOM     16  H2  UNL     1       2.180 -22.338  26.943  1.00  0.00     0.167 HD
HETATM   17  C8  UNL     1       2.646 -24.887  25.018  1.00  0.00     0.107 A 
HETATM   18  S1  UNL     1       4.086 -24.042  24.711  1.00  0.00    -0.048 SA
BRANCH  17  19
HETATM   19  C9  UNL     1       2.144 -26.189  24.436  1.00  0.00     0.425 C 
HETATM   20  F1  UNL     1       2.976 -27.225  24.818  1.00  0.00    -0.165 F 
HETATM   21  F2  UNL     1       0.859 -26.363  24.812  1.00  0.00    -0.165 F 
HETATM   22  F3  UNL     1       2.215 -26.041  23.078  1.00  0.00    -0.165 F 
ENDBRANCH  17  19
ENDBRANCH  11  13
ENDBRANCH   6  11
BRANCH  10  23
HETATM   23  N4  UNL     1       9.747 -18.738  23.161  1.00  0.00    -0.339 N 
ATOM     24  H4  UNL     1       9.216 -18.146  22.523  1.00  0.00     0.163 HD
BRANCH  23  25
HETATM   25  C13 UNL     1      10.969 -19.127  22.877  1.00  0.00     0.145 A 
HETATM   26  N5  UNL     1      11.910 -18.509  22.161  1.00  0.00    -0.346 N 
HETATM   27  C14 UNL     1      13.047 -19.083  21.941  1.00  0.00     0.097 A 
ATOM     28  H5  UNL     1      11.731 -17.578  21.785  1.00  0.00     0.167 HD
HETATM   29  C15 UNL     1      13.249 -20.335  22.473  1.00  0.00     0.070 A 
HETATM   30  S2  UNL     1      11.753 -20.626  23.275  1.00  0.00    -0.065 SA
ENDBRANCH  23  25
ENDBRANCH  10  23
TORSDOF 5
ENDMDL
MODEL 2
REMARK VINA RESULT: -7.178659161      4.690      8.835
REMARK  5 active torsions:
REMARK  status: ('A' for Active; 'I' for Inactive)
REMARK    1  A    between atoms: C5_6  and  N1_7 
REMARK    2  A    between atoms: N1_7  and  C6_9 
REMARK    3  A    between atoms: C8_13  and  C9_14 
REMARK    4  A    between atoms: C12_22  and  N4_23 
REMARK    5  A    between atoms: N4_23  and  C13_25 
ROOT
HETATM    1  C1  UNL     1       6.940 -22.993  23.270  1.00  0.00     0.043 C 
HETATM    2  C2  UNL     1       5.601 -22.344  23.258  1.00  0.00     0.173 C 
HETATM    3  O1  UNL     1       5.615 -20.985  23.010  1.00  0.00    -0.348 OA
HETATM    4  C3  UNL     1       5.424 -20.327  24.216  1.00  0.00     0.363 C 
HETATM    5  C4  UNL     1       6.583 -19.402  24.431  1.00  0.00     0.089 C 
HETATM    6  C5  UNL     1       6.970 -19.247  25.870  1.00  0.00     0.089 C 
HETATM    7  C10 UNL     1       7.323 -20.697  26.282  1.00  0.00     0.055 C 
HETATM    8  C11 UNL     1       6.023 -21.434  26.319  1.00  0.00     0.280 C 
HETATM    9  N3  UNL     1       5.166 -21.294  25.217  1.00  0.00     0.142 N 
HETATM   10  C12 UNL     1       4.878 -22.552  24.572  1.00  0.00     0.355 C 
ENDROOT
BRANCH   6  11
HETATM   11  N1  UNL     1       8.086 -18.421  26.044  1.00  0.00    -0.366 N 
ATOM     12  H1  UNL     1       8.110 -17.898  26.919  1.00  0.00     0.162 HD
BRANCH  11  13
HETATM   13  C6  UNL     1       9.099 -18.223  25.253  1.00  0.00     0.145 A 
HETATM   14  N2  UNL     1       9.981 -17.203  25.236  1.00  0.00    -0.345 N 
HETATM   15  C7  UNL     1      10.989 -17.258  24.407  1.00  0.00     0.114 A 
ATOM     16  H2  UNL     1       9.862 -16.404  25.859  1.00  0.00     0.167 HD
HETATM   17  C8  UNL     1      11.086 -18.362  23.604  1.00  0.00     0.107 A 
HETATM   18  S1  UNL     1       9.733 -19.279  24.061  1.00  0.00    -0.048 SA
BRANCH  17  19
HETATM   19  C9  UNL     1      12.168 -18.669  22.593  1.00  0.00     0.425 C 
HETATM   20  F1  UNL     1      12.663 -19.942  22.809  1.00  0.00    -0.165 F 
HETATM   21  F2  UNL     1      11.664 -18.491  21.353  1.00  0.00    -0.165 F 
HETATM   22  F3  UNL     1      13.164 -17.762  22.826  1.00  0.00    -0.165 F 
ENDBRANCH  17  19
ENDBRANCH  11  13
ENDBRANCH   6  11
BRANCH  10  23
HETATM   23  N4  UNL     1       3.462 -22.680  24.248  1.00  0.00    -0.339 N 
ATOM     24  H4  UNL     1       2.944 -21.918  23.812  1.00  0.00     0.163 HD
BRANCH  23  25
HETATM   25  C13 UNL     1       2.882 -23.821  24.544  1.00  0.00     0.145 A 
HETATM   26  N5  UNL     1       2.811 -24.945  23.830  1.00  0.00    -0.346 N 
HETATM   27  C14 UNL     1       2.138 -25.958  24.270  1.00  0.00     0.097 A 
ATOM     28  H5  UNL     1       3.290 -25.006  22.932  1.00  0.00     0.167 HD
HETATM   29  C15 UNL     1       1.514 -25.835  25.489  1.00  0.00     0.070 A 
HETATM   30  S2  UNL     1       1.935 -24.229  25.943  1.00  0.00    -0.065 SA
ENDBRANCH  23  25
ENDBRANCH  10  23
TORSDOF 5
ENDMDL
MODEL 3
REMARK VINA RESULT: -6.957118884      1.502      1.775
REMARK  5 active torsions:
REMARK  status: ('A' for Active; 'I' for Inactive)
REMARK    1  A    between atoms: C5_6  and  N1_7 
REMARK    2  A    between atoms: N1_7  and  C6_9 
REMARK    3  A    between atoms: C8_13  and  C9_14 
REMARK    4  A    between atoms: C12_22  and  N4_23 
REMARK    5  A    between atoms: N4_23  and  C13_25 
ROOT
HETATM    1  C1  UNL     1       7.215 -20.724  27.019  1.00  0.00     0.043 C 
HETATM    2  C2  UNL     1       7.325 -19.473  26.221  1.00  0.00     0.173 C 
HETATM    3  O1  UNL     1       6.119 -18.913  25.847  1.00  0.00    -0.348 OA
HETATM    4  C3  UNL     1       5.903 -19.214  24.511  1.00  0.00     0.363 C 
HETATM    5  C4  UNL     1       4.593 -19.931  24.400  1.00  0.00     0.089 C 
HETATM    6  C5  UNL     1       4.563 -20.968  23.318  1.00  0.00     0.089 C 
HETATM    7  C10 UNL     1       5.699 -21.931  23.743  1.00  0.00     0.055 C 
HETATM    8  C11 UNL     1       6.972 -21.181  23.513  1.00  0.00     0.280 C 
HETATM    9  N3  UNL     1       7.051 -19.870  24.008  1.00  0.00     0.142 N 
HETATM   10  C12 UNL     1       8.126 -19.698  24.955  1.00  0.00     0.355 C 
ENDROOT
BRANCH   6  11
HETATM   11  N1  UNL     1       3.350 -21.663  23.266  1.00  0.00    -0.366 N 
ATOM     12  H1  UNL     1       2.664 -21.293  22.608  1.00  0.00     0.162 HD
BRANCH  11  13
HETATM   13  C6  UNL     1       2.969 -22.711  23.935  1.00  0.00     0.145 A 
HETATM   14  N2  UNL     1       2.425 -22.784  25.167  1.00  0.00    -0.345 N 
HETATM   15  C7  UNL     1       2.024 -23.947  25.608  1.00  0.00     0.114 A 
ATOM     16  H2  UNL     1       2.329 -21.948  25.743  1.00  0.00     0.167 HD
HETATM   17  C8  UNL     1       2.181 -25.024  24.780  1.00  0.00     0.107 A 
HETATM   18  S1  UNL     1       2.898 -24.338  23.403  1.00  0.00    -0.048 SA
BRANCH  17  19
HETATM   19  C9  UNL     1       1.772 -26.455  25.047  1.00  0.00     0.425 C 
HETATM   20  F1  UNL     1       2.804 -27.309  24.703  1.00  0.00    -0.165 F 
HETATM   21  F2  UNL     1       1.393 -26.562  26.339  1.00  0.00    -0.165 F 
HETATM   22  F3  UNL     1       0.705 -26.697  24.228  1.00  0.00    -0.165 F 
ENDBRANCH  17  19
ENDBRANCH  11  13
ENDBRANCH   6  11
BRANCH  10  23
HETATM   23  N4  UNL     1       8.868 -18.466  24.712  1.00  0.00    -0.339 N 
ATOM     24  H4  UNL     1       8.508 -17.560  25.011  1.00  0.00     0.163 HD
BRANCH  23  25
HETATM   25  C13 UNL     1      10.019 -18.575  24.090  1.00  0.00     0.145 A 
HETATM   26  N5  UNL     1      10.962 -17.654  23.886  1.00  0.00    -0.346 N 
HETATM   27  C14 UNL     1      12.016 -17.939  23.193  1.00  0.00     0.097 A 
ATOM     28  H5  UNL     1      10.851 -16.720  24.280  1.00  0.00     0.167 HD
HETATM   29  C15 UNL     1      12.128 -19.212  22.688  1.00  0.00     0.070 A 
HETATM   30  S2  UNL     1      10.675 -19.947  23.247  1.00  0.00    -0.065 SA
ENDBRANCH  23  25
ENDBRANCH  10  23
TORSDOF 5
ENDMDL
MODEL 4
REMARK VINA RESULT: -6.688260137      5.517      9.071
REMARK  5 active torsions:
REMARK  status: ('A' for Active; 'I' for Inactive)
REMARK    1  A    between atoms: C5_6  and  N1_7 
REMARK    2  A    between atoms: N1_7  and  C6_9 
REMARK    3  A    between atoms: C8_13  and  C9_14 
REMARK    4  A    between atoms: C12_22  and  N4_23 
REMARK    5  A    between atoms: N4_23  and  C13_25 
ROOT
HETATM    1  C1  UNL     1       3.304 -22.473  25.780  1.00  0.00     0.043 C 
HETATM    2  C2  UNL     1       3.303 -22.477  24.293  1.00  0.00     0.173 C 
HETATM    3  O1  UNL     1       4.535 -22.702  23.710  1.00  0.00    -0.348 OA
HETATM    4  C3  UNL     1       5.025 -21.485  23.259  1.00  0.00     0.363 C 
HETATM    5  C4  UNL     1       6.359 -21.252  23.898  1.00  0.00     0.089 C 
HETATM    6  C5  UNL     1       6.645 -19.810  24.187  1.00  0.00     0.089 C 
HETATM    7  C10 UNL     1       5.488 -19.422  25.141  1.00  0.00     0.055 C 
HETATM    8  C11 UNL     1       4.257 -19.400  24.293  1.00  0.00     0.280 C 
HETATM    9  N3  UNL     1       4.026 -20.501  23.454  1.00  0.00     0.142 N 
HETATM   10  C12 UNL     1       2.779 -21.167  23.740  1.00  0.00     0.355 C 
ENDROOT
BRANCH   6  11
HETATM   11  N1  UNL     1       7.872 -19.620  24.832  1.00  0.00    -0.366 N 
ATOM     12  H1  UNL     1       7.892 -19.882  25.817  1.00  0.00     0.162 HD
BRANCH  11  13
HETATM   13  C6  UNL     1       8.992 -19.158  24.358  1.00  0.00     0.145 A 
HETATM   14  N2  UNL     1       9.802 -18.206  24.862  1.00  0.00    -0.345 N 
HETATM   15  C7  UNL     1      10.938 -17.966  24.263  1.00  0.00     0.114 A 
ATOM     16  H2  UNL     1       9.532 -17.682  25.695  1.00  0.00     0.167 HD
HETATM   17  C8  UNL     1      11.236 -18.710  23.154  1.00  0.00     0.107 A 
HETATM   18  S1  UNL     1       9.881 -19.720  23.005  1.00  0.00    -0.048 SA
BRANCH  17  19
HETATM   19  C9  UNL     1      12.490 -18.641  22.313  1.00  0.00     0.425 C 
HETATM   20  F1  UNL     1      13.249 -19.780  22.509  1.00  0.00    -0.165 F 
HETATM   21  F2  UNL     1      12.136 -18.445  21.025  1.00  0.00    -0.165 F 
HETATM   22  F3  UNL     1      13.188 -17.559  22.773  1.00  0.00    -0.165 F 
ENDBRANCH  17  19
ENDBRANCH  11  13
ENDBRANCH   6  11
BRANCH  10  23
HETATM   23  N4  UNL     1       2.051 -21.496  22.521  1.00  0.00    -0.339 N 
ATOM     24  H4  UNL     1       2.037 -22.445  22.148  1.00  0.00     0.163 HD
BRANCH  23  25
HETATM   25  C13 UNL     1       1.413 -20.516  21.923  1.00  0.00     0.145 A 
HETATM   26  N5  UNL     1       0.692 -19.527  22.452  1.00  0.00    -0.346 N 
HETATM   27  C14 UNL     1       0.085 -18.678  21.688  1.00  0.00     0.097 A 
ATOM     28  H5  UNL     1       0.618 -19.440  23.466  1.00  0.00     0.167 HD
HETATM   29  C15 UNL     1       0.217 -18.828  20.328  1.00  0.00     0.070 A 
HETATM   30  S2  UNL     1       1.227 -20.218  20.220  1.00  0.00    -0.065 SA
ENDBRANCH  23  25
ENDBRANCH  10  23
TORSDOF 5
ENDMDL
MODEL 5
REMARK VINA RESULT: -6.642875319      1.536      2.190
REMARK  5 active torsions:
REMARK  status: ('A' for Active; 'I' for Inactive)
REMARK    1  A    between atoms: C5_6  and  N1_7 
REMARK    2  A    between atoms: N1_7  and  C6_9 
REMARK    3  A    between atoms: C8_13  and  C9_14 
REMARK    4  A    between atoms: C12_22  and  N4_23 
REMARK    5  A    between atoms: N4_23  and  C13_25 
ROOT
HETATM    1  C1  UNL     1       8.428 -22.239  22.580  1.00  0.00     0.043 C 
HETATM    2  C2  UNL     1       9.096 -21.609  23.750  1.00  0.00     0.173 C 
HETATM    3  O1  UNL     1       8.682 -22.081  24.980  1.00  0.00    -0.348 OA
HETATM    4  C3  UNL     1       7.826 -21.140  25.534  1.00  0.00     0.363 C 
HETATM    5  C4  UNL     1       6.521 -21.815  25.828  1.00  0.00     0.089 C 
HETATM    6  C5  UNL     1       5.329 -20.922  25.656  1.00  0.00     0.089 C 
HETATM    7  C10 UNL     1       5.429 -20.512  24.165  1.00  0.00     0.055 C 
HETATM    8  C11 UNL     1       6.605 -19.593  24.077  1.00  0.00     0.280 C 
HETATM    9  N3  UNL     1       7.799 -20.007  24.688  1.00  0.00     0.142 N 
HETATM   10  C12 UNL     1       8.895 -20.107  23.755  1.00  0.00     0.355 C 
ENDROOT
BRANCH   6  11
HETATM   11  N1  UNL     1       4.119 -21.585  25.883  1.00  0.00    -0.366 N 
ATOM     12  H1  UNL     1       3.471 -21.107  26.509  1.00  0.00     0.162 HD
BRANCH  11  13
HETATM   13  C6  UNL     1       3.698 -22.722  25.413  1.00  0.00     0.145 A 
HETATM   14  N2  UNL     1       4.273 -23.531  24.501  1.00  0.00    -0.345 N 
HETATM   15  C7  UNL     1       3.716 -24.685  24.246  1.00  0.00     0.114 A 
ATOM     16  H2  UNL     1       5.125 -23.247  24.018  1.00  0.00     0.167 HD
HETATM   17  C8  UNL     1       2.577 -25.002  24.934  1.00  0.00     0.107 A 
HETATM   18  S1  UNL     1       2.340 -23.638  25.915  1.00  0.00    -0.048 SA
BRANCH  17  19
HETATM   19  C9  UNL     1       1.772 -26.279  24.839  1.00  0.00     0.425 C 
HETATM   20  F1  UNL     1       1.388 -26.686  26.103  1.00  0.00    -0.165 F 
HETATM   21  F2  UNL     1       0.733 -26.073  24.000  1.00  0.00    -0.165 F 
HETATM   22  F3  UNL     1       2.618 -27.214  24.311  1.00  0.00    -0.165 F 
ENDBRANCH  17  19
ENDBRANCH  11  13
ENDBRANCH   6  11
BRANCH  10  23
HETATM   23  N4  UNL     1      10.119 -19.529  24.296  1.00  0.00    -0.339 N 
ATOM     24  H4  UNL     1      10.175 -19.209  25.263  1.00  0.00     0.163 HD
BRANCH  23  25
HETATM   25  C13 UNL     1      11.147 -19.438  23.484  1.00  0.00     0.145 A 
HETATM   26  N5  UNL     1      11.485 -18.451  22.653  1.00  0.00    -0.346 N 
HETATM   27  C14 UNL     1      12.516 -18.570  21.881  1.00  0.00     0.097 A 
ATOM     28  H5  UNL     1      10.927 -17.597  22.626  1.00  0.00     0.167 HD
HETATM   29  C15 UNL     1      13.244 -19.733  21.955  1.00  0.00     0.070 A 
HETATM   30  S2  UNL     1      12.382 -20.616  23.156  1.00  0.00    -0.065 SA
ENDBRANCH  23  25
ENDBRANCH  10  23
TORSDOF 5
ENDMDL
