MODEL 1
REMARK VINA RESULT: -3.792714585      0.000      0.000
REMARK  4 active torsions:
REMARK  status: ('A' for Active; 'I' for Inactive)
REMARK    1  A    between atoms: N1_1  and  C1_4 
REMARK    2  A    between atoms: N4_11  and  C3_12 
REMARK    3  A    between atoms: C3_12  and  N5_14 
REMARK    4  A    between atoms: N5_14  and  N6_16 
ROOT
HETATM    1  C1  UNL     1      18.107   6.534  24.454  1.00  0.00     0.703 A 
HETATM    2  N2  UNL     1      16.918   6.913  23.937  1.00  0.00    -0.138 N 
ATOM      3  H2  UNL     1      16.755   7.305  23.009  1.00  0.00     0.189 HD
HETATM    4  C2  UNL     1      15.986   6.673  24.884  1.00  0.00     0.354 A 
HETATM    5  O1  UNL     1      14.732   6.894  24.786  1.00  0.00    -0.245 OA
HETATM    6  N3  UNL     1      16.636   6.157  25.943  1.00  0.00    -0.227 N 
ATOM      7  H3  UNL     1      16.190   5.875  26.816  1.00  0.00     0.193 HD
HETATM    8  N4  UNL     1      17.933   6.065  25.699  1.00  0.00    -0.054 N 
ENDROOT
BRANCH   8   9
HETATM    9  C3  UNL     1      18.960   5.564  26.583  1.00  0.00     0.229 C 
HETATM   10  S1  UNL     1      19.540   6.496  27.792  1.00  0.00    -0.037 SA
BRANCH   9  11
HETATM   11  N5  UNL     1      19.482   4.263  26.423  1.00  0.00    -0.281 N 
ATOM     12  H5  UNL     1      20.385   4.027  26.837  1.00  0.00     0.189 HD
BRANCH  11  13
HETATM   13  N6  UNL     1      18.793   3.314  25.720  1.00  0.00    -0.343 N 
ATOM     14  H62 UNL     1      18.195   3.615  24.950  1.00  0.00     0.176 HD
ATOM     15  H61 UNL     1      18.874   2.326  25.959  1.00  0.00     0.176 HD
ENDBRANCH  11  13
ENDBRANCH   9  11
ENDBRANCH   8   9
BRANCH   1  16
HETATM   16  N1  UNL     1      19.254   6.612  23.837  1.00  0.00    -0.233 N 
ATOM     17  H12 UNL     1      19.384   6.952  22.884  1.00  0.00     0.174 HD
ATOM     18  H11 UNL     1      20.154   6.343  24.233  1.00  0.00     0.174 HD
ENDBRANCH   1  16
TORSDOF 4
ENDMDL
MODEL 2
REMARK VINA RESULT: -3.504522528      7.715      9.438
REMARK  4 active torsions:
REMARK  status: ('A' for Active; 'I' for Inactive)
REMARK    1  A    between atoms: N1_1  and  C1_4 
REMARK    2  A    between atoms: N4_11  and  C3_12 
REMARK    3  A    between atoms: C3_12  and  N5_14 
REMARK    4  A    between atoms: N5_14  and  N6_16 
ROOT
HETATM    1  C1  UNL     1      10.938   9.233  26.343  1.00  0.00     0.703 A 
HETATM    2  N2  UNL     1      12.002   8.529  25.898  1.00  0.00    -0.138 N 
ATOM      3  H2  UNL     1      12.884   8.383  26.391  1.00  0.00     0.189 HD
HETATM    4  C2  UNL     1      11.675   8.057  24.676  1.00  0.00     0.354 A 
HETATM    5  O1  UNL     1      12.413   7.341  23.918  1.00  0.00    -0.245 OA
HETATM    6  N3  UNL     1      10.426   8.487  24.418  1.00  0.00    -0.227 N 
ATOM      7  H3  UNL     1       9.909   8.284  23.562  1.00  0.00     0.193 HD
HETATM    8  N4  UNL     1       9.960   9.207  25.424  1.00  0.00    -0.054 N 
ENDROOT
BRANCH   8   9
HETATM    9  C3  UNL     1       8.665   9.839  25.526  1.00  0.00     0.229 C 
HETATM   10  S1  UNL     1       7.503   9.201  26.479  1.00  0.00    -0.037 SA
BRANCH   9  11
HETATM   11  N5  UNL     1       8.376  11.019  24.807  1.00  0.00    -0.281 N 
ATOM     12  H5  UNL     1       8.471  11.027  23.791  1.00  0.00     0.189 HD
BRANCH  11  13
HETATM   13  N6  UNL     1       7.971  12.152  25.457  1.00  0.00    -0.343 N 
ATOM     14  H62 UNL     1       8.612  12.943  25.505  1.00  0.00     0.176 HD
ATOM     15  H61 UNL     1       7.047  12.205  25.884  1.00  0.00     0.176 HD
ENDBRANCH  11  13
ENDBRANCH   9  11
ENDBRANCH   8   9
BRANCH   1  16
HETATM   16  N1  UNL     1      10.870   9.847  27.492  1.00  0.00    -0.233 N 
ATOM     17  H12 UNL     1      11.594  10.455  27.874  1.00  0.00     0.174 HD
ATOM     18  H11 UNL     1      10.087   9.790  28.143  1.00  0.00     0.174 HD
ENDBRANCH   1  16
TORSDOF 4
ENDMDL
MODEL 3
REMARK VINA RESULT: -3.459888288      7.440      9.243
REMARK  4 active torsions:
REMARK  status: ('A' for Active; 'I' for Inactive)
REMARK    1  A    between atoms: N1_1  and  C1_4 
REMARK    2  A    between atoms: N4_11  and  C3_12 
REMARK    3  A    between atoms: C3_12  and  N5_14 
REMARK    4  A    between atoms: N5_14  and  N6_16 
ROOT
HETATM    1  C1  UNL     1      10.271   7.977  26.184  1.00  0.00     0.703 A 
HETATM    2  N2  UNL     1      11.214   7.091  25.795  1.00  0.00    -0.138 N 
ATOM      3  H2  UNL     1      11.455   6.215  26.261  1.00  0.00     0.189 HD
HETATM    4  C2  UNL     1      11.777   7.587  24.672  1.00  0.00     0.354 A 
HETATM    5  O1  UNL     1      12.713   7.046  23.991  1.00  0.00    -0.245 OA
HETATM    6  N3  UNL     1      11.160   8.754  24.415  1.00  0.00    -0.227 N 
ATOM      7  H3  UNL     1      11.375   9.361  23.623  1.00  0.00     0.193 HD
HETATM    8  N4  UNL     1      10.238   9.010  25.327  1.00  0.00    -0.054 N 
ENDROOT
BRANCH   8   9
HETATM    9  C3  UNL     1       9.367  10.160  25.398  1.00  0.00     0.229 C 
HETATM   10  S1  UNL     1       9.541  11.260  26.592  1.00  0.00    -0.037 SA
BRANCH   9  11
HETATM   11  N5  UNL     1       8.350  10.359  24.440  1.00  0.00    -0.281 N 
ATOM     12  H5  UNL     1       8.433   9.928  23.519  1.00  0.00     0.189 HD
BRANCH  11  13
HETATM   13  N6  UNL     1       7.254  11.122  24.732  1.00  0.00    -0.343 N 
ATOM     14  H62 UNL     1       6.483  10.695  25.244  1.00  0.00     0.176 HD
ATOM     15  H61 UNL     1       7.207  12.099  24.444  1.00  0.00     0.176 HD
ENDBRANCH  11  13
ENDBRANCH   9  11
ENDBRANCH   8   9
BRANCH   1  16
HETATM   16  N1  UNL     1       9.508   7.850  27.234  1.00  0.00    -0.233 N 
ATOM     17  H12 UNL     1       9.301   8.594  27.900  1.00  0.00     0.174 HD
ATOM     18  H11 UNL     1       9.030   6.994  27.512  1.00  0.00     0.174 HD
ENDBRANCH   1  16
TORSDOF 4
ENDMDL
MODEL 4
REMARK VINA RESULT: -3.454280815      2.284      2.825
REMARK  4 active torsions:
REMARK  status: ('A' for Active; 'I' for Inactive)
REMARK    1  A    between atoms: N1_1  and  C1_4 
REMARK    2  A    between atoms: N4_11  and  C3_12 
REMARK    3  A    between atoms: C3_12  and  N5_14 
REMARK    4  A    between atoms: N5_14  and  N6_16 
ROOT
HETATM    1  C1  UNL     1      15.672   7.056  24.518  1.00  0.00     0.703 A 
HETATM    2  N2  UNL     1      14.657   7.283  23.655  1.00  0.00    -0.138 N 
ATOM      3  H2  UNL     1      14.735   7.430  22.648  1.00  0.00     0.189 HD
HETATM    4  C2  UNL     1      13.518   7.276  24.381  1.00  0.00     0.354 A 
HETATM    5  O1  UNL     1      12.335   7.454  23.935  1.00  0.00    -0.245 OA
HETATM    6  N3  UNL     1      13.877   7.047  25.657  1.00  0.00    -0.227 N 
ATOM      7  H3  UNL     1      13.225   6.987  26.440  1.00  0.00     0.193 HD
HETATM    8  N4  UNL     1      15.187   6.910  25.761  1.00  0.00    -0.054 N 
ENDROOT
BRANCH   8   9
HETATM    9  C3  UNL     1      15.953   6.655  26.959  1.00  0.00     0.229 C 
HETATM   10  S1  UNL     1      16.135   7.820  28.090  1.00  0.00    -0.037 SA
BRANCH   9  11
HETATM   11  N5  UNL     1      16.558   5.399  27.179  1.00  0.00    -0.281 N 
ATOM     12  H5  UNL     1      15.983   4.606  27.465  1.00  0.00     0.189 HD
BRANCH  11  13
HETATM   13  N6  UNL     1      17.905   5.234  27.015  1.00  0.00    -0.343 N 
ATOM     14  H62 UNL     1      18.448   6.003  26.625  1.00  0.00     0.176 HD
ATOM     15  H61 UNL     1      18.358   4.358  27.277  1.00  0.00     0.176 HD
ENDBRANCH  11  13
ENDBRANCH   9  11
ENDBRANCH   8   9
BRANCH   1  16
HETATM   16  N1  UNL     1      16.933   6.990  24.193  1.00  0.00    -0.233 N 
ATOM     17  H12 UNL     1      17.349   7.426  23.370  1.00  0.00     0.174 HD
ATOM     18  H11 UNL     1      17.651   6.494  24.722  1.00  0.00     0.174 HD
ENDBRANCH   1  16
TORSDOF 4
ENDMDL
MODEL 5
REMARK VINA RESULT: -3.447121427      7.297      8.949
REMARK  4 active torsions:
REMARK  status: ('A' for Active; 'I' for Inactive)
REMARK    1  A    between atoms: N1_1  and  C1_4 
REMARK    2  A    between atoms: N4_11  and  C3_12 
REMARK    3  A    between atoms: C3_12  and  N5_14 
REMARK    4  A    between atoms: N5_14  and  N6_16 
ROOT
HETATM    1  C1  UNL     1      10.522   8.810  24.296  1.00  0.00     0.703 A 
HETATM    2  N2  UNL     1      11.608   8.046  24.041  1.00  0.00    -0.138 N 
ATOM      3  H2  UNL     1      11.887   7.668  23.135  1.00  0.00     0.189 HD
HETATM    4  C2  UNL     1      12.253   7.880  25.216  1.00  0.00     0.354 A 
HETATM    5  O1  UNL     1      13.329   7.218  25.402  1.00  0.00    -0.245 OA
HETATM    6  N3  UNL     1      11.541   8.545  26.144  1.00  0.00    -0.227 N 
ATOM      7  H3  UNL     1      11.786   8.600  27.133  1.00  0.00     0.193 HD
HETATM    8  N4  UNL     1      10.481   9.119  25.601  1.00  0.00    -0.054 N 
ENDROOT
BRANCH   8   9
HETATM    9  C3  UNL     1       9.478   9.918  26.265  1.00  0.00     0.229 C 
HETATM   10  S1  UNL     1       8.323   9.209  27.178  1.00  0.00    -0.037 SA
BRANCH   9  11
HETATM   11  N5  UNL     1       9.472  11.324  26.143  1.00  0.00    -0.281 N 
ATOM     12  H5  UNL     1      10.257  11.865  26.507  1.00  0.00     0.189 HD
BRANCH  11  13
HETATM   13  N6  UNL     1       8.428  11.970  25.541  1.00  0.00    -0.343 N 
ATOM     14  H62 UNL     1       8.459  12.114  24.532  1.00  0.00     0.176 HD
ATOM     15  H61 UNL     1       7.634  12.300  26.089  1.00  0.00     0.176 HD
ENDBRANCH  11  13
ENDBRANCH   9  11
ENDBRANCH   8   9
BRANCH   1  16
HETATM   16  N1  UNL     1       9.646   9.189  23.408  1.00  0.00    -0.233 N 
ATOM     17  H12 UNL     1       9.817   9.875  22.672  1.00  0.00     0.174 HD
ATOM     18  H11 UNL     1       8.687   8.846  23.345  1.00  0.00     0.174 HD
ENDBRANCH   1  16
TORSDOF 4
ENDMDL
