MODEL 1
REMARK VINA RESULT: -9.126400892      0.000      0.000
REMARK  6 active torsions:
REMARK  status: ('A' for Active; 'I' for Inactive)
REMARK    1  A    between atoms: C5_5  and  C6_6 
REMARK    2  A    between atoms: C6_6  and  C7_7 
REMARK    3  A    between atoms: C7_7  and  C8_9 
REMARK       I    between atoms: C8_9  and  N1_11 
REMARK    4  A    between atoms: N1_11  and  C9_13 
REMARK    5  A    between atoms: C15_19  and  C16_20 
REMARK       I    between atoms: C16_20  and  N2_22 
REMARK    6  A    between atoms: C21_27  and  C22_28 
ROOT
HETATM    1  C9  UNL     1     -43.963 -51.741  -9.776  1.00  0.00     0.179 C 
HETATM    2  C10 UNL     1     -42.962 -51.912 -10.934  1.00  0.00     0.060 C 
HETATM    3  C11 UNL     1     -42.128 -50.635 -10.741  1.00  0.00     0.090 C 
HETATM    4  C12 UNL     1     -41.213 -50.402 -11.894  1.00  0.00     0.026 C 
HETATM    5  C13 UNL     1     -40.915 -48.922 -11.985  1.00  0.00     0.004 C 
HETATM    6  C14 UNL     1     -42.264 -48.241 -12.246  1.00  0.00     0.035 C 
HETATM    7  C15 UNL     1     -43.071 -48.257 -10.962  1.00  0.00     0.180 C 
HETATM    8  N3  UNL     1     -43.130 -49.642 -10.529  1.00  0.00    -0.332 N 
HETATM    9  C23 UNL     1     -44.204 -50.286  -9.808  1.00  0.00     0.243 C 
HETATM   10  O6  UNL     1     -45.204 -49.713  -9.278  1.00  0.00    -0.271 OA
ENDROOT
BRANCH   1  11
HETATM   11  N1  UNL     1     -45.132 -52.532  -9.986  1.00  0.00    -0.341 N 
HETATM   12  C8  UNL     1     -45.300 -53.754  -9.308  1.00  0.00     0.288 C 
HETATM   13  O2  UNL     1     -44.396 -54.139  -8.505  1.00  0.00    -0.264 OA
ATOM     14  H1  UNL     1     -45.852 -52.208 -10.633  1.00  0.00     0.163 HD
BRANCH  12  15
HETATM   15  C7  UNL     1     -46.472 -54.614  -9.479  1.00  0.00     0.216 C 
HETATM   16  O1  UNL     1     -46.790 -55.335  -8.508  1.00  0.00    -0.287 OA
BRANCH  15  17
HETATM   17  C6  UNL     1     -47.238 -54.636 -10.721  1.00  0.00     0.093 C 
BRANCH  17  18
HETATM   18  C5  UNL     1     -46.845 -55.665 -11.726  1.00  0.00    -0.007 C 
HETATM   19  C4  UNL     1     -45.519 -56.299 -11.305  1.00  0.00     0.005 C 
HETATM   20  C3  UNL     1     -44.500 -56.224 -12.398  1.00  0.00     0.004 C 
HETATM   21  C2  UNL     1     -44.275 -54.771 -12.752  1.00  0.00    -0.019 C 
HETATM   22  C1  UNL     1     -43.162 -54.642 -13.757  1.00  0.00     0.010 C 
HETATM   23  C25 UNL     1     -45.574 -54.193 -13.241  1.00  0.00     0.004 C 
HETATM   24  C24 UNL     1     -46.719 -55.177 -13.133  1.00  0.00     0.005 C 
ENDBRANCH  17  18
ENDBRANCH  15  17
ENDBRANCH  12  15
ENDBRANCH   1  11
BRANCH   7  25
HETATM   25  C16 UNL     1     -42.446 -47.383  -9.914  1.00  0.00     0.243 C 
HETATM   26  O3  UNL     1     -42.284 -47.942  -8.803  1.00  0.00    -0.271 OA
HETATM   27  N2  UNL     1     -42.070 -46.069 -10.131  1.00  0.00    -0.336 N 
HETATM   28  C17 UNL     1     -42.275 -45.459 -11.483  1.00  0.00     0.127 C 
HETATM   29  C21 UNL     1     -41.440 -45.162  -9.230  1.00  0.00     0.188 C 
HETATM   30  C18 UNL     1     -40.927 -44.904 -11.907  1.00  0.00     0.020 C 
HETATM   31  C19 UNL     1     -39.780 -45.425 -11.074  1.00  0.00     0.004 C 
HETATM   32  C20 UNL     1     -39.955 -45.215  -9.583  1.00  0.00     0.036 C 
BRANCH  29  33
HETATM   33  C22 UNL     1     -41.683 -45.230  -7.809  1.00  0.00     0.196 C 
HETATM   34  O4  UNL     1     -40.828 -45.647  -6.994  1.00  0.00    -0.646 OA
HETATM   35  O5  UNL     1     -42.950 -44.808  -7.310  1.00  0.00    -0.646 OA
ENDBRANCH  29  33
ENDBRANCH   7  25
TORSDOF 6
ENDMDL
MODEL 2
REMARK VINA RESULT: -8.994448024      1.404      2.020
REMARK  6 active torsions:
REMARK  status: ('A' for Active; 'I' for Inactive)
REMARK    1  A    between atoms: C5_5  and  C6_6 
REMARK    2  A    between atoms: C6_6  and  C7_7 
REMARK    3  A    between atoms: C7_7  and  C8_9 
REMARK       I    between atoms: C8_9  and  N1_11 
REMARK    4  A    between atoms: N1_11  and  C9_13 
REMARK    5  A    between atoms: C15_19  and  C16_20 
REMARK       I    between atoms: C16_20  and  N2_22 
REMARK    6  A    between atoms: C21_27  and  C22_28 
ROOT
HETATM    1  C9  UNL     1     -43.961 -51.760  -9.808  1.00  0.00     0.179 C 
HETATM    2  C10 UNL     1     -42.956 -51.923 -10.964  1.00  0.00     0.060 C 
HETATM    3  C11 UNL     1     -42.126 -50.645 -10.764  1.00  0.00     0.090 C 
HETATM    4  C12 UNL     1     -41.207 -50.404 -11.913  1.00  0.00     0.026 C 
HETATM    5  C13 UNL     1     -40.914 -48.924 -11.997  1.00  0.00     0.004 C 
HETATM    6  C14 UNL     1     -42.264 -48.245 -12.261  1.00  0.00     0.035 C 
HETATM    7  C15 UNL     1     -43.075 -48.268 -10.979  1.00  0.00     0.180 C 
HETATM    8  N3  UNL     1     -43.132 -49.655 -10.551  1.00  0.00    -0.332 N 
HETATM    9  C23 UNL     1     -44.206 -50.305  -9.836  1.00  0.00     0.243 C 
HETATM   10  O6  UNL     1     -45.209 -49.736  -9.307  1.00  0.00    -0.271 OA
ENDROOT
BRANCH   1  11
HETATM   11  N1  UNL     1     -45.127 -52.553 -10.025  1.00  0.00    -0.341 N 
HETATM   12  C8  UNL     1     -45.300 -53.771  -9.341  1.00  0.00     0.288 C 
HETATM   13  O2  UNL     1     -44.403 -54.150  -8.526  1.00  0.00    -0.264 OA
ATOM     14  H1  UNL     1     -45.840 -52.234 -10.681  1.00  0.00     0.163 HD
BRANCH  12  15
HETATM   15  C7  UNL     1     -46.468 -54.634  -9.518  1.00  0.00     0.216 C 
HETATM   16  O1  UNL     1     -47.415 -54.172 -10.191  1.00  0.00    -0.287 OA
BRANCH  15  17
HETATM   17  C6  UNL     1     -46.533 -55.972  -8.940  1.00  0.00     0.093 C 
BRANCH  17  18
HETATM   18  C5  UNL     1     -46.557 -57.110  -9.903  1.00  0.00    -0.007 C 
HETATM   19  C4  UNL     1     -46.497 -58.427  -9.128  1.00  0.00     0.005 C 
HETATM   20  C3  UNL     1     -45.376 -59.296  -9.604  1.00  0.00     0.004 C 
HETATM   21  C2  UNL     1     -44.074 -58.547  -9.429  1.00  0.00    -0.019 C 
HETATM   22  C1  UNL     1     -42.908 -59.435  -9.774  1.00  0.00     0.010 C 
HETATM   23  C25 UNL     1     -44.126 -57.299 -10.266  1.00  0.00     0.004 C 
HETATM   24  C24 UNL     1     -45.472 -57.108 -10.931  1.00  0.00     0.005 C 
ENDBRANCH  17  18
ENDBRANCH  15  17
ENDBRANCH  12  15
ENDBRANCH   1  11
BRANCH   7  25
HETATM   25  C16 UNL     1     -42.456 -47.396  -9.927  1.00  0.00     0.243 C 
HETATM   26  O3  UNL     1     -42.293 -47.959  -8.818  1.00  0.00    -0.271 OA
HETATM   27  N2  UNL     1     -42.086 -46.079 -10.136  1.00  0.00    -0.336 N 
HETATM   28  C17 UNL     1     -42.292 -45.465 -11.486  1.00  0.00     0.127 C 
HETATM   29  C21 UNL     1     -41.462 -45.174  -9.230  1.00  0.00     0.188 C 
HETATM   30  C18 UNL     1     -40.946 -44.901 -11.906  1.00  0.00     0.020 C 
HETATM   31  C19 UNL     1     -39.798 -45.420 -11.073  1.00  0.00     0.004 C 
HETATM   32  C20 UNL     1     -39.976 -45.217  -9.582  1.00  0.00     0.036 C 
BRANCH  29  33
HETATM   33  C22 UNL     1     -41.707 -45.250  -7.810  1.00  0.00     0.196 C 
HETATM   34  O4  UNL     1     -40.850 -45.663  -6.995  1.00  0.00    -0.646 OA
HETATM   35  O5  UNL     1     -42.978 -44.839  -7.311  1.00  0.00    -0.646 OA
ENDBRANCH  29  33
ENDBRANCH   7  25
TORSDOF 6
ENDMDL
MODEL 3
REMARK VINA RESULT: -8.964635675      0.778      1.360
REMARK  6 active torsions:
REMARK  status: ('A' for Active; 'I' for Inactive)
REMARK    1  A    between atoms: C5_5  and  C6_6 
REMARK    2  A    between atoms: C6_6  and  C7_7 
REMARK    3  A    between atoms: C7_7  and  C8_9 
REMARK       I    between atoms: C8_9  and  N1_11 
REMARK    4  A    between atoms: N1_11  and  C9_13 
REMARK    5  A    between atoms: C15_19  and  C16_20 
REMARK       I    between atoms: C16_20  and  N2_22 
REMARK    6  A    between atoms: C21_27  and  C22_28 
ROOT
HETATM    1  C9  UNL     1     -43.994 -51.774  -9.852  1.00  0.00     0.179 C 
HETATM    2  C10 UNL     1     -42.949 -51.950 -10.970  1.00  0.00     0.060 C 
HETATM    3  C11 UNL     1     -42.117 -50.678 -10.745  1.00  0.00     0.090 C 
HETATM    4  C12 UNL     1     -41.156 -50.449 -11.861  1.00  0.00     0.026 C 
HETATM    5  C13 UNL     1     -40.848 -48.972 -11.941  1.00  0.00     0.004 C 
HETATM    6  C14 UNL     1     -42.182 -48.284 -12.256  1.00  0.00     0.035 C 
HETATM    7  C15 UNL     1     -43.039 -48.295 -11.005  1.00  0.00     0.180 C 
HETATM    8  N3  UNL     1     -43.122 -49.679 -10.574  1.00  0.00    -0.332 N 
HETATM    9  C23 UNL     1     -44.226 -50.317  -9.895  1.00  0.00     0.243 C 
HETATM   10  O6  UNL     1     -45.243 -49.739  -9.405  1.00  0.00    -0.271 OA
ENDROOT
BRANCH   1  11
HETATM   11  N1  UNL     1     -45.158 -52.559 -10.108  1.00  0.00    -0.341 N 
HETATM   12  C8  UNL     1     -45.342 -53.795  -9.461  1.00  0.00     0.288 C 
HETATM   13  O2  UNL     1     -44.458 -54.198  -8.644  1.00  0.00    -0.264 OA
ATOM     14  H1  UNL     1     -45.861 -52.221 -10.765  1.00  0.00     0.163 HD
BRANCH  12  15
HETATM   15  C7  UNL     1     -46.509 -54.651  -9.679  1.00  0.00     0.216 C 
HETATM   16  O1  UNL     1     -46.925 -55.301  -8.695  1.00  0.00    -0.287 OA
BRANCH  15  17
HETATM   17  C6  UNL     1     -47.163 -54.747 -10.979  1.00  0.00     0.093 C 
BRANCH  17  18
HETATM   18  C5  UNL     1     -46.524 -55.650 -11.979  1.00  0.00    -0.007 C 
HETATM   19  C4  UNL     1     -45.613 -54.828 -12.891  1.00  0.00     0.005 C 
HETATM   20  C3  UNL     1     -45.944 -55.038 -14.335  1.00  0.00     0.004 C 
HETATM   21  C2  UNL     1     -47.384 -54.638 -14.565  1.00  0.00    -0.019 C 
HETATM   22  C1  UNL     1     -47.721 -54.711 -16.031  1.00  0.00     0.010 C 
HETATM   23  C25 UNL     1     -48.264 -55.516 -13.720  1.00  0.00     0.004 C 
HETATM   24  C24 UNL     1     -47.466 -56.442 -12.827  1.00  0.00     0.005 C 
ENDBRANCH  17  18
ENDBRANCH  15  17
ENDBRANCH  12  15
ENDBRANCH   1  11
BRANCH   7  25
HETATM   25  C16 UNL     1     -42.451 -47.423  -9.934  1.00  0.00     0.243 C 
HETATM   26  O3  UNL     1     -42.312 -47.989  -8.823  1.00  0.00    -0.271 OA
HETATM   27  N2  UNL     1     -42.085 -46.103 -10.130  1.00  0.00    -0.336 N 
HETATM   28  C17 UNL     1     -42.261 -45.484 -11.481  1.00  0.00     0.127 C 
HETATM   29  C21 UNL     1     -41.489 -45.197  -9.205  1.00  0.00     0.188 C 
HETATM   30  C18 UNL     1     -40.909 -44.911 -11.866  1.00  0.00     0.020 C 
HETATM   31  C19 UNL     1     -39.779 -45.426 -11.007  1.00  0.00     0.004 C 
HETATM   32  C20 UNL     1     -39.995 -45.230  -9.520  1.00  0.00     0.036 C 
BRANCH  29  33
HETATM   33  C22 UNL     1     -41.769 -45.280  -7.792  1.00  0.00     0.196 C 
HETATM   34  O4  UNL     1     -40.925 -45.678  -6.956  1.00  0.00    -0.646 OA
HETATM   35  O5  UNL     1     -43.059 -44.894  -7.325  1.00  0.00    -0.646 OA
ENDBRANCH  29  33
ENDBRANCH   7  25
TORSDOF 6
ENDMDL
MODEL 4
REMARK VINA RESULT: -8.835304873      0.926      1.439
REMARK  6 active torsions:
REMARK  status: ('A' for Active; 'I' for Inactive)
REMARK    1  A    between atoms: C5_5  and  C6_6 
REMARK    2  A    between atoms: C6_6  and  C7_7 
REMARK    3  A    between atoms: C7_7  and  C8_9 
REMARK       I    between atoms: C8_9  and  N1_11 
REMARK    4  A    between atoms: N1_11  and  C9_13 
REMARK    5  A    between atoms: C15_19  and  C16_20 
REMARK       I    between atoms: C16_20  and  N2_22 
REMARK    6  A    between atoms: C21_27  and  C22_28 
ROOT
HETATM    1  C9  UNL     1     -43.887 -51.828  -9.954  1.00  0.00     0.179 C 
HETATM    2  C10 UNL     1     -42.816 -51.957 -11.053  1.00  0.00     0.060 C 
HETATM    3  C11 UNL     1     -42.031 -50.660 -10.799  1.00  0.00     0.090 C 
HETATM    4  C12 UNL     1     -41.057 -50.388 -11.894  1.00  0.00     0.026 C 
HETATM    5  C13 UNL     1     -40.797 -48.900 -11.953  1.00  0.00     0.004 C 
HETATM    6  C14 UNL     1     -42.147 -48.253 -12.286  1.00  0.00     0.035 C 
HETATM    7  C15 UNL     1     -43.026 -48.306 -11.051  1.00  0.00     0.180 C 
HETATM    8  N3  UNL     1     -43.072 -49.697 -10.636  1.00  0.00    -0.332 N 
HETATM    9  C23 UNL     1     -44.167 -50.379  -9.985  1.00  0.00     0.243 C 
HETATM   10  O6  UNL     1     -45.211 -49.840  -9.509  1.00  0.00    -0.271 OA
ENDROOT
BRANCH   1  11
HETATM   11  N1  UNL     1     -45.019 -52.648 -10.240  1.00  0.00    -0.341 N 
HETATM   12  C8  UNL     1     -45.200 -53.874  -9.572  1.00  0.00     0.288 C 
HETATM   13  O2  UNL     1     -44.342 -54.235  -8.710  1.00  0.00    -0.264 OA
ATOM     14  H1  UNL     1     -45.702 -52.343 -10.933  1.00  0.00     0.163 HD
BRANCH  12  15
HETATM   15  C7  UNL     1     -46.335 -54.764  -9.819  1.00  0.00     0.216 C 
HETATM   16  O1  UNL     1     -47.478 -54.273  -9.688  1.00  0.00    -0.287 OA
BRANCH  15  17
HETATM   17  C6  UNL     1     -46.151 -56.160 -10.202  1.00  0.00     0.093 C 
BRANCH  17  18
HETATM   18  C5  UNL     1     -45.994 -56.433 -11.659  1.00  0.00    -0.007 C 
HETATM   19  C4  UNL     1     -45.925 -57.944 -11.884  1.00  0.00     0.005 C 
HETATM   20  C3  UNL     1     -44.704 -58.332 -12.655  1.00  0.00     0.004 C 
HETATM   21  C2  UNL     1     -43.482 -57.879 -11.887  1.00  0.00    -0.019 C 
HETATM   22  C1  UNL     1     -42.227 -58.364 -12.564  1.00  0.00     0.010 C 
HETATM   23  C25 UNL     1     -43.532 -56.383 -11.752  1.00  0.00     0.004 C 
HETATM   24  C24 UNL     1     -44.810 -55.796 -12.311  1.00  0.00     0.005 C 
ENDBRANCH  17  18
ENDBRANCH  15  17
ENDBRANCH  12  15
ENDBRANCH   1  11
BRANCH   7  25
HETATM   25  C16 UNL     1     -42.488 -47.427  -9.960  1.00  0.00     0.243 C 
HETATM   26  O3  UNL     1     -42.387 -47.991  -8.844  1.00  0.00    -0.271 OA
HETATM   27  N2  UNL     1     -42.127 -46.104 -10.144  1.00  0.00    -0.336 N 
HETATM   28  C17 UNL     1     -42.257 -45.490 -11.503  1.00  0.00     0.127 C 
HETATM   29  C21 UNL     1     -41.575 -45.192  -9.199  1.00  0.00     0.188 C 
HETATM   30  C18 UNL     1     -40.896 -44.904 -11.836  1.00  0.00     0.020 C 
HETATM   31  C19 UNL     1     -39.795 -45.408 -10.934  1.00  0.00     0.004 C 
HETATM   32  C20 UNL     1     -40.070 -45.212  -9.456  1.00  0.00     0.036 C 
BRANCH  29  33
HETATM   33  C22 UNL     1     -41.908 -45.275  -7.798  1.00  0.00     0.196 C 
HETATM   34  O4  UNL     1     -43.017 -44.912  -7.342  1.00  0.00    -0.646 OA
HETATM   35  O5  UNL     1     -40.936 -45.790  -6.891  1.00  0.00    -0.646 OA
ENDBRANCH  29  33
ENDBRANCH   7  25
TORSDOF 6
ENDMDL
MODEL 5
REMARK VINA RESULT: -8.792655269      2.236      9.018
REMARK  6 active torsions:
REMARK  status: ('A' for Active; 'I' for Inactive)
REMARK    1  A    between atoms: C5_5  and  C6_6 
REMARK    2  A    between atoms: C6_6  and  C7_7 
REMARK    3  A    between atoms: C7_7  and  C8_9 
REMARK       I    between atoms: C8_9  and  N1_11 
REMARK    4  A    between atoms: N1_11  and  C9_13 
REMARK    5  A    between atoms: C15_19  and  C16_20 
REMARK       I    between atoms: C16_20  and  N2_22 
REMARK    6  A    between atoms: C21_27  and  C22_28 
ROOT
HETATM    1  C9  UNL     1     -43.071 -48.921  -7.546  1.00  0.00     0.179 C 
HETATM    2  C10 UNL     1     -44.037 -48.909  -6.345  1.00  0.00     0.060 C 
HETATM    3  C11 UNL     1     -44.516 -50.369  -6.388  1.00  0.00     0.090 C 
HETATM    4  C12 UNL     1     -45.669 -50.592  -5.471  1.00  0.00     0.026 C 
HETATM    5  C13 UNL     1     -46.477 -51.762  -5.983  1.00  0.00     0.004 C 
HETATM    6  C14 UNL     1     -46.988 -51.344  -7.367  1.00  0.00     0.035 C 
HETATM    7  C15 UNL     1     -45.830 -51.390  -8.345  1.00  0.00     0.180 C 
HETATM    8  N3  UNL     1     -44.778 -50.565  -7.778  1.00  0.00    -0.332 N 
HETATM    9  C23 UNL     1     -43.797 -49.785  -8.497  1.00  0.00     0.243 C 
HETATM   10  O6  UNL     1     -43.576 -49.820  -9.745  1.00  0.00    -0.271 OA
ENDROOT
BRANCH   1  11
HETATM   11  N1  UNL     1     -42.830 -47.598  -8.024  1.00  0.00    -0.341 N 
HETATM   12  C8  UNL     1     -41.764 -46.836  -7.511  1.00  0.00     0.288 C 
HETATM   13  O2  UNL     1     -41.020 -47.345  -6.619  1.00  0.00    -0.264 OA
ATOM     14  H1  UNL     1     -43.435 -47.203  -8.744  1.00  0.00     0.163 HD
BRANCH  12  15
HETATM   15  C7  UNL     1     -41.462 -45.474  -7.955  1.00  0.00     0.216 C 
HETATM   16  O1  UNL     1     -42.141 -44.553  -7.451  1.00  0.00    -0.287 OA
BRANCH  15  17
HETATM   17  C6  UNL     1     -40.420 -45.196  -8.937  1.00  0.00     0.093 C 
BRANCH  17  18
HETATM   18  C5  UNL     1     -40.874 -44.953 -10.336  1.00  0.00    -0.007 C 
HETATM   19  C4  UNL     1     -42.284 -45.518 -10.513  1.00  0.00     0.005 C 
HETATM   20  C3  UNL     1     -42.357 -46.464 -11.670  1.00  0.00     0.004 C 
HETATM   21  C2  UNL     1     -41.385 -47.597 -11.432  1.00  0.00    -0.019 C 
HETATM   22  C1  UNL     1     -41.520 -48.640 -12.509  1.00  0.00     0.010 C 
HETATM   23  C25 UNL     1     -39.998 -47.025 -11.343  1.00  0.00     0.004 C 
HETATM   24  C24 UNL     1     -39.994 -45.512 -11.406  1.00  0.00     0.005 C 
ENDBRANCH  17  18
ENDBRANCH  15  17
ENDBRANCH  12  15
ENDBRANCH   1  11
BRANCH   7  25
HETATM   25  C16 UNL     1     -45.361 -52.798  -8.568  1.00  0.00     0.243 C 
HETATM   26  O3  UNL     1     -44.223 -53.045  -8.100  1.00  0.00    -0.271 OA
HETATM   27  N2  UNL     1     -46.101 -53.762  -9.229  1.00  0.00    -0.336 N 
HETATM   28  C17 UNL     1     -47.459 -53.413  -9.754  1.00  0.00     0.127 C 
HETATM   29  C21 UNL     1     -45.775 -55.129  -9.466  1.00  0.00     0.188 C 
HETATM   30  C18 UNL     1     -48.413 -54.448  -9.185  1.00  0.00     0.020 C 
HETATM   31  C19 UNL     1     -47.821 -55.237  -8.042  1.00  0.00     0.004 C 
HETATM   32  C20 UNL     1     -46.503 -55.908  -8.372  1.00  0.00     0.036 C 
BRANCH  29  33
HETATM   33  C22 UNL     1     -44.407 -55.552  -9.643  1.00  0.00     0.196 C 
HETATM   34  O4  UNL     1     -43.831 -55.534 -10.756  1.00  0.00    -0.646 OA
HETATM   35  O5  UNL     1     -43.679 -56.011  -8.507  1.00  0.00    -0.646 OA
ENDBRANCH  29  33
ENDBRANCH   7  25
TORSDOF 6
ENDMDL
