MODEL 1
REMARK VINA RESULT: -7.361660984      0.000      0.000
REMARK  2 active torsions:
REMARK  status: ('A' for Active; 'I' for Inactive)
REMARK    1  A    between atoms: C1_2  and  C2_3 
REMARK    2  A    between atoms: C4_8  and  C5_9 
ROOT
HETATM    1  C2  UNL     1      38.872  72.415  58.717  1.00  0.00     0.028 C 
HETATM    2  C3  UNL     1      38.054  73.658  58.765  1.00  0.00     0.207 C 
HETATM    3  O1  UNL     1      38.321  74.540  59.801  1.00  0.00    -0.280 OA
HETATM    4  N1  UNL     1      39.437  74.377  60.560  1.00  0.00    -0.270 N 
ATOM      5  H1  UNL     1      39.572  75.035  61.327  1.00  0.00     0.194 HD
HETATM    6  C4  UNL     1      40.338  73.476  60.405  1.00  0.00     0.043 C 
HETATM    7  C11 UNL     1      40.223  72.494  59.333  1.00  0.00     0.067 C 
ENDROOT
BRANCH   6   8
HETATM    8  C5  UNL     1      41.482  73.439  61.313  1.00  0.00    -0.012 A 
HETATM    9  C6  UNL     1      42.771  73.412  60.807  1.00  0.00     0.013 A 
HETATM   10  C7  UNL     1      43.879  73.375  61.629  1.00  0.00     0.001 A 
HETATM   11  C8  UNL     1      43.741  73.363  63.001  1.00  0.00     0.000 A 
HETATM   12  C9  UNL     1      42.467  73.390  63.521  1.00  0.00     0.001 A 
HETATM   13  C10 UNL     1      41.348  73.427  62.685  1.00  0.00     0.013 A 
ENDBRANCH   6   8
BRANCH   1  14
HETATM   14  C1  UNL     1      38.037  71.305  59.374  1.00  0.00     0.093 C 
HETATM   15  S1  UNL     1      39.076  70.193  60.358  1.00  0.00    -0.097 SA
ENDBRANCH   1  14
TORSDOF 2
ENDMDL
MODEL 2
REMARK VINA RESULT: -7.347653399      0.046      1.261
REMARK  2 active torsions:
REMARK  status: ('A' for Active; 'I' for Inactive)
REMARK    1  A    between atoms: C1_2  and  C2_3 
REMARK    2  A    between atoms: C4_8  and  C5_9 
ROOT
HETATM    1  C2  UNL     1      38.857  72.396  58.717  1.00  0.00     0.028 C 
HETATM    2  C3  UNL     1      38.035  73.637  58.782  1.00  0.00     0.207 C 
HETATM    3  O1  UNL     1      38.320  74.520  59.811  1.00  0.00    -0.280 OA
HETATM    4  N1  UNL     1      39.453  74.362  60.548  1.00  0.00    -0.270 N 
ATOM      5  H1  UNL     1      39.601  75.021  61.311  1.00  0.00     0.194 HD
HETATM    6  C4  UNL     1      40.353  73.464  60.374  1.00  0.00     0.043 C 
HETATM    7  C11 UNL     1      40.220  72.481  59.306  1.00  0.00     0.067 C 
ENDROOT
BRANCH   6   8
HETATM    8  C5  UNL     1      41.516  73.432  61.259  1.00  0.00    -0.012 A 
HETATM    9  C6  UNL     1      41.343  73.383  62.633  1.00  0.00     0.013 A 
HETATM   10  C7  UNL     1      42.413  73.353  63.504  1.00  0.00     0.001 A 
HETATM   11  C8  UNL     1      43.708  73.371  63.032  1.00  0.00     0.000 A 
HETATM   12  C9  UNL     1      43.898  73.419  61.670  1.00  0.00     0.001 A 
HETATM   13  C10 UNL     1      42.812  73.449  60.792  1.00  0.00     0.013 A 
ENDBRANCH   6   8
BRANCH   1  14
HETATM   14  C1  UNL     1      38.039  71.284  59.393  1.00  0.00     0.093 C 
HETATM   15  S1  UNL     1      39.099  70.187  60.370  1.00  0.00    -0.097 SA
ENDBRANCH   1  14
TORSDOF 2
ENDMDL
MODEL 3
REMARK VINA RESULT: -7.017795403      1.467      1.571
REMARK  2 active torsions:
REMARK  status: ('A' for Active; 'I' for Inactive)
REMARK    1  A    between atoms: C1_2  and  C2_3 
REMARK    2  A    between atoms: C4_8  and  C5_9 
ROOT
HETATM    1  C2  UNL     1      39.380  71.380  58.697  1.00  0.00     0.028 C 
HETATM    2  C3  UNL     1      38.038  71.600  59.305  1.00  0.00     0.207 C 
HETATM    3  O1  UNL     1      38.013  72.018  60.626  1.00  0.00    -0.280 OA
HETATM    4  N1  UNL     1      39.158  72.440  61.227  1.00  0.00    -0.270 N 
ATOM      5  H1  UNL     1      39.091  72.709  62.208  1.00  0.00     0.194 HD
HETATM    6  C4  UNL     1      40.315  72.532  60.678  1.00  0.00     0.043 C 
HETATM    7  C11 UNL     1      40.500  72.167  59.279  1.00  0.00     0.067 C 
ENDROOT
BRANCH   6   8
HETATM    8  C5  UNL     1      41.449  73.006  61.468  1.00  0.00    -0.012 A 
HETATM    9  C6  UNL     1      42.693  73.157  60.876  1.00  0.00     0.013 A 
HETATM   10  C7  UNL     1      43.790  73.601  61.586  1.00  0.00     0.001 A 
HETATM   11  C8  UNL     1      43.688  73.912  62.925  1.00  0.00     0.000 A 
HETATM   12  C9  UNL     1      42.459  73.768  63.528  1.00  0.00     0.001 A 
HETATM   13  C10 UNL     1      41.350  73.318  62.806  1.00  0.00     0.013 A 
ENDBRANCH   6   8
BRANCH   1  14
HETATM   14  C1  UNL     1      39.668  69.873  58.786  1.00  0.00     0.093 C 
HETATM   15  S1  UNL     1      41.341  69.487  58.206  1.00  0.00    -0.097 SA
ENDBRANCH   1  14
TORSDOF 2
ENDMDL
MODEL 4
REMARK VINA RESULT: -7.004948675      2.831      5.076
REMARK  2 active torsions:
REMARK  status: ('A' for Active; 'I' for Inactive)
REMARK    1  A    between atoms: C1_2  and  C2_3 
REMARK    2  A    between atoms: C4_8  and  C5_9 
ROOT
HETATM    1  C2  UNL     1      40.236  73.161  61.581  1.00  0.00     0.028 C 
HETATM    2  C3  UNL     1      41.647  73.636  61.629  1.00  0.00     0.207 C 
HETATM    3  O1  UNL     1      42.576  72.904  60.906  1.00  0.00    -0.280 OA
HETATM    4  N1  UNL     1      42.156  71.968  60.013  1.00  0.00    -0.270 N 
ATOM      5  H1  UNL     1      42.879  71.437  59.529  1.00  0.00     0.194 HD
HETATM    6  C4  UNL     1      40.938  71.688  59.720  1.00  0.00     0.043 C 
HETATM    7  C11 UNL     1      39.842  72.399  60.367  1.00  0.00     0.067 C 
ENDROOT
BRANCH   6   8
HETATM    8  C5  UNL     1      40.657  70.649  58.733  1.00  0.00    -0.012 A 
HETATM    9  C6  UNL     1      39.406  70.573  58.140  1.00  0.00     0.013 A 
HETATM   10  C7  UNL     1      39.098  69.607  57.205  1.00  0.00     0.001 A 
HETATM   11  C8  UNL     1      40.035  68.669  56.822  1.00  0.00     0.000 A 
HETATM   12  C9  UNL     1      41.282  68.730  57.401  1.00  0.00     0.001 A 
HETATM   13  C10 UNL     1      41.589  69.710  58.348  1.00  0.00     0.013 A 
ENDBRANCH   6   8
BRANCH   1  14
HETATM   14  C1  UNL     1      40.004  72.325  62.850  1.00  0.00     0.093 C 
HETATM   15  S1  UNL     1      38.744  71.052  62.578  1.00  0.00    -0.097 SA
ENDBRANCH   1  14
TORSDOF 2
ENDMDL
MODEL 5
REMARK VINA RESULT: -6.992158979      1.455      2.005
REMARK  2 active torsions:
REMARK  status: ('A' for Active; 'I' for Inactive)
REMARK    1  A    between atoms: C1_2  and  C2_3 
REMARK    2  A    between atoms: C4_8  and  C5_9 
ROOT
HETATM    1  C2  UNL     1      39.341  71.384  58.697  1.00  0.00     0.028 C 
HETATM    2  C3  UNL     1      38.017  71.612  59.338  1.00  0.00     0.207 C 
HETATM    3  O1  UNL     1      38.027  72.029  60.660  1.00  0.00    -0.280 OA
HETATM    4  N1  UNL     1      39.190  72.443  61.232  1.00  0.00    -0.270 N 
ATOM      5  H1  UNL     1      39.149  72.711  62.214  1.00  0.00     0.194 HD
HETATM    6  C4  UNL     1      40.333  72.528  60.655  1.00  0.00     0.043 C 
HETATM    7  C11 UNL     1      40.481  72.163  59.251  1.00  0.00     0.067 C 
ENDROOT
BRANCH   6   8
HETATM    8  C5  UNL     1      41.490  72.993  61.416  1.00  0.00    -0.012 A 
HETATM    9  C6  UNL     1      41.360  73.293  62.763  1.00  0.00     0.013 A 
HETATM   10  C7  UNL     1      42.426  73.737  63.519  1.00  0.00     0.001 A 
HETATM   11  C8  UNL     1      43.674  73.901  62.954  1.00  0.00     0.000 A 
HETATM   12  C9  UNL     1      43.820  73.607  61.617  1.00  0.00     0.001 A 
HETATM   13  C10 UNL     1      42.737  73.158  60.856  1.00  0.00     0.013 A 
ENDBRANCH   6   8
BRANCH   1  14
HETATM   14  C1  UNL     1      39.622  69.875  58.777  1.00  0.00     0.093 C 
HETATM   15  S1  UNL     1      41.298  69.485  58.209  1.00  0.00    -0.097 SA
ENDBRANCH   1  14
TORSDOF 2
ENDMDL
