MODEL 1
REMARK VINA RESULT: -9.968634328      0.000      0.000
REMARK  5 active torsions:
REMARK  status: ('A' for Active; 'I' for Inactive)
REMARK    1  A    between atoms: C2_2  and  C3_3 
REMARK    2  A    between atoms: C3_3  and  C4_4 
REMARK    3  A    between atoms: C4_4  and  N1_5 
REMARK    4  A    between atoms: C6_7  and  C7_8 
REMARK    5  A    between atoms: C7_8  and  C8_9 
ROOT
HETATM    1  N1  UNL     1      48.512   7.959  11.181  1.00  0.00    -0.356 N 
HETATM    2  C5  UNL     1      47.681   6.908  11.297  1.00  0.00     0.099 A 
HETATM    3  C6  UNL     1      48.267   5.844  10.652  1.00  0.00    -0.026 A 
HETATM    4  C16 UNL     1      49.477   6.248  10.131  1.00  0.00    -0.001 A 
HETATM    5  C17 UNL     1      50.485   5.655   9.403  1.00  0.00     0.014 A 
HETATM    6  C18 UNL     1      51.577   6.375   9.040  1.00  0.00     0.001 A 
HETATM    7  C19 UNL     1      51.717   7.701   9.378  1.00  0.00     0.002 A 
HETATM    8  C20 UNL     1      50.722   8.318  10.108  1.00  0.00     0.030 A 
HETATM    9  C21 UNL     1      49.609   7.586  10.478  1.00  0.00     0.045 A 
ENDROOT
BRANCH   3  10
HETATM   10  C7  UNL     1      47.700   4.480  10.542  1.00  0.00     0.082 C 
BRANCH  10  11
HETATM   11  C8  UNL     1      46.326   4.440   9.996  1.00  0.00    -0.026 A 
HETATM   12  C9  UNL     1      45.769   5.299   9.076  1.00  0.00     0.096 A 
HETATM   13  N2  UNL     1      44.499   4.942   8.810  1.00  0.00    -0.365 N 
HETATM   14  C10 UNL     1      44.229   3.845   9.561  1.00  0.00     0.042 A 
ATOM     15  H2  UNL     1      43.861   5.408   8.165  1.00  0.00     0.165 HD
HETATM   16  C11 UNL     1      43.088   3.067   9.687  1.00  0.00     0.030 A 
HETATM   17  C15 UNL     1      45.349   3.504  10.315  1.00  0.00    -0.002 A 
HETATM   18  C12 UNL     1      43.049   1.978  10.536  1.00  0.00     0.002 A 
HETATM   19  C13 UNL     1      44.173   1.662  11.271  1.00  0.00     0.001 A 
HETATM   20  C14 UNL     1      45.323   2.431  11.158  1.00  0.00     0.014 A 
ENDBRANCH  10  11
ENDBRANCH   3  10
BRANCH   1  21
HETATM   21  C4  UNL     1      48.292   9.289  11.712  1.00  0.00     0.128 C 
BRANCH  21  22
HETATM   22  C3  UNL     1      49.099   9.555  12.961  1.00  0.00     0.020 C 
BRANCH  22  23
HETATM   23  C2  UNL     1      49.170  11.012  13.331  1.00  0.00    -0.003 C 
HETATM   24  C1  UNL     1      47.793  11.519  13.781  1.00  0.00     0.005 C 
ENDBRANCH  22  23
ENDBRANCH  21  22
ENDBRANCH   1  21
TORSDOF 5
ENDMDL
MODEL 2
REMARK VINA RESULT: -9.817427346      1.232      3.298
REMARK  5 active torsions:
REMARK  status: ('A' for Active; 'I' for Inactive)
REMARK    1  A    between atoms: C2_2  and  C3_3 
REMARK    2  A    between atoms: C3_3  and  C4_4 
REMARK    3  A    between atoms: C4_4  and  N1_5 
REMARK    4  A    between atoms: C6_7  and  C7_8 
REMARK    5  A    between atoms: C7_8  and  C8_9 
ROOT
HETATM    1  N1  UNL     1      50.646   6.693   9.577  1.00  0.00    -0.356 N 
HETATM    2  C5  UNL     1      50.088   5.470   9.574  1.00  0.00     0.099 A 
HETATM    3  C6  UNL     1      48.980   5.520  10.387  1.00  0.00    -0.026 A 
HETATM    4  C16 UNL     1      48.856   6.793  10.897  1.00  0.00    -0.001 A 
HETATM    5  C17 UNL     1      47.980   7.436  11.745  1.00  0.00     0.014 A 
HETATM    6  C18 UNL     1      48.165   8.746  12.050  1.00  0.00     0.001 A 
HETATM    7  C19 UNL     1      49.216   9.470  11.535  1.00  0.00     0.002 A 
HETATM    8  C20 UNL     1      50.107   8.849  10.683  1.00  0.00     0.030 A 
HETATM    9  C21 UNL     1      49.919   7.516  10.372  1.00  0.00     0.045 A 
ENDROOT
BRANCH   3  10
HETATM   10  C7  UNL     1      48.058   4.394  10.663  1.00  0.00     0.082 C 
BRANCH  10  11
HETATM   11  C8  UNL     1      46.731   4.530  10.024  1.00  0.00    -0.026 A 
HETATM   12  C9  UNL     1      46.358   5.441   9.063  1.00  0.00     0.096 A 
HETATM   13  N2  UNL     1      45.073   5.254   8.712  1.00  0.00    -0.365 N 
HETATM   14  C10 UNL     1      44.607   4.214   9.449  1.00  0.00     0.042 A 
ATOM     15  H2  UNL     1      44.548   5.792   8.022  1.00  0.00     0.165 HD
HETATM   16  C11 UNL     1      43.366   3.598   9.501  1.00  0.00     0.030 A 
HETATM   17  C15 UNL     1      45.618   3.738  10.280  1.00  0.00    -0.002 A 
HETATM   18  C12 UNL     1      43.123   2.537  10.351  1.00  0.00     0.002 A 
HETATM   19  C13 UNL     1      44.143   2.084  11.163  1.00  0.00     0.001 A 
HETATM   20  C14 UNL     1      45.391   2.690  11.125  1.00  0.00     0.014 A 
ENDBRANCH  10  11
ENDBRANCH   3  10
BRANCH   1  21
HETATM   21  C4  UNL     1      51.837   7.094   8.855  1.00  0.00     0.128 C 
BRANCH  21  22
HETATM   22  C3  UNL     1      51.521   7.902   7.619  1.00  0.00     0.020 C 
BRANCH  22  23
HETATM   23  C2  UNL     1      52.259   9.212   7.553  1.00  0.00    -0.003 C 
HETATM   24  C1  UNL     1      53.278   9.312   8.696  1.00  0.00     0.005 C 
ENDBRANCH  22  23
ENDBRANCH  21  22
ENDBRANCH   1  21
TORSDOF 5
ENDMDL
MODEL 3
REMARK VINA RESULT: -9.406497803      2.375      8.306
REMARK  5 active torsions:
REMARK  status: ('A' for Active; 'I' for Inactive)
REMARK    1  A    between atoms: C2_2  and  C3_3 
REMARK    2  A    between atoms: C3_3  and  C4_4 
REMARK    3  A    between atoms: C4_4  and  N1_5 
REMARK    4  A    between atoms: C6_7  and  C7_8 
REMARK    5  A    between atoms: C7_8  and  C8_9 
ROOT
HETATM    1  N1  UNL     1      42.937   1.167  10.635  1.00  0.00    -0.356 N 
HETATM    2  C5  UNL     1      43.268   2.380  10.158  1.00  0.00     0.099 A 
HETATM    3  C6  UNL     1      44.161   2.941  11.041  1.00  0.00    -0.026 A 
HETATM    4  C16 UNL     1      44.382   2.058  12.075  1.00  0.00    -0.001 A 
HETATM    5  C17 UNL     1      45.145   2.054  13.223  1.00  0.00     0.014 A 
HETATM    6  C18 UNL     1      45.120   0.980  14.053  1.00  0.00     0.001 A 
HETATM    7  C19 UNL     1      44.347  -0.126  13.786  1.00  0.00     0.002 A 
HETATM    8  C20 UNL     1      43.574  -0.147  12.642  1.00  0.00     0.030 A 
HETATM    9  C21 UNL     1      43.598   0.947  11.798  1.00  0.00     0.045 A 
ENDROOT
BRANCH   3  10
HETATM   10  C7  UNL     1      44.796   4.272  10.901  1.00  0.00     0.082 C 
BRANCH  10  11
HETATM   11  C8  UNL     1      46.243   4.221  10.599  1.00  0.00    -0.026 A 
HETATM   12  C9  UNL     1      46.951   3.158  10.088  1.00  0.00     0.096 A 
HETATM   13  N2  UNL     1      48.247   3.487   9.935  1.00  0.00    -0.365 N 
HETATM   14  C10 UNL     1      48.382   4.772  10.350  1.00  0.00     0.042 A 
ATOM     15  H2  UNL     1      48.988   2.884   9.576  1.00  0.00     0.165 HD
HETATM   16  C11 UNL     1      49.484   5.612  10.417  1.00  0.00     0.030 A 
HETATM   17  C15 UNL     1      47.149   5.261  10.772  1.00  0.00    -0.002 A 
HETATM   18  C12 UNL     1      49.374   6.906  10.888  1.00  0.00     0.002 A 
HETATM   19  C13 UNL     1      48.139   7.366  11.299  1.00  0.00     0.001 A 
HETATM   20  C14 UNL     1      47.027   6.538  11.240  1.00  0.00     0.014 A 
ENDBRANCH  10  11
ENDBRANCH   3  10
BRANCH   1  21
HETATM   21  C4  UNL     1      42.020   0.227  10.023  1.00  0.00     0.128 C 
BRANCH  21  22
HETATM   22  C3  UNL     1      42.711  -0.719   9.069  1.00  0.00     0.020 C 
BRANCH  22  23
HETATM   23  C2  UNL     1      43.899  -1.418   9.672  1.00  0.00    -0.003 C 
HETATM   24  C1  UNL     1      45.199  -0.704   9.278  1.00  0.00     0.005 C 
ENDBRANCH  22  23
ENDBRANCH  21  22
ENDBRANCH   1  21
TORSDOF 5
ENDMDL
MODEL 4
REMARK VINA RESULT: -9.206236449      2.030      8.203
REMARK  5 active torsions:
REMARK  status: ('A' for Active; 'I' for Inactive)
REMARK    1  A    between atoms: C2_2  and  C3_3 
REMARK    2  A    between atoms: C3_3  and  C4_4 
REMARK    3  A    between atoms: C4_4  and  N1_5 
REMARK    4  A    between atoms: C6_7  and  C7_8 
REMARK    5  A    between atoms: C7_8  and  C8_9 
ROOT
HETATM    1  N1  UNL     1      44.513   1.574  11.292  1.00  0.00    -0.356 N 
HETATM    2  C5  UNL     1      45.391   2.593  11.318  1.00  0.00     0.099 A 
HETATM    3  C6  UNL     1      44.786   3.675  10.723  1.00  0.00    -0.026 A 
HETATM    4  C16 UNL     1      43.517   3.315  10.325  1.00  0.00    -0.001 A 
HETATM    5  C17 UNL     1      42.466   3.943   9.692  1.00  0.00     0.014 A 
HETATM    6  C18 UNL     1      41.318   3.263   9.443  1.00  0.00     0.001 A 
HETATM    7  C19 UNL     1      41.161   1.945   9.805  1.00  0.00     0.002 A 
HETATM    8  C20 UNL     1      42.199   1.294  10.441  1.00  0.00     0.030 A 
HETATM    9  C21 UNL     1      43.368   1.985  10.695  1.00  0.00     0.045 A 
ENDROOT
BRANCH   3  10
HETATM   10  C7  UNL     1      45.391   5.016  10.547  1.00  0.00     0.082 C 
BRANCH  10  11
HETATM   11  C8  UNL     1      46.860   4.998  10.380  1.00  0.00    -0.026 A 
HETATM   12  C9  UNL     1      47.616   4.027   9.765  1.00  0.00     0.096 A 
HETATM   13  N2  UNL     1      48.920   4.360   9.793  1.00  0.00    -0.365 N 
HETATM   14  C10 UNL     1      49.011   5.555  10.430  1.00  0.00     0.042 A 
ATOM     15  H2  UNL     1      49.693   3.817   9.408  1.00  0.00     0.165 HD
HETATM   16  C11 UNL     1      50.098   6.357  10.741  1.00  0.00     0.030 A 
HETATM   17  C15 UNL     1      47.741   5.982  10.810  1.00  0.00    -0.002 A 
HETATM   18  C12 UNL     1      49.941   7.554  11.411  1.00  0.00     0.002 A 
HETATM   19  C13 UNL     1      48.671   7.955  11.777  1.00  0.00     0.001 A 
HETATM   20  C14 UNL     1      47.572   7.163  11.474  1.00  0.00     0.014 A 
ENDBRANCH  10  11
ENDBRANCH   3  10
BRANCH   1  21
HETATM   21  C4  UNL     1      44.733   0.240  11.811  1.00  0.00     0.128 C 
BRANCH  21  22
HETATM   22  C3  UNL     1      44.431   0.135  13.287  1.00  0.00     0.020 C 
BRANCH  22  23
HETATM   23  C2  UNL     1      43.766  -1.159  13.673  1.00  0.00    -0.003 C 
HETATM   24  C1  UNL     1      43.834  -2.164  12.515  1.00  0.00     0.005 C 
ENDBRANCH  22  23
ENDBRANCH  21  22
ENDBRANCH   1  21
TORSDOF 5
ENDMDL
MODEL 5
REMARK VINA RESULT: -9.199659514      1.936      4.129
REMARK  5 active torsions:
REMARK  status: ('A' for Active; 'I' for Inactive)
REMARK    1  A    between atoms: C2_2  and  C3_3 
REMARK    2  A    between atoms: C3_3  and  C4_4 
REMARK    3  A    between atoms: C4_4  and  N1_5 
REMARK    4  A    between atoms: C6_7  and  C7_8 
REMARK    5  A    between atoms: C7_8  and  C8_9 
ROOT
HETATM    1  N1  UNL     1      50.706   8.987   9.274  1.00  0.00    -0.356 N 
HETATM    2  C5  UNL     1      49.981   8.138   8.524  1.00  0.00     0.099 A 
HETATM    3  C6  UNL     1      48.861   7.801   9.248  1.00  0.00    -0.026 A 
HETATM    4  C16 UNL     1      48.900   8.452  10.461  1.00  0.00    -0.001 A 
HETATM    5  C17 UNL     1      48.092   8.510  11.576  1.00  0.00     0.014 A 
HETATM    6  C18 UNL     1      48.449   9.280  12.636  1.00  0.00     0.001 A 
HETATM    7  C19 UNL     1      49.610  10.018  12.639  1.00  0.00     0.002 A 
HETATM    8  C20 UNL     1      50.435   9.978  11.534  1.00  0.00     0.030 A 
HETATM    9  C21 UNL     1      50.073   9.194  10.455  1.00  0.00     0.045 A 
ENDROOT
BRANCH   3  10
HETATM   10  C7  UNL     1      47.779   6.895   8.796  1.00  0.00     0.082 C 
BRANCH  10  11
HETATM   11  C8  UNL     1      47.742   5.599   9.508  1.00  0.00    -0.026 A 
HETATM   12  C9  UNL     1      48.796   4.944  10.101  1.00  0.00     0.096 A 
HETATM   13  N2  UNL     1      48.378   3.794  10.663  1.00  0.00    -0.365 N 
HETATM   14  C10 UNL     1      47.043   3.703  10.433  1.00  0.00     0.042 A 
ATOM     15  H2  UNL     1      48.954   3.120  11.166  1.00  0.00     0.165 HD
HETATM   16  C11 UNL     1      46.109   2.738  10.778  1.00  0.00     0.030 A 
HETATM   17  C15 UNL     1      46.614   4.815   9.714  1.00  0.00    -0.002 A 
HETATM   18  C12 UNL     1      44.780   2.864  10.424  1.00  0.00     0.002 A 
HETATM   19  C13 UNL     1      44.380   3.976   9.711  1.00  0.00     0.001 A 
HETATM   20  C14 UNL     1      45.303   4.951   9.356  1.00  0.00     0.014 A 
ENDBRANCH  10  11
ENDBRANCH   3  10
BRANCH   1  21
HETATM   21  C4  UNL     1      51.967   9.595   8.903  1.00  0.00     0.128 C 
BRANCH  21  22
HETATM   22  C3  UNL     1      53.127   8.633   9.000  1.00  0.00     0.020 C 
BRANCH  22  23
HETATM   23  C2  UNL     1      54.468   9.287   8.807  1.00  0.00    -0.003 C 
HETATM   24  C1  UNL     1      54.492  10.087   7.498  1.00  0.00     0.005 C 
ENDBRANCH  22  23
ENDBRANCH  21  22
ENDBRANCH   1  21
TORSDOF 5
ENDMDL
