MODEL 1
REMARK VINA RESULT: -8.832980786      0.000      0.000
REMARK  8 active torsions:
REMARK  status: ('A' for Active; 'I' for Inactive)
REMARK    1  A    between atoms: C2_2  and  C5_5 
REMARK    2  A    between atoms: C8_8  and  C9_9 
REMARK    3  A    between atoms: C9_9  and  N1_10 
REMARK       I    between atoms: N1_10  and  C10_12 
REMARK    4  A    between atoms: C10_12  and  C11_14 
REMARK    5  A    between atoms: C11_14  and  S1_15 
REMARK    6  A    between atoms: S1_15  and  C12_16 
REMARK    7  A    between atoms: C14_20  and  N3_21 
REMARK    8  A    between atoms: N3_21  and  C15_23 
ROOT
HETATM    1  S1  UNL     1      55.342  41.942  18.496  1.00  0.00    -0.114 SA
ENDROOT
BRANCH   1   2
HETATM    2  C11 UNL     1      56.933  41.581  17.758  1.00  0.00     0.182 C 
BRANCH   2   3
HETATM    3  C10 UNL     1      57.628  40.419  18.360  1.00  0.00     0.227 C 
HETATM    4  N1  UNL     1      58.466  39.546  17.643  1.00  0.00    -0.360 N 
ATOM      5  H1  UNL     1      58.601  39.753  16.654  1.00  0.00     0.162 HD
HETATM    6  O1  UNL     1      57.401  40.264  19.616  1.00  0.00    -0.273 OA
BRANCH   4   7
HETATM    7  C9  UNL     1      59.154  38.389  18.160  1.00  0.00     0.127 C 
BRANCH   7   8
HETATM    8  C8  UNL     1      58.429  37.160  17.666  1.00  0.00     0.003 C 
HETATM    9  C7  UNL     1      59.135  35.872  18.009  1.00  0.00     0.006 C 
HETATM   10  C6  UNL     1      58.404  34.703  17.419  1.00  0.00     0.006 C 
HETATM   11  C5  UNL     1      57.180  35.021  16.667  1.00  0.00    -0.007 C 
HETATM   12  C22 UNL     1      57.243  36.219  15.770  1.00  0.00     0.006 C 
HETATM   13  C21 UNL     1      58.363  37.168  16.131  1.00  0.00     0.006 C 
BRANCH  11  14
HETATM   14  C2  UNL     1      56.853  33.829  15.763  1.00  0.00    -0.048 C 
HETATM   15  C1  UNL     1      57.333  32.520  16.344  1.00  0.00     0.015 C 
HETATM   16  C3  UNL     1      55.344  33.754  15.626  1.00  0.00     0.015 C 
HETATM   17  C4  UNL     1      57.432  34.024  14.376  1.00  0.00     0.015 C 
ENDBRANCH  11  14
ENDBRANCH   7   8
ENDBRANCH   4   7
ENDBRANCH   2   3
ENDBRANCH   1   2
BRANCH   1  18
HETATM   18  C12 UNL     1      53.947  41.500  17.506  1.00  0.00     0.085 A 
HETATM   19  C13 UNL     1      53.734  42.033  16.232  1.00  0.00     0.130 A 
HETATM   20  N2  UNL     1      52.700  41.626  15.508  1.00  0.00    -0.200 N 
HETATM   21  C14 UNL     1      51.799  40.695  15.924  1.00  0.00     0.681 A 
ATOM     22  H2  UNL     1      52.574  42.035  14.582  1.00  0.00     0.183 HD
HETATM   23  N4  UNL     1      51.989  40.178  17.139  1.00  0.00    -0.155 N 
HETATM   24  C20 UNL     1      53.038  40.566  17.921  1.00  0.00     0.277 A 
ATOM     25  H4  UNL     1      51.336  39.478  17.491  1.00  0.00     0.187 HD
HETATM   26  O2  UNL     1      53.138  40.030  19.043  1.00  0.00    -0.266 OA
BRANCH  21  27
HETATM   27  N3  UNL     1      50.841  40.350  15.155  1.00  0.00    -0.221 N 
ATOM     28  H3  UNL     1      50.276  41.104  14.764  1.00  0.00     0.178 HD
BRANCH  27  29
HETATM   29  C15 UNL     1      50.479  39.040  14.789  1.00  0.00     0.099 C 
HETATM   30  C16 UNL     1      51.119  38.761  13.415  1.00  0.00     0.026 C 
HETATM   31  C17 UNL     1      50.019  38.873  12.406  1.00  0.00     0.002 C 
HETATM   32  C18 UNL     1      48.867  39.490  13.129  1.00  0.00     0.002 C 
HETATM   33  C19 UNL     1      48.986  38.861  14.520  1.00  0.00     0.026 C 
ENDBRANCH  27  29
ENDBRANCH  21  27
ENDBRANCH   1  18
TORSDOF 8
ENDMDL
MODEL 2
REMARK VINA RESULT: -8.705075397      2.318      6.181
REMARK  8 active torsions:
REMARK  status: ('A' for Active; 'I' for Inactive)
REMARK    1  A    between atoms: C2_2  and  C5_5 
REMARK    2  A    between atoms: C8_8  and  C9_9 
REMARK    3  A    between atoms: C9_9  and  N1_10 
REMARK       I    between atoms: N1_10  and  C10_12 
REMARK    4  A    between atoms: C10_12  and  C11_14 
REMARK    5  A    between atoms: C11_14  and  S1_15 
REMARK    6  A    between atoms: S1_15  and  C12_16 
REMARK    7  A    between atoms: C14_20  and  N3_21 
REMARK    8  A    between atoms: N3_21  and  C15_23 
ROOT
HETATM    1  S1  UNL     1      52.439  41.329  16.049  1.00  0.00    -0.114 SA
ENDROOT
BRANCH   1   2
HETATM    2  C11 UNL     1      52.326  41.025  14.288  1.00  0.00     0.182 C 
BRANCH   2   3
HETATM    3  C10 UNL     1      52.335  39.589  13.922  1.00  0.00     0.227 C 
HETATM    4  N1  UNL     1      53.373  38.966  13.205  1.00  0.00    -0.360 N 
ATOM      5  H1  UNL     1      54.164  39.554  12.944  1.00  0.00     0.162 HD
HETATM    6  O1  UNL     1      51.298  38.940  14.317  1.00  0.00    -0.273 OA
BRANCH   4   7
HETATM    7  C9  UNL     1      53.435  37.584  12.800  1.00  0.00     0.127 C 
BRANCH   7   8
HETATM    8  C8  UNL     1      54.517  36.912  13.612  1.00  0.00     0.003 C 
HETATM    9  C7  UNL     1      55.667  37.829  13.950  1.00  0.00     0.006 C 
HETATM   10  C6  UNL     1      56.736  37.077  14.683  1.00  0.00     0.006 C 
HETATM   11  C5  UNL     1      56.463  35.654  14.940  1.00  0.00    -0.007 C 
HETATM   12  C22 UNL     1      55.834  34.885  13.820  1.00  0.00     0.006 C 
HETATM   13  C21 UNL     1      55.155  35.774  12.802  1.00  0.00     0.006 C 
BRANCH  11  14
HETATM   14  C2  UNL     1      57.795  34.960  15.238  1.00  0.00    -0.048 C 
HETATM   15  C1  UNL     1      57.736  33.471  14.985  1.00  0.00     0.015 C 
HETATM   16  C3  UNL     1      58.841  35.549  14.313  1.00  0.00     0.015 C 
HETATM   17  C4  UNL     1      58.239  35.225  16.663  1.00  0.00     0.015 C 
ENDBRANCH  11  14
ENDBRANCH   7   8
ENDBRANCH   4   7
ENDBRANCH   2   3
ENDBRANCH   1   2
BRANCH   1  18
HETATM   18  C12 UNL     1      54.069  41.205  16.720  1.00  0.00     0.085 A 
HETATM   19  C13 UNL     1      55.189  40.951  15.925  1.00  0.00     0.130 A 
HETATM   20  N2  UNL     1      56.397  40.923  16.471  1.00  0.00    -0.200 N 
HETATM   21  C14 UNL     1      56.639  41.130  17.794  1.00  0.00     0.681 A 
ATOM     22  H2  UNL     1      57.193  40.735  15.862  1.00  0.00     0.183 HD
HETATM   23  N4  UNL     1      55.579  41.373  18.567  1.00  0.00    -0.155 N 
HETATM   24  C20 UNL     1      54.316  41.412  18.050  1.00  0.00     0.277 A 
ATOM     25  H4  UNL     1      55.715  41.534  19.565  1.00  0.00     0.187 HD
HETATM   26  O2  UNL     1      53.385  41.646  18.846  1.00  0.00    -0.266 OA
BRANCH  21  27
HETATM   27  N3  UNL     1      57.837  41.101  18.234  1.00  0.00    -0.221 N 
ATOM     28  H3  UNL     1      58.395  41.943  18.093  1.00  0.00     0.178 HD
BRANCH  27  29
HETATM   29  C15 UNL     1      58.471  40.031  18.893  1.00  0.00     0.099 C 
HETATM   30  C16 UNL     1      59.981  40.341  18.910  1.00  0.00     0.026 C 
HETATM   31  C17 UNL     1      60.600  39.479  17.855  1.00  0.00     0.002 C 
HETATM   32  C18 UNL     1      59.462  38.928  17.061  1.00  0.00     0.002 C 
HETATM   33  C19 UNL     1      58.396  38.705  18.138  1.00  0.00     0.026 C 
ENDBRANCH  27  29
ENDBRANCH  21  27
ENDBRANCH   1  18
TORSDOF 8
ENDMDL
MODEL 3
REMARK VINA RESULT: -8.669031407      3.743      5.061
REMARK  8 active torsions:
REMARK  status: ('A' for Active; 'I' for Inactive)
REMARK    1  A    between atoms: C2_2  and  C5_5 
REMARK    2  A    between atoms: C8_8  and  C9_9 
REMARK    3  A    between atoms: C9_9  and  N1_10 
REMARK       I    between atoms: N1_10  and  C10_12 
REMARK    4  A    between atoms: C10_12  and  C11_14 
REMARK    5  A    between atoms: C11_14  and  S1_15 
REMARK    6  A    between atoms: S1_15  and  C12_16 
REMARK    7  A    between atoms: C14_20  and  N3_21 
REMARK    8  A    between atoms: N3_21  and  C15_23 
ROOT
HETATM    1  S1  UNL     1      54.778  41.743  17.169  1.00  0.00    -0.114 SA
ENDROOT
BRANCH   1   2
HETATM    2  C11 UNL     1      55.883  41.696  18.577  1.00  0.00     0.182 C 
BRANCH   2   3
HETATM    3  C10 UNL     1      57.077  40.841  18.379  1.00  0.00     0.227 C 
HETATM    4  N1  UNL     1      57.625  40.535  17.120  1.00  0.00    -0.360 N 
ATOM      5  H1  UNL     1      57.166  40.950  16.309  1.00  0.00     0.162 HD
HETATM    6  O1  UNL     1      57.585  40.388  19.469  1.00  0.00    -0.273 OA
BRANCH   4   7
HETATM    7  C9  UNL     1      58.768  39.698  16.856  1.00  0.00     0.127 C 
BRANCH   7   8
HETATM    8  C8  UNL     1      58.273  38.282  16.676  1.00  0.00     0.003 C 
HETATM    9  C7  UNL     1      58.936  37.295  17.605  1.00  0.00     0.006 C 
HETATM   10  C6  UNL     1      58.457  35.904  17.317  1.00  0.00     0.006 C 
HETATM   11  C5  UNL     1      57.460  35.776  16.242  1.00  0.00    -0.007 C 
HETATM   12  C22 UNL     1      57.689  36.609  15.020  1.00  0.00     0.006 C 
HETATM   13  C21 UNL     1      58.616  37.777  15.267  1.00  0.00     0.006 C 
BRANCH  11  14
HETATM   14  C2  UNL     1      57.454  34.319  15.770  1.00  0.00    -0.048 C 
HETATM   15  C1  UNL     1      58.053  33.381  16.792  1.00  0.00     0.015 C 
HETATM   16  C3  UNL     1      56.010  33.910  15.552  1.00  0.00     0.015 C 
HETATM   17  C4  UNL     1      58.178  34.173  14.446  1.00  0.00     0.015 C 
ENDBRANCH  11  14
ENDBRANCH   7   8
ENDBRANCH   4   7
ENDBRANCH   2   3
ENDBRANCH   1   2
BRANCH   1  18
HETATM   18  C12 UNL     1      55.025  43.111  16.077  1.00  0.00     0.085 A 
HETATM   19  C13 UNL     1      55.393  42.945  14.740  1.00  0.00     0.130 A 
HETATM   20  N2  UNL     1      55.511  44.003  13.949  1.00  0.00    -0.200 N 
HETATM   21  C14 UNL     1      55.296  45.284  14.354  1.00  0.00     0.681 A 
ATOM     22  H2  UNL     1      55.781  43.846  12.978  1.00  0.00     0.183 HD
HETATM   23  N4  UNL     1      54.945  45.458  15.629  1.00  0.00    -0.155 N 
HETATM   24  C20 UNL     1      54.810  44.400  16.481  1.00  0.00     0.277 A 
ATOM     25  H4  UNL     1      54.774  46.402  15.975  1.00  0.00     0.187 HD
HETATM   26  O2  UNL     1      54.479  44.657  17.656  1.00  0.00    -0.266 OA
BRANCH  21  27
HETATM   27  N3  UNL     1      55.418  46.243  13.521  1.00  0.00    -0.221 N 
ATOM     28  H3  UNL     1      56.356  46.415  13.159  1.00  0.00     0.178 HD
BRANCH  27  29
HETATM   29  C15 UNL     1      54.398  47.089  13.049  1.00  0.00     0.099 C 
HETATM   30  C16 UNL     1      54.035  46.612  11.628  1.00  0.00     0.026 C 
HETATM   31  C17 UNL     1      54.671  47.583  10.682  1.00  0.00     0.002 C 
HETATM   32  C18 UNL     1      55.609  48.399  11.508  1.00  0.00     0.002 C 
HETATM   33  C19 UNL     1      54.842  48.534  12.827  1.00  0.00     0.026 C 
ENDBRANCH  27  29
ENDBRANCH  21  27
ENDBRANCH   1  18
TORSDOF 8
ENDMDL
MODEL 4
REMARK VINA RESULT: -8.610948905      2.344      6.251
REMARK  8 active torsions:
REMARK  status: ('A' for Active; 'I' for Inactive)
REMARK    1  A    between atoms: C2_2  and  C5_5 
REMARK    2  A    between atoms: C8_8  and  C9_9 
REMARK    3  A    between atoms: C9_9  and  N1_10 
REMARK       I    between atoms: N1_10  and  C10_12 
REMARK    4  A    between atoms: C10_12  and  C11_14 
REMARK    5  A    between atoms: C11_14  and  S1_15 
REMARK    6  A    between atoms: S1_15  and  C12_16 
REMARK    7  A    between atoms: C14_20  and  N3_21 
REMARK    8  A    between atoms: N3_21  and  C15_23 
ROOT
HETATM    1  S1  UNL     1      52.188  41.133  16.342  1.00  0.00    -0.114 SA
ENDROOT
BRANCH   1   2
HETATM    2  C11 UNL     1      51.970  40.949  14.574  1.00  0.00     0.182 C 
BRANCH   2   3
HETATM    3  C10 UNL     1      51.920  39.540  14.117  1.00  0.00     0.227 C 
HETATM    4  N1  UNL     1      52.972  38.894  13.441  1.00  0.00    -0.360 N 
ATOM      5  H1  UNL     1      53.816  39.444  13.279  1.00  0.00     0.162 HD
HETATM    6  O1  UNL     1      50.818  38.938  14.389  1.00  0.00    -0.273 OA
BRANCH   4   7
HETATM    7  C9  UNL     1      52.981  37.538  12.952  1.00  0.00     0.127 C 
BRANCH   7   8
HETATM    8  C8  UNL     1      54.363  36.973  13.183  1.00  0.00     0.003 C 
HETATM    9  C7  UNL     1      54.397  35.464  13.188  1.00  0.00     0.006 C 
HETATM   10  C6  UNL     1      55.778  34.975  13.503  1.00  0.00     0.006 C 
HETATM   11  C5  UNL     1      56.797  36.015  13.720  1.00  0.00    -0.007 C 
HETATM   12  C22 UNL     1      56.372  37.205  14.523  1.00  0.00     0.006 C 
HETATM   13  C21 UNL     1      54.871  37.375  14.576  1.00  0.00     0.006 C 
BRANCH  11  14
HETATM   14  C2  UNL     1      57.968  35.385  14.479  1.00  0.00    -0.048 C 
HETATM   15  C1  UNL     1      58.121  33.912  14.178  1.00  0.00     0.015 C 
HETATM   16  C3  UNL     1      59.237  36.086  14.036  1.00  0.00     0.015 C 
HETATM   17  C4  UNL     1      57.823  35.596  15.973  1.00  0.00     0.015 C 
ENDBRANCH  11  14
ENDBRANCH   7   8
ENDBRANCH   4   7
ENDBRANCH   2   3
ENDBRANCH   1   2
BRANCH   1  18
HETATM   18  C12 UNL     1      53.867  41.084  16.892  1.00  0.00     0.085 A 
HETATM   19  C13 UNL     1      54.934  40.852  16.020  1.00  0.00     0.130 A 
HETATM   20  N2  UNL     1      56.179  40.881  16.474  1.00  0.00    -0.200 N 
HETATM   21  C14 UNL     1      56.511  41.127  17.771  1.00  0.00     0.681 A 
ATOM     22  H2  UNL     1      56.935  40.708  15.811  1.00  0.00     0.183 HD
HETATM   23  N4  UNL     1      55.503  41.349  18.615  1.00  0.00    -0.155 N 
HETATM   24  C20 UNL     1      54.204  41.330  18.194  1.00  0.00     0.277 A 
ATOM     25  H4  UNL     1      55.706  41.537  19.597  1.00  0.00     0.187 HD
HETATM   26  O2  UNL     1      53.327  41.548  19.053  1.00  0.00    -0.266 OA
BRANCH  21  27
HETATM   27  N3  UNL     1      57.738  41.151  18.120  1.00  0.00    -0.221 N 
ATOM     28  H3  UNL     1      58.261  41.996  17.889  1.00  0.00     0.178 HD
BRANCH  27  29
HETATM   29  C15 UNL     1      58.448  40.137  18.789  1.00  0.00     0.099 C 
HETATM   30  C16 UNL     1      59.947  40.474  18.662  1.00  0.00     0.026 C 
HETATM   31  C17 UNL     1      60.498  39.557  17.615  1.00  0.00     0.002 C 
HETATM   32  C18 UNL     1      59.312  38.937  16.953  1.00  0.00     0.002 C 
HETATM   33  C19 UNL     1      58.343  38.764  18.127  1.00  0.00     0.026 C 
ENDBRANCH  27  29
ENDBRANCH  21  27
ENDBRANCH   1  18
TORSDOF 8
ENDMDL
MODEL 5
REMARK VINA RESULT: -8.583794322      2.420      6.142
REMARK  8 active torsions:
REMARK  status: ('A' for Active; 'I' for Inactive)
REMARK    1  A    between atoms: C2_2  and  C5_5 
REMARK    2  A    between atoms: C8_8  and  C9_9 
REMARK    3  A    between atoms: C9_9  and  N1_10 
REMARK       I    between atoms: N1_10  and  C10_12 
REMARK    4  A    between atoms: C10_12  and  C11_14 
REMARK    5  A    between atoms: C11_14  and  S1_15 
REMARK    6  A    between atoms: S1_15  and  C12_16 
REMARK    7  A    between atoms: C14_20  and  N3_21 
REMARK    8  A    between atoms: N3_21  and  C15_23 
ROOT
HETATM    1  S1  UNL     1      52.116  41.557  15.503  1.00  0.00    -0.114 SA
ENDROOT
BRANCH   1   2
HETATM    2  C11 UNL     1      51.134  40.101  15.151  1.00  0.00     0.182 C 
BRANCH   2   3
HETATM    3  C10 UNL     1      51.625  39.306  14.001  1.00  0.00     0.227 C 
HETATM    4  N1  UNL     1      52.724  38.430  14.062  1.00  0.00    -0.360 N 
ATOM      5  H1  UNL     1      53.187  38.342  14.966  1.00  0.00     0.162 HD
HETATM    6  O1  UNL     1      50.956  39.482  12.918  1.00  0.00    -0.273 OA
BRANCH   4   7
HETATM    7  C9  UNL     1      53.265  37.645  12.980  1.00  0.00     0.127 C 
BRANCH   7   8
HETATM    8  C8  UNL     1      54.210  36.628  13.574  1.00  0.00     0.003 C 
HETATM    9  C7  UNL     1      54.934  37.129  14.800  1.00  0.00     0.006 C 
HETATM   10  C6  UNL     1      55.911  36.101  15.286  1.00  0.00     0.006 C 
HETATM   11  C5  UNL     1      55.960  34.846  14.519  1.00  0.00    -0.007 C 
HETATM   12  C22 UNL     1      55.900  34.975  13.029  1.00  0.00     0.006 C 
HETATM   13  C21 UNL     1      55.327  36.298  12.573  1.00  0.00     0.006 C 
BRANCH  11  14
HETATM   14  C2  UNL     1      57.287  34.149  14.833  1.00  0.00    -0.048 C 
HETATM   15  C1  UNL     1      57.935  33.565  13.599  1.00  0.00     0.015 C 
HETATM   16  C3  UNL     1      58.230  35.187  15.408  1.00  0.00     0.015 C 
HETATM   17  C4  UNL     1      57.099  33.068  15.879  1.00  0.00     0.015 C 
ENDBRANCH  11  14
ENDBRANCH   7   8
ENDBRANCH   4   7
ENDBRANCH   2   3
ENDBRANCH   1   2
BRANCH   1  18
HETATM   18  C12 UNL     1      53.750  41.225  16.088  1.00  0.00     0.085 A 
HETATM   19  C13 UNL     1      54.844  41.107  15.227  1.00  0.00     0.130 A 
HETATM   20  N2  UNL     1      56.059  40.913  15.722  1.00  0.00    -0.200 N 
HETATM   21  C14 UNL     1      56.333  40.816  17.051  1.00  0.00     0.681 A 
ATOM     22  H2  UNL     1      56.836  40.832  15.065  1.00  0.00     0.183 HD
HETATM   23  N4  UNL     1      55.298  40.926  17.886  1.00  0.00    -0.155 N 
HETATM   24  C20 UNL     1      54.029  41.127  17.423  1.00  0.00     0.277 A 
ATOM     25  H4  UNL     1      55.458  40.859  18.891  1.00  0.00     0.187 HD
HETATM   26  O2  UNL     1      53.123  41.217  18.276  1.00  0.00    -0.266 OA
BRANCH  21  27
HETATM   27  N3  UNL     1      57.536  40.644  17.442  1.00  0.00    -0.221 N 
ATOM     28  H3  UNL     1      57.832  41.184  18.256  1.00  0.00     0.178 HD
BRANCH  27  29
HETATM   29  C15 UNL     1      58.497  39.790  16.872  1.00  0.00     0.099 C 
HETATM   30  C16 UNL     1      58.153  38.356  17.321  1.00  0.00     0.026 C 
HETATM   31  C17 UNL     1      59.129  38.007  18.402  1.00  0.00     0.002 C 
HETATM   32  C18 UNL     1      59.802  39.288  18.770  1.00  0.00     0.002 C 
HETATM   33  C19 UNL     1      59.910  39.995  17.415  1.00  0.00     0.026 C 
ENDBRANCH  27  29
ENDBRANCH  21  27
ENDBRANCH   1  18
TORSDOF 8
ENDMDL
