MODEL 1
REMARK VINA RESULT: -10.271978493      0.000      0.000
REMARK  10 active torsions:
REMARK  status: ('A' for Active; 'I' for Inactive)
REMARK    1  A    between atoms: C2_2  and  C3_3 
REMARK    2  A    between atoms: C2_2  and  C4_14 
REMARK    3  A    between atoms: C3_3  and  N3_9 
REMARK    4  A    between atoms: N1_4  and  N2_6 
REMARK    5  A    between atoms: N3_9  and  N4_11 
REMARK    6  A    between atoms: C6_16  and  C7_17 
REMARK    7  A    between atoms: C7_17  and  S1_18 
REMARK    8  A    between atoms: S1_18  and  C8_19 
REMARK    9  A    between atoms: C9_22  and  N6_23 
REMARK   10  A    between atoms: N6_23  and  C10_25 
ROOT
HETATM    1  S1  UNL     1      85.493  47.137   1.169  1.00  0.00    -0.087 SA
ENDROOT
BRANCH   1   2
HETATM    2  C7  UNL     1      84.897  45.722   2.078  1.00  0.00     0.141 C 
BRANCH   2   3
HETATM    3  C6  UNL     1      83.551  45.883   2.667  1.00  0.00     0.044 A 
HETATM    4  C5  UNL     1      82.555  46.792   2.486  1.00  0.00     0.063 A 
HETATM    5  C4  UNL     1      81.504  46.458   3.321  1.00  0.00     0.089 A 
HETATM    6  O2  UNL     1      81.882  45.402   3.957  1.00  0.00    -0.241 OA
HETATM    7  N13 UNL     1      83.074  45.024   3.610  1.00  0.00    -0.264 N 
ATOM      8  H13 UNL     1      83.573  44.216   3.983  1.00  0.00     0.194 HD
BRANCH   5   9
HETATM    9  C2  UNL     1      80.199  47.145   3.483  1.00  0.00     0.111 C 
HETATM   10  C1  UNL     1      79.369  47.060   2.221  1.00  0.00     0.025 C 
BRANCH   9  11
HETATM   11  C3  UNL     1      79.406  46.514   4.581  1.00  0.00     0.119 C 
HETATM   12  N1  UNL     1      78.167  46.248   4.457  1.00  0.00    -0.294 N 
ATOM     13  H1  UNL     1      77.709  46.477   3.574  1.00  0.00     0.187 HD
BRANCH  12  14
HETATM   14  N2  UNL     1      77.411  45.664   5.457  1.00  0.00    -0.344 N 
ATOM     15  H22 UNL     1      76.425  45.922   5.510  1.00  0.00     0.176 HD
ATOM     16  H21 UNL     1      77.790  44.999   6.131  1.00  0.00     0.176 HD
ENDBRANCH  12  14
BRANCH  11  17
HETATM   17  N3  UNL     1      80.077  46.209   5.797  1.00  0.00    -0.294 N 
ATOM     18  H3  UNL     1      79.822  45.368   6.313  1.00  0.00     0.187 HD
BRANCH  17  19
HETATM   19  N4  UNL     1      81.096  47.058   6.304  1.00  0.00    -0.344 N 
ATOM     20  H42 UNL     1      81.597  47.659   5.651  1.00  0.00     0.176 HD
ATOM     21  H41 UNL     1      81.325  47.068   7.297  1.00  0.00     0.176 HD
ENDBRANCH  17  19
ENDBRANCH  11  17
ENDBRANCH   9  11
ENDBRANCH   5   9
ENDBRANCH   2   3
ENDBRANCH   1   2
BRANCH   1  22
HETATM   22  C8  UNL     1      85.457  48.638   2.120  1.00  0.00     0.163 A 
HETATM   23  N5  UNL     1      85.991  49.787   1.611  1.00  0.00    -0.169 N 
HETATM   24  C9  UNL     1      85.975  50.939   2.302  1.00  0.00     0.702 A 
ATOM     25  H5  UNL     1      86.413  49.770   0.682  1.00  0.00     0.186 HD
HETATM   26  N11 UNL     1      85.434  51.020   3.530  1.00  0.00    -0.140 N 
HETATM   27  C13 UNL     1      84.904  49.895   4.042  1.00  0.00     0.340 A 
ATOM     28  H11 UNL     1      85.425  51.897   4.051  1.00  0.00     0.189 HD
HETATM   29  O1  UNL     1      84.395  49.975   5.202  1.00  0.00    -0.246 OA
HETATM   30  N12 UNL     1      84.924  48.745   3.345  1.00  0.00    -0.288 N 
ATOM     31  H12 UNL     1      84.513  47.913   3.769  1.00  0.00     0.172 HD
BRANCH  24  32
HETATM   32  N6  UNL     1      86.540  52.137   1.753  1.00  0.00    -0.021 N 
ATOM     33  H6  UNL     1      86.191  52.482   0.858  1.00  0.00     0.203 HD
BRANCH  32  34
HETATM   34  C10 UNL     1      87.563  52.858   2.412  1.00  0.00     0.708 C 
HETATM   35  N7  UNL     1      88.351  52.282   3.268  1.00  0.00    -0.210 N 
HETATM   36  C11 UNL     1      89.411  52.918   3.983  1.00  0.00     0.271 C 
ATOM     37  H7  UNL     1      88.201  51.288   3.446  1.00  0.00     0.179 HD
HETATM   38  N8  UNL     1      89.690  54.259   3.511  1.00  0.00    -0.105 NA
HETATM   39  N9  UNL     1      88.526  54.939   3.149  1.00  0.00    -0.013 NA
HETATM   40  N10 UNL     1      87.793  54.245   2.181  1.00  0.00    -0.115 N 
HETATM   41  C12 UNL     1      87.278  54.863   0.995  1.00  0.00     0.194 C 
ENDBRANCH  32  34
ENDBRANCH  24  32
ENDBRANCH   1  22
TORSDOF 10
ENDMDL
MODEL 2
REMARK VINA RESULT: -10.232330324      2.013      9.552
REMARK  10 active torsions:
REMARK  status: ('A' for Active; 'I' for Inactive)
REMARK    1  A    between atoms: C2_2  and  C3_3 
REMARK    2  A    between atoms: C2_2  and  C4_14 
REMARK    3  A    between atoms: C3_3  and  N3_9 
REMARK    4  A    between atoms: N1_4  and  N2_6 
REMARK    5  A    between atoms: N3_9  and  N4_11 
REMARK    6  A    between atoms: C6_16  and  C7_17 
REMARK    7  A    between atoms: C7_17  and  S1_18 
REMARK    8  A    between atoms: S1_18  and  C8_19 
REMARK    9  A    between atoms: C9_22  and  N6_23 
REMARK   10  A    between atoms: N6_23  and  C10_25 
ROOT
HETATM    1  S1  UNL     1      85.514  48.707   2.197  1.00  0.00    -0.087 SA
ENDROOT
BRANCH   1   2
HETATM    2  C7  UNL     1      85.261  50.043   3.352  1.00  0.00     0.141 C 
BRANCH   2   3
HETATM    3  C6  UNL     1      86.192  51.181   3.201  1.00  0.00     0.044 A 
HETATM    4  C5  UNL     1      87.111  51.751   4.026  1.00  0.00     0.063 A 
HETATM    5  C4  UNL     1      87.698  52.811   3.358  1.00  0.00     0.089 A 
HETATM    6  O2  UNL     1      87.138  52.848   2.197  1.00  0.00    -0.241 OA
HETATM    7  N13 UNL     1      86.249  51.913   2.054  1.00  0.00    -0.264 N 
ATOM      8  H13 UNL     1      85.684  51.754   1.219  1.00  0.00     0.194 HD
BRANCH   5   9
HETATM    9  C2  UNL     1      88.753  53.737   3.840  1.00  0.00     0.111 C 
HETATM   10  C1  UNL     1      89.992  53.661   2.975  1.00  0.00     0.025 C 
BRANCH   9  11
HETATM   11  C3  UNL     1      88.268  55.150   3.802  1.00  0.00     0.119 C 
HETATM   12  N1  UNL     1      89.049  56.128   3.568  1.00  0.00    -0.294 N 
ATOM     13  H1  UNL     1      90.036  55.931   3.402  1.00  0.00     0.187 HD
BRANCH  12  14
HETATM   14  N2  UNL     1      88.627  57.445   3.528  1.00  0.00    -0.344 N 
ATOM     15  H22 UNL     1      87.636  57.624   3.696  1.00  0.00     0.176 HD
ATOM     16  H21 UNL     1      89.252  58.229   3.341  1.00  0.00     0.176 HD
ENDBRANCH  12  14
BRANCH  11  17
HETATM   17  N3  UNL     1      86.887  55.387   4.039  1.00  0.00    -0.294 N 
ATOM     18  H3  UNL     1      86.262  55.540   3.248  1.00  0.00     0.187 HD
BRANCH  17  19
HETATM   19  N4  UNL     1      86.364  55.414   5.358  1.00  0.00    -0.344 N 
ATOM     20  H42 UNL     1      86.885  55.915   6.077  1.00  0.00     0.176 HD
ATOM     21  H41 UNL     1      85.487  54.946   5.586  1.00  0.00     0.176 HD
ENDBRANCH  17  19
ENDBRANCH  11  17
ENDBRANCH   9  11
ENDBRANCH   5   9
ENDBRANCH   2   3
ENDBRANCH   1   2
BRANCH   1  22
HETATM   22  C8  UNL     1      84.538  47.270   2.573  1.00  0.00     0.163 A 
HETATM   23  N5  UNL     1      83.179  47.366   2.657  1.00  0.00    -0.169 N 
HETATM   24  C9  UNL     1      82.412  46.299   2.934  1.00  0.00     0.702 A 
ATOM     25  H5  UNL     1      82.734  48.272   2.506  1.00  0.00     0.186 HD
HETATM   26  N11 UNL     1      82.943  45.081   3.144  1.00  0.00    -0.140 N 
HETATM   27  C13 UNL     1      84.281  44.974   3.063  1.00  0.00     0.340 A 
ATOM     28  H11 UNL     1      82.356  44.274   3.355  1.00  0.00     0.189 HD
HETATM   29  O1  UNL     1      84.779  43.824   3.262  1.00  0.00    -0.246 OA
HETATM   30  N12 UNL     1      85.043  46.047   2.785  1.00  0.00    -0.288 N 
ATOM     31  H12 UNL     1      86.054  45.925   2.734  1.00  0.00     0.172 HD
BRANCH  24  32
HETATM   32  N6  UNL     1      80.985  46.416   3.019  1.00  0.00    -0.021 N 
ATOM     33  H6  UNL     1      80.425  46.226   2.188  1.00  0.00     0.203 HD
BRANCH  32  34
HETATM   34  C10 UNL     1      80.330  46.785   4.217  1.00  0.00     0.708 C 
HETATM   35  N7  UNL     1      80.985  47.288   5.219  1.00  0.00    -0.210 N 
HETATM   36  C11 UNL     1      80.419  47.692   6.465  1.00  0.00     0.271 C 
ATOM     37  H7  UNL     1      81.992  47.406   5.105  1.00  0.00     0.179 HD
HETATM   38  N8  UNL     1      78.970  47.693   6.458  1.00  0.00    -0.105 NA
HETATM   39  N9  UNL     1      78.450  46.632   5.715  1.00  0.00    -0.013 NA
HETATM   40  N10 UNL     1      78.925  46.630   4.400  1.00  0.00    -0.115 N 
HETATM   41  C12 UNL     1      78.072  46.481   3.259  1.00  0.00     0.194 C 
ENDBRANCH  32  34
ENDBRANCH  24  32
ENDBRANCH   1  22
TORSDOF 10
ENDMDL
MODEL 3
REMARK VINA RESULT: -9.948141991      2.171      9.629
REMARK  10 active torsions:
REMARK  status: ('A' for Active; 'I' for Inactive)
REMARK    1  A    between atoms: C2_2  and  C3_3 
REMARK    2  A    between atoms: C2_2  and  C4_14 
REMARK    3  A    between atoms: C3_3  and  N3_9 
REMARK    4  A    between atoms: N1_4  and  N2_6 
REMARK    5  A    between atoms: N3_9  and  N4_11 
REMARK    6  A    between atoms: C6_16  and  C7_17 
REMARK    7  A    between atoms: C7_17  and  S1_18 
REMARK    8  A    between atoms: S1_18  and  C8_19 
REMARK    9  A    between atoms: C9_22  and  N6_23 
REMARK   10  A    between atoms: N6_23  and  C10_25 
ROOT
HETATM    1  S1  UNL     1      85.220  48.530   2.480  1.00  0.00    -0.087 SA
ENDROOT
BRANCH   1   2
HETATM    2  C7  UNL     1      85.179  49.812   3.721  1.00  0.00     0.141 C 
BRANCH   2   3
HETATM    3  C6  UNL     1      86.066  50.964   3.454  1.00  0.00     0.044 A 
HETATM    4  C5  UNL     1      86.951  51.658   4.219  1.00  0.00     0.063 A 
HETATM    5  C4  UNL     1      87.503  52.662   3.445  1.00  0.00     0.089 A 
HETATM    6  O2  UNL     1      86.957  52.550   2.282  1.00  0.00    -0.241 OA
HETATM    7  N13 UNL     1      86.107  51.569   2.234  1.00  0.00    -0.264 N 
ATOM      8  H13 UNL     1      85.560  51.297   1.418  1.00  0.00     0.194 HD
BRANCH   5   9
HETATM    9  C2  UNL     1      88.513  53.678   3.831  1.00  0.00     0.111 C 
HETATM   10  C1  UNL     1      89.795  53.510   3.043  1.00  0.00     0.025 C 
BRANCH   9  11
HETATM   11  C3  UNL     1      88.002  55.056   3.563  1.00  0.00     0.119 C 
HETATM   12  N1  UNL     1      87.968  55.550   2.390  1.00  0.00    -0.294 N 
ATOM     13  H1  UNL     1      88.303  54.978   1.614  1.00  0.00     0.187 HD
BRANCH  12  14
HETATM   14  N2  UNL     1      87.500  56.822   2.114  1.00  0.00    -0.344 N 
ATOM     15  H22 UNL     1      88.193  57.566   2.023  1.00  0.00     0.176 HD
ATOM     16  H21 UNL     1      86.511  57.043   2.000  1.00  0.00     0.176 HD
ENDBRANCH  12  14
BRANCH  11  17
HETATM   17  N3  UNL     1      87.544  55.823   4.668  1.00  0.00    -0.294 N 
ATOM     18  H3  UNL     1      88.064  56.653   4.952  1.00  0.00     0.187 HD
BRANCH  17  19
HETATM   19  N4  UNL     1      86.376  55.453   5.383  1.00  0.00    -0.344 N 
ATOM     20  H42 UNL     1      86.430  54.664   6.027  1.00  0.00     0.176 HD
ATOM     21  H41 UNL     1      85.500  55.961   5.260  1.00  0.00     0.176 HD
ENDBRANCH  17  19
ENDBRANCH  11  17
ENDBRANCH   9  11
ENDBRANCH   5   9
ENDBRANCH   2   3
ENDBRANCH   1   2
BRANCH   1  22
HETATM   22  C8  UNL     1      84.161  47.156   2.866  1.00  0.00     0.163 A 
HETATM   23  N5  UNL     1      82.840  47.364   3.143  1.00  0.00    -0.169 N 
HETATM   24  C9  UNL     1      82.012  46.347   3.434  1.00  0.00     0.702 A 
ATOM     25  H5  UNL     1      82.473  48.316   3.129  1.00  0.00     0.186 HD
HETATM   26  N11 UNL     1      82.440  45.073   3.468  1.00  0.00    -0.140 N 
HETATM   27  C13 UNL     1      83.739  44.856   3.197  1.00  0.00     0.340 A 
ATOM     28  H11 UNL     1      81.807  44.305   3.690  1.00  0.00     0.189 HD
HETATM   29  O1  UNL     1      84.140  43.652   3.231  1.00  0.00    -0.246 OA
HETATM   30  N12 UNL     1      84.563  45.879   2.907  1.00  0.00    -0.288 N 
ATOM     31  H12 UNL     1      85.542  45.673   2.708  1.00  0.00     0.172 HD
BRANCH  24  32
HETATM   32  N6  UNL     1      80.626  46.582   3.722  1.00  0.00    -0.021 N 
ATOM     33  H6  UNL     1      80.310  46.535   4.690  1.00  0.00     0.203 HD
BRANCH  32  34
HETATM   34  C10 UNL     1      79.685  46.875   2.708  1.00  0.00     0.708 C 
HETATM   35  N7  UNL     1      80.062  47.162   1.498  1.00  0.00    -0.210 N 
HETATM   36  C11 UNL     1      79.195  47.471   0.408  1.00  0.00     0.271 C 
ATOM     37  H7  UNL     1      81.065  47.167   1.312  1.00  0.00     0.179 HD
HETATM   38  N8  UNL     1      77.798  47.228   0.706  1.00  0.00    -0.105 NA
HETATM   39  N9  UNL     1      77.479  47.559   2.024  1.00  0.00    -0.013 NA
HETATM   40  N10 UNL     1      78.280  46.875   2.944  1.00  0.00    -0.115 N 
HETATM   41  C12 UNL     1      77.752  46.191   4.087  1.00  0.00     0.194 C 
ENDBRANCH  32  34
ENDBRANCH  24  32
ENDBRANCH   1  22
TORSDOF 10
ENDMDL
MODEL 4
REMARK VINA RESULT: -9.868498404      1.088      1.657
REMARK  10 active torsions:
REMARK  status: ('A' for Active; 'I' for Inactive)
REMARK    1  A    between atoms: C2_2  and  C3_3 
REMARK    2  A    between atoms: C2_2  and  C4_14 
REMARK    3  A    between atoms: C3_3  and  N3_9 
REMARK    4  A    between atoms: N1_4  and  N2_6 
REMARK    5  A    between atoms: N3_9  and  N4_11 
REMARK    6  A    between atoms: C6_16  and  C7_17 
REMARK    7  A    between atoms: C7_17  and  S1_18 
REMARK    8  A    between atoms: S1_18  and  C8_19 
REMARK    9  A    between atoms: C9_22  and  N6_23 
REMARK   10  A    between atoms: N6_23  and  C10_25 
ROOT
HETATM    1  S1  UNL     1      85.381  47.263   1.053  1.00  0.00    -0.087 SA
ENDROOT
BRANCH   1   2
HETATM    2  C7  UNL     1      85.035  45.788   1.995  1.00  0.00     0.141 C 
BRANCH   2   3
HETATM    3  C6  UNL     1      83.743  45.799   2.714  1.00  0.00     0.044 A 
HETATM    4  C5  UNL     1      82.721  46.694   2.786  1.00  0.00     0.063 A 
HETATM    5  C4  UNL     1      81.753  46.183   3.630  1.00  0.00     0.089 A 
HETATM    6  O2  UNL     1      82.200  45.040   4.028  1.00  0.00    -0.241 OA
HETATM    7  N13 UNL     1      83.363  44.768   3.519  1.00  0.00    -0.264 N 
ATOM      8  H13 UNL     1      83.904  43.921   3.695  1.00  0.00     0.194 HD
BRANCH   5   9
HETATM    9  C2  UNL     1      80.457  46.788   4.024  1.00  0.00     0.111 C 
HETATM   10  C1  UNL     1      80.632  48.219   4.484  1.00  0.00     0.025 C 
BRANCH   9  11
HETATM   11  C3  UNL     1      79.512  46.806   2.866  1.00  0.00     0.119 C 
HETATM   12  N1  UNL     1      79.887  47.121   1.690  1.00  0.00    -0.294 N 
ATOM     13  H1  UNL     1      80.866  47.367   1.543  1.00  0.00     0.187 HD
BRANCH  12  14
HETATM   14  N2  UNL     1      79.034  47.144   0.601  1.00  0.00    -0.344 N 
ATOM     15  H22 UNL     1      78.045  47.314   0.785  1.00  0.00     0.176 HD
ATOM     16  H21 UNL     1      79.347  47.004  -0.359  1.00  0.00     0.176 HD
ENDBRANCH  12  14
BRANCH  11  17
HETATM   17  N3  UNL     1      78.156  46.457   3.107  1.00  0.00    -0.294 N 
ATOM     18  H3  UNL     1      77.470  46.564   2.360  1.00  0.00     0.187 HD
BRANCH  17  19
HETATM   19  N4  UNL     1      77.740  45.962   4.371  1.00  0.00    -0.344 N 
ATOM     20  H42 UNL     1      76.796  45.587   4.458  1.00  0.00     0.176 HD
ATOM     21  H41 UNL     1      78.367  45.978   5.175  1.00  0.00     0.176 HD
ENDBRANCH  17  19
ENDBRANCH  11  17
ENDBRANCH   9  11
ENDBRANCH   5   9
ENDBRANCH   2   3
ENDBRANCH   1   2
BRANCH   1  22
HETATM   22  C8  UNL     1      85.416  48.732   2.053  1.00  0.00     0.163 A 
HETATM   23  N5  UNL     1      85.979  49.879   1.570  1.00  0.00    -0.169 N 
HETATM   24  C9  UNL     1      86.017  51.007   2.298  1.00  0.00     0.702 A 
ATOM     25  H5  UNL     1      86.382  49.878   0.633  1.00  0.00     0.186 HD
HETATM   26  N11 UNL     1      85.504  51.066   3.540  1.00  0.00    -0.140 N 
HETATM   27  C13 UNL     1      84.946  49.943   4.026  1.00  0.00     0.340 A 
ATOM     28  H11 UNL     1      85.536  51.925   4.088  1.00  0.00     0.189 HD
HETATM   29  O1  UNL     1      84.463  50.002   5.198  1.00  0.00    -0.246 OA
HETATM   30  N12 UNL     1      84.912  48.817   3.292  1.00  0.00    -0.288 N 
ATOM     31  H12 UNL     1      84.481  47.986   3.697  1.00  0.00     0.172 HD
BRANCH  24  32
HETATM   32  N6  UNL     1      86.612  52.203   1.777  1.00  0.00    -0.021 N 
ATOM     33  H6  UNL     1      86.293  52.560   0.876  1.00  0.00     0.203 HD
BRANCH  32  34
HETATM   34  C10 UNL     1      87.625  52.905   2.470  1.00  0.00     0.708 C 
HETATM   35  N7  UNL     1      88.435  52.295   3.281  1.00  0.00    -0.210 N 
HETATM   36  C11 UNL     1      89.487  52.909   4.025  1.00  0.00     0.271 C 
ATOM     37  H7  UNL     1      88.309  51.289   3.397  1.00  0.00     0.179 HD
HETATM   38  N8  UNL     1      89.731  54.284   3.637  1.00  0.00    -0.105 NA
HETATM   39  N9  UNL     1      88.548  54.957   3.329  1.00  0.00    -0.013 NA
HETATM   40  N10 UNL     1      87.821  54.309   2.326  1.00  0.00    -0.115 N 
HETATM   41  C12 UNL     1      87.279  54.988   1.186  1.00  0.00     0.194 C 
ENDBRANCH  32  34
ENDBRANCH  24  32
ENDBRANCH   1  22
TORSDOF 10
ENDMDL
MODEL 5
REMARK VINA RESULT: -9.589206157      1.973      9.625
REMARK  10 active torsions:
REMARK  status: ('A' for Active; 'I' for Inactive)
REMARK    1  A    between atoms: C2_2  and  C3_3 
REMARK    2  A    between atoms: C2_2  and  C4_14 
REMARK    3  A    between atoms: C3_3  and  N3_9 
REMARK    4  A    between atoms: N1_4  and  N2_6 
REMARK    5  A    between atoms: N3_9  and  N4_11 
REMARK    6  A    between atoms: C6_16  and  C7_17 
REMARK    7  A    between atoms: C7_17  and  S1_18 
REMARK    8  A    between atoms: S1_18  and  C8_19 
REMARK    9  A    between atoms: C9_22  and  N6_23 
REMARK   10  A    between atoms: N6_23  and  C10_25 
ROOT
HETATM    1  S1  UNL     1      85.445  48.619   2.483  1.00  0.00    -0.087 SA
ENDROOT
BRANCH   1   2
HETATM    2  C7  UNL     1      85.246  50.000   3.595  1.00  0.00     0.141 C 
BRANCH   2   3
HETATM    3  C6  UNL     1      86.181  51.122   3.367  1.00  0.00     0.044 A 
HETATM    4  C5  UNL     1      87.111  51.736   4.148  1.00  0.00     0.063 A 
HETATM    5  C4  UNL     1      87.696  52.751   3.411  1.00  0.00     0.089 A 
HETATM    6  O2  UNL     1      87.125  52.721   2.255  1.00  0.00    -0.241 OA
HETATM    7  N13 UNL     1      86.230  51.784   2.178  1.00  0.00    -0.264 N 
ATOM      8  H13 UNL     1      85.656  51.577   1.360  1.00  0.00     0.194 HD
BRANCH   5   9
HETATM    9  C2  UNL     1      88.760  53.698   3.826  1.00  0.00     0.111 C 
HETATM   10  C1  UNL     1      89.976  53.590   2.933  1.00  0.00     0.025 C 
BRANCH   9  11
HETATM   11  C3  UNL     1      88.270  55.107   3.743  1.00  0.00     0.119 C 
HETATM   12  N1  UNL     1      89.042  56.078   3.457  1.00  0.00    -0.294 N 
ATOM     13  H1  UNL     1      90.027  55.878   3.281  1.00  0.00     0.187 HD
BRANCH  12  14
HETATM   14  N2  UNL     1      88.614  57.391   3.373  1.00  0.00    -0.344 N 
ATOM     15  H22 UNL     1      88.175  57.685   2.500  1.00  0.00     0.176 HD
ATOM     16  H21 UNL     1      88.717  58.064   4.132  1.00  0.00     0.176 HD
ENDBRANCH  12  14
BRANCH  11  17
HETATM   17  N3  UNL     1      86.892  55.349   3.995  1.00  0.00    -0.294 N 
ATOM     18  H3  UNL     1      86.253  55.474   3.210  1.00  0.00     0.187 HD
BRANCH  17  19
HETATM   19  N4  UNL     1      86.391  55.420   5.321  1.00  0.00    -0.344 N 
ATOM     20  H42 UNL     1      86.306  54.556   5.854  1.00  0.00     0.176 HD
ATOM     21  H41 UNL     1      86.121  56.312   5.734  1.00  0.00     0.176 HD
ENDBRANCH  17  19
ENDBRANCH  11  17
ENDBRANCH   9  11
ENDBRANCH   5   9
ENDBRANCH   2   3
ENDBRANCH   1   2
BRANCH   1  22
HETATM   22  C8  UNL     1      84.199  47.370   2.699  1.00  0.00     0.163 A 
HETATM   23  N5  UNL     1      82.878  47.715   2.727  1.00  0.00    -0.169 N 
HETATM   24  C9  UNL     1      81.912  46.794   2.883  1.00  0.00     0.702 A 
ATOM     25  H5  UNL     1      82.619  48.696   2.626  1.00  0.00     0.186 HD
HETATM   26  N11 UNL     1      82.196  45.487   3.021  1.00  0.00    -0.140 N 
HETATM   27  C13 UNL     1      83.493  45.135   2.995  1.00  0.00     0.340 A 
ATOM     28  H11 UNL     1      81.458  44.793   3.140  1.00  0.00     0.189 HD
HETATM   29  O1  UNL     1      83.757  43.901   3.127  1.00  0.00    -0.246 OA
HETATM   30  N12 UNL     1      84.455  46.062   2.839  1.00  0.00    -0.288 N 
ATOM     31  H12 UNL     1      85.428  45.755   2.826  1.00  0.00     0.172 HD
BRANCH  24  32
HETATM   32  N6  UNL     1      80.529  47.172   2.909  1.00  0.00    -0.021 N 
ATOM     33  H6  UNL     1      80.118  47.597   2.078  1.00  0.00     0.203 HD
BRANCH  32  34
HETATM   34  C10 UNL     1      79.716  46.975   4.049  1.00  0.00     0.708 C 
HETATM   35  N7  UNL     1      78.632  46.261   3.991  1.00  0.00    -0.210 N 
HETATM   36  C11 UNL     1      77.747  46.002   5.080  1.00  0.00     0.271 C 
ATOM     37  H7  UNL     1      78.393  45.850   3.088  1.00  0.00     0.179 HD
HETATM   38  N8  UNL     1      78.274  46.437   6.358  1.00  0.00    -0.105 NA
HETATM   39  N9  UNL     1      78.988  47.632   6.249  1.00  0.00    -0.013 NA
HETATM   40  N10 UNL     1      80.029  47.538   5.320  1.00  0.00    -0.115 N 
HETATM   41  C12 UNL     1      81.365  47.978   5.593  1.00  0.00     0.194 C 
ENDBRANCH  32  34
ENDBRANCH  24  32
ENDBRANCH   1  22
TORSDOF 10
ENDMDL
