MODEL 1
REMARK VINA RESULT: -7.520521690      0.000      0.000
REMARK  7 active torsions:
REMARK  status: ('A' for Active; 'I' for Inactive)
REMARK    1  A    between atoms: N1_1  and  C1_4 
REMARK    2  A    between atoms: C5_14  and  N4_15 
REMARK    3  A    between atoms: N5_18  and  C6_19 
REMARK    4  A    between atoms: C6_19  and  C7_20 
REMARK    5  A    between atoms: C7_20  and  C8_22 
REMARK    6  A    between atoms: C8_22  and  C9_23 
REMARK    7  A    between atoms: C9_23  and  N6_24 
ROOT
HETATM    1  C1  UNL     1       5.220  36.257  16.539  1.00  0.00     0.680 A 
HETATM    2  N2  UNL     1       5.701  37.497  16.362  1.00  0.00    -0.155 N 
ATOM      3  H2  UNL     1       5.706  37.937  15.442  1.00  0.00     0.187 HD
HETATM    4  C2  UNL     1       6.179  38.140  17.452  1.00  0.00     0.279 A 
HETATM    5  O1  UNL     1       6.644  39.309  17.341  1.00  0.00    -0.266 OA
HETATM    6  C3  UNL     1       6.186  37.573  18.701  1.00  0.00     0.146 A 
HETATM    7  C4  UNL     1       6.681  38.235  19.787  1.00  0.00     0.279 A 
HETATM    8  O2  UNL     1       7.127  39.402  19.588  1.00  0.00    -0.266 OA
HETATM    9  N3  UNL     1       6.680  37.658  20.976  1.00  0.00    -0.155 N 
ATOM     10  H3  UNL     1       7.052  38.155  21.785  1.00  0.00     0.187 HD
HETATM   11  C5  UNL     1       6.185  36.403  21.118  1.00  0.00     0.683 A 
HETATM   12  N5  UNL     1       5.677  35.679  20.101  1.00  0.00    -0.160 N 
HETATM   13  C10 UNL     1       5.686  36.290  18.876  1.00  0.00     0.161 A 
HETATM   14  N7  UNL     1       5.225  35.687  17.783  1.00  0.00    -0.175 N 
ATOM     15  H7  UNL     1       4.851  34.742  17.879  1.00  0.00     0.186 HD
ENDROOT
BRANCH  12  16
HETATM   16  C6  UNL     1       5.155  34.366  20.218  1.00  0.00     0.227 C 
BRANCH  16  17
HETATM   17  C7  UNL     1       6.131  33.299  20.541  1.00  0.00     0.147 C 
HETATM   18  O3  UNL     1       7.065  33.041  19.803  1.00  0.00    -0.296 OA
BRANCH  17  19
HETATM   19  C8  UNL     1       6.081  32.448  21.771  1.00  0.00     0.107 C 
BRANCH  19  20
HETATM   20  C9  UNL     1       7.170  31.382  21.728  1.00  0.00     0.237 C 
BRANCH  20  21
HETATM   21  N6  UNL     1       6.722  30.176  21.079  1.00  0.00    -0.079 N 
ATOM     22  H63 UNL     1       5.847  29.842  21.484  1.00  0.00     0.274 HD
ATOM     23  H62 UNL     1       6.399  30.366  20.131  1.00  0.00     0.274 HD
ATOM     24  H61 UNL     1       7.436  29.448  21.088  1.00  0.00     0.274 HD
ENDBRANCH  20  21
ENDBRANCH  19  20
ENDBRANCH  17  19
ENDBRANCH  16  17
ENDBRANCH  12  16
BRANCH  11  25
HETATM   25  N4  UNL     1       6.238  35.943  22.295  1.00  0.00    -0.234 N 
ATOM     26  H42 UNL     1       7.029  36.140  22.909  1.00  0.00     0.174 HD
ATOM     27  H41 UNL     1       5.436  35.376  22.569  1.00  0.00     0.174 HD
ENDBRANCH  11  25
BRANCH   1  28
HETATM   28  N1  UNL     1       4.768  35.652  15.495  1.00  0.00    -0.234 N 
ATOM     29  H12 UNL     1       4.113  36.086  14.845  1.00  0.00     0.174 HD
ATOM     30  H11 UNL     1       5.095  34.700  15.336  1.00  0.00     0.174 HD
ENDBRANCH   1  28
TORSDOF 7
ENDMDL
MODEL 2
REMARK VINA RESULT: -7.506331630      1.756      2.091
REMARK  7 active torsions:
REMARK  status: ('A' for Active; 'I' for Inactive)
REMARK    1  A    between atoms: N1_1  and  C1_4 
REMARK    2  A    between atoms: C5_14  and  N4_15 
REMARK    3  A    between atoms: N5_18  and  C6_19 
REMARK    4  A    between atoms: C6_19  and  C7_20 
REMARK    5  A    between atoms: C7_20  and  C8_22 
REMARK    6  A    between atoms: C8_22  and  C9_23 
REMARK    7  A    between atoms: C9_23  and  N6_24 
ROOT
HETATM    1  C1  UNL     1       5.524  36.547  16.738  1.00  0.00     0.680 A 
HETATM    2  N2  UNL     1       5.661  37.879  16.651  1.00  0.00    -0.155 N 
ATOM      3  H2  UNL     1       5.551  38.367  15.762  1.00  0.00     0.187 HD
HETATM    4  C2  UNL     1       5.952  38.549  17.789  1.00  0.00     0.279 A 
HETATM    5  O1  UNL     1       6.093  39.804  17.764  1.00  0.00    -0.266 OA
HETATM    6  C3  UNL     1       6.106  37.920  18.998  1.00  0.00     0.146 A 
HETATM    7  C4  UNL     1       6.408  38.613  20.135  1.00  0.00     0.279 A 
HETATM    8  O2  UNL     1       6.532  39.868  20.021  1.00  0.00    -0.266 OA
HETATM    9  N3  UNL     1       6.558  37.977  21.283  1.00  0.00    -0.155 N 
ATOM     10  H3  UNL     1       6.785  38.498  22.130  1.00  0.00     0.187 HD
HETATM   11  C5  UNL     1       6.411  36.630  21.333  1.00  0.00     0.683 A 
HETATM   12  N5  UNL     1       6.113  35.869  20.262  1.00  0.00    -0.160 N 
HETATM   13  C10 UNL     1       5.962  36.543  19.079  1.00  0.00     0.161 A 
HETATM   14  N7  UNL     1       5.677  35.915  17.941  1.00  0.00    -0.175 N 
ATOM     15  H7  UNL     1       5.565  34.901  17.968  1.00  0.00     0.186 HD
ENDROOT
BRANCH  12  16
HETATM   16  C6  UNL     1       5.955  34.460  20.283  1.00  0.00     0.227 C 
BRANCH  16  17
HETATM   17  C7  UNL     1       4.709  33.948  20.900  1.00  0.00     0.147 C 
HETATM   18  O3  UNL     1       4.702  32.945  21.591  1.00  0.00    -0.296 OA
BRANCH  17  19
HETATM   19  C8  UNL     1       3.364  34.588  20.751  1.00  0.00     0.107 C 
BRANCH  19  20
HETATM   20  C9  UNL     1       2.263  33.534  20.800  1.00  0.00     0.237 C 
BRANCH  20  21
HETATM   21  N6  UNL     1       2.257  32.702  19.624  1.00  0.00    -0.079 N 
ATOM     22  H63 UNL     1       2.249  33.265  18.774  1.00  0.00     0.274 HD
ATOM     23  H62 UNL     1       3.154  32.233  19.499  1.00  0.00     0.274 HD
ATOM     24  H61 UNL     1       1.487  32.033  19.632  1.00  0.00     0.274 HD
ENDBRANCH  20  21
ENDBRANCH  19  20
ENDBRANCH  17  19
ENDBRANCH  16  17
ENDBRANCH  12  16
BRANCH  11  25
HETATM   25  N4  UNL     1       6.582  36.120  22.479  1.00  0.00    -0.234 N 
ATOM     26  H42 UNL     1       5.809  35.701  22.996  1.00  0.00     0.174 HD
ATOM     27  H41 UNL     1       7.540  36.161  22.826  1.00  0.00     0.174 HD
ENDBRANCH  11  25
BRANCH   1  28
HETATM   28  N1  UNL     1       5.248  35.918  15.647  1.00  0.00    -0.234 N 
ATOM     29  H12 UNL     1       5.494  36.276  14.724  1.00  0.00     0.174 HD
ATOM     30  H11 UNL     1       4.762  35.026  15.740  1.00  0.00     0.174 HD
ENDBRANCH   1  28
TORSDOF 7
ENDMDL
MODEL 3
REMARK VINA RESULT: -7.476688927      3.522      5.835
REMARK  7 active torsions:
REMARK  status: ('A' for Active; 'I' for Inactive)
REMARK    1  A    between atoms: N1_1  and  C1_4 
REMARK    2  A    between atoms: C5_14  and  N4_15 
REMARK    3  A    between atoms: N5_18  and  C6_19 
REMARK    4  A    between atoms: C6_19  and  C7_20 
REMARK    5  A    between atoms: C7_20  and  C8_22 
REMARK    6  A    between atoms: C8_22  and  C9_23 
REMARK    7  A    between atoms: C9_23  and  N6_24 
ROOT
HETATM    1  C1  UNL     1       3.961  34.027  21.033  1.00  0.00     0.680 A 
HETATM    2  N2  UNL     1       2.656  33.747  21.162  1.00  0.00    -0.155 N 
ATOM      3  H2  UNL     1       2.337  32.812  21.419  1.00  0.00     0.187 HD
HETATM    4  C2  UNL     1       1.779  34.751  20.938  1.00  0.00     0.279 A 
HETATM    5  O1  UNL     1       0.538  34.542  21.046  1.00  0.00    -0.266 OA
HETATM    6  C3  UNL     1       2.178  36.017  20.591  1.00  0.00     0.146 A 
HETATM    7  C4  UNL     1       1.277  37.016  20.361  1.00  0.00     0.279 A 
HETATM    8  O2  UNL     1       0.053  36.720  20.490  1.00  0.00    -0.266 OA
HETATM    9  N3  UNL     1       1.693  38.223  20.020  1.00  0.00    -0.155 N 
ATOM     10  H3  UNL     1       1.017  38.966  19.848  1.00  0.00     0.187 HD
HETATM   11  C5  UNL     1       3.021  38.471  19.900  1.00  0.00     0.683 A 
HETATM   12  N5  UNL     1       3.977  37.545  20.109  1.00  0.00    -0.160 N 
HETATM   13  C10 UNL     1       3.530  36.299  20.460  1.00  0.00     0.161 A 
HETATM   14  N7  UNL     1       4.365  35.288  20.687  1.00  0.00    -0.175 N 
ATOM     15  H7  UNL     1       5.366  35.464  20.598  1.00  0.00     0.186 HD
ENDROOT
BRANCH  12  16
HETATM   16  C6  UNL     1       5.371  37.774  19.989  1.00  0.00     0.227 C 
BRANCH  16  17
HETATM   17  C7  UNL     1       5.904  37.869  18.610  1.00  0.00     0.147 C 
HETATM   18  O3  UNL     1       6.042  38.942  18.050  1.00  0.00    -0.296 OA
BRANCH  17  19
HETATM   19  C8  UNL     1       6.322  36.697  17.779  1.00  0.00     0.107 C 
BRANCH  19  20
HETATM   20  C9  UNL     1       5.294  36.422  16.687  1.00  0.00     0.237 C 
BRANCH  20  21
HETATM   21  N6  UNL     1       5.531  37.215  15.509  1.00  0.00    -0.079 N 
ATOM     22  H63 UNL     1       4.874  36.978  14.765  1.00  0.00     0.274 HD
ATOM     23  H62 UNL     1       5.263  38.187  15.657  1.00  0.00     0.274 HD
ATOM     24  H61 UNL     1       6.496  37.143  15.186  1.00  0.00     0.274 HD
ENDBRANCH  20  21
ENDBRANCH  19  20
ENDBRANCH  17  19
ENDBRANCH  16  17
ENDBRANCH  12  16
BRANCH  11  25
HETATM   25  N4  UNL     1       3.310  39.656  19.564  1.00  0.00    -0.234 N 
ATOM     26  H42 UNL     1       4.002  40.201  20.077  1.00  0.00     0.174 HD
ATOM     27  H41 UNL     1       2.805  40.004  18.749  1.00  0.00     0.174 HD
ENDBRANCH  11  25
BRANCH   1  28
HETATM   28  N1  UNL     1       4.789  33.063  21.248  1.00  0.00    -0.234 N 
ATOM     29  H12 UNL     1       4.770  32.190  20.720  1.00  0.00     0.174 HD
ATOM     30  H11 UNL     1       5.481  33.204  21.983  1.00  0.00     0.174 HD
ENDBRANCH   1  28
TORSDOF 7
ENDMDL
MODEL 4
REMARK VINA RESULT: -7.450736504      3.102      5.593
REMARK  7 active torsions:
REMARK  status: ('A' for Active; 'I' for Inactive)
REMARK    1  A    between atoms: N1_1  and  C1_4 
REMARK    2  A    between atoms: C5_14  and  N4_15 
REMARK    3  A    between atoms: N5_18  and  C6_19 
REMARK    4  A    between atoms: C6_19  and  C7_20 
REMARK    5  A    between atoms: C7_20  and  C8_22 
REMARK    6  A    between atoms: C8_22  and  C9_23 
REMARK    7  A    between atoms: C9_23  and  N6_24 
ROOT
HETATM    1  C1  UNL     1       2.665  37.779  20.779  1.00  0.00     0.680 A 
HETATM    2  N2  UNL     1       1.543  37.059  20.925  1.00  0.00    -0.155 N 
ATOM      3  H2  UNL     1       0.639  37.510  21.068  1.00  0.00     0.187 HD
HETATM    4  C2  UNL     1       1.657  35.713  20.876  1.00  0.00     0.279 A 
HETATM    5  O1  UNL     1       0.631  34.987  21.008  1.00  0.00    -0.266 OA
HETATM    6  C3  UNL     1       2.858  35.079  20.685  1.00  0.00     0.146 A 
HETATM    7  C4  UNL     1       2.954  33.718  20.646  1.00  0.00     0.279 A 
HETATM    8  O2  UNL     1       1.878  33.067  20.788  1.00  0.00    -0.266 OA
HETATM    9  N3  UNL     1       4.128  33.138  20.469  1.00  0.00    -0.155 N 
ATOM     10  H3  UNL     1       4.195  32.121  20.442  1.00  0.00     0.187 HD
HETATM   11  C5  UNL     1       5.242  33.897  20.323  1.00  0.00     0.683 A 
HETATM   12  N5  UNL     1       5.238  35.244  20.347  1.00  0.00    -0.160 N 
HETATM   13  C10 UNL     1       4.014  35.831  20.533  1.00  0.00     0.161 A 
HETATM   14  N7  UNL     1       3.866  37.152  20.588  1.00  0.00    -0.175 N 
ATOM     15  H7  UNL     1       4.699  37.732  20.481  1.00  0.00     0.186 HD
ENDROOT
BRANCH  12  16
HETATM   16  C6  UNL     1       6.385  36.064  20.200  1.00  0.00     0.227 C 
BRANCH  16  17
HETATM   17  C7  UNL     1       6.720  36.483  18.819  1.00  0.00     0.147 C 
HETATM   18  O3  UNL     1       6.889  35.671  17.927  1.00  0.00    -0.296 OA
BRANCH  17  19
HETATM   19  C8  UNL     1       6.878  37.904  18.379  1.00  0.00     0.107 C 
BRANCH  19  20
HETATM   20  C9  UNL     1       5.695  38.332  17.517  1.00  0.00     0.237 C 
BRANCH  20  21
HETATM   21  N6  UNL     1       5.678  37.654  16.247  1.00  0.00    -0.079 N 
ATOM     22  H63 UNL     1       6.287  38.117  15.572  1.00  0.00     0.274 HD
ATOM     23  H62 UNL     1       6.153  36.754  16.302  1.00  0.00     0.274 HD
ATOM     24  H61 UNL     1       4.731  37.550  15.880  1.00  0.00     0.274 HD
ENDBRANCH  20  21
ENDBRANCH  19  20
ENDBRANCH  17  19
ENDBRANCH  16  17
ENDBRANCH  12  16
BRANCH  11  25
HETATM   25  N4  UNL     1       6.313  33.242  20.165  1.00  0.00    -0.234 N 
ATOM     26  H42 UNL     1       6.845  32.893  20.962  1.00  0.00     0.174 HD
ATOM     27  H41 UNL     1       6.583  33.093  19.193  1.00  0.00     0.174 HD
ENDBRANCH  11  25
BRANCH   1  28
HETATM   28  N1  UNL     1       2.546  39.061  20.828  1.00  0.00    -0.234 N 
ATOM     29  H12 UNL     1       1.709  39.526  21.179  1.00  0.00     0.174 HD
ATOM     30  H11 UNL     1       3.338  39.611  20.496  1.00  0.00     0.174 HD
ENDBRANCH   1  28
TORSDOF 7
ENDMDL
MODEL 5
REMARK VINA RESULT: -7.448345222      3.510      5.088
REMARK  7 active torsions:
REMARK  status: ('A' for Active; 'I' for Inactive)
REMARK    1  A    between atoms: N1_1  and  C1_4 
REMARK    2  A    between atoms: C5_14  and  N4_15 
REMARK    3  A    between atoms: N5_18  and  C6_19 
REMARK    4  A    between atoms: C6_19  and  C7_20 
REMARK    5  A    between atoms: C7_20  and  C8_22 
REMARK    6  A    between atoms: C8_22  and  C9_23 
REMARK    7  A    between atoms: C9_23  and  N6_24 
ROOT
HETATM    1  C1  UNL     1       2.665  34.317  20.928  1.00  0.00     0.680 A 
HETATM    2  N2  UNL     1       1.399  34.753  20.847  1.00  0.00    -0.155 N 
ATOM      3  H2  UNL     1       0.610  34.119  20.974  1.00  0.00     0.187 HD
HETATM    4  C2  UNL     1       1.210  36.067  20.589  1.00  0.00     0.279 A 
HETATM    5  O1  UNL     1       0.038  36.531  20.501  1.00  0.00    -0.266 OA
HETATM    6  C3  UNL     1       2.251  36.943  20.413  1.00  0.00     0.146 A 
HETATM    7  C4  UNL     1       2.040  38.264  20.145  1.00  0.00     0.279 A 
HETATM    8  O2  UNL     1       0.835  38.646  20.075  1.00  0.00    -0.266 OA
HETATM    9  N3  UNL     1       3.064  39.081  19.973  1.00  0.00    -0.155 N 
ATOM     10  H3  UNL     1       2.902  40.068  19.772  1.00  0.00     0.187 HD
HETATM   11  C5  UNL     1       4.330  38.605  20.064  1.00  0.00     0.683 A 
HETATM   12  N5  UNL     1       4.629  37.318  20.325  1.00  0.00    -0.160 N 
HETATM   13  C10 UNL     1       3.557  36.484  20.500  1.00  0.00     0.161 A 
HETATM   14  N7  UNL     1       3.707  35.186  20.753  1.00  0.00    -0.175 N 
ATOM     15  H7  UNL     1       4.656  34.818  20.822  1.00  0.00     0.186 HD
ENDROOT
BRANCH  12  16
HETATM   16  C6  UNL     1       5.942  36.790  20.423  1.00  0.00     0.227 C 
BRANCH  16  17
HETATM   17  C7  UNL     1       6.409  35.977  19.277  1.00  0.00     0.147 C 
HETATM   18  O3  UNL     1       6.541  34.769  19.361  1.00  0.00    -0.296 OA
BRANCH  17  19
HETATM   19  C8  UNL     1       6.757  36.530  17.931  1.00  0.00     0.107 C 
BRANCH  19  20
HETATM   20  C9  UNL     1       5.506  36.668  17.070  1.00  0.00     0.237 C 
BRANCH  20  21
HETATM   21  N6  UNL     1       4.632  35.531  17.199  1.00  0.00    -0.079 N 
ATOM     22  H63 UNL     1       4.715  34.908  16.396  1.00  0.00     0.274 HD
ATOM     23  H62 UNL     1       4.956  34.897  17.929  1.00  0.00     0.274 HD
ATOM     24  H61 UNL     1       3.662  35.808  17.354  1.00  0.00     0.274 HD
ENDBRANCH  20  21
ENDBRANCH  19  20
ENDBRANCH  17  19
ENDBRANCH  16  17
ENDBRANCH  12  16
BRANCH  11  25
HETATM   25  N4  UNL     1       5.236  39.469  19.876  1.00  0.00    -0.234 N 
ATOM     26  H42 UNL     1       6.100  39.461  20.418  1.00  0.00     0.174 HD
ATOM     27  H41 UNL     1       5.030  40.152  19.148  1.00  0.00     0.174 HD
ENDBRANCH  11  25
BRANCH   1  28
HETATM   28  N1  UNL     1       2.834  33.063  21.173  1.00  0.00    -0.234 N 
ATOM     29  H12 UNL     1       3.007  32.700  22.110  1.00  0.00     0.174 HD
ATOM     30  H11 UNL     1       2.791  32.428  20.376  1.00  0.00     0.174 HD
ENDBRANCH   1  28
TORSDOF 7
ENDMDL
