MODEL 1
REMARK VINA RESULT: -6.955391768      0.000      0.000
REMARK  1 active torsions:
REMARK  status: ('A' for Active; 'I' for Inactive)
REMARK    1  A    between atoms: N3_4  and  N4_6 
ROOT
HETATM    1  N4  UNL     1      28.929  46.464  -2.987  1.00  0.00    -0.279 N 
ATOM      2  H4  UNL     1      29.782  46.158  -2.519  1.00  0.00     0.189 HD
HETATM    3  C2  UNL     1      28.212  47.354  -2.400  1.00  0.00     0.193 A 
HETATM    4  N5  UNL     1      26.992  47.921  -2.869  1.00  0.00    -0.289 N 
ATOM      5  H5  UNL     1      26.517  47.695  -3.743  1.00  0.00     0.172 HD
HETATM    6  C3  UNL     1      26.557  48.863  -1.889  1.00  0.00     0.328 A 
HETATM    7  O1  UNL     1      25.507  49.561  -1.966  1.00  0.00    -0.247 OA
HETATM    8  N6  UNL     1      27.495  48.887  -0.814  1.00  0.00    -0.272 N 
ATOM      9  H6  UNL     1      27.435  49.468   0.022  1.00  0.00     0.174 HD
HETATM   10  C4  UNL     1      28.523  47.963  -1.112  1.00  0.00     0.295 A 
HETATM   11  O2  UNL     1      29.537  47.686  -0.422  1.00  0.00    -0.264 OA
ENDROOT
BRANCH   1  12
HETATM   12  N3  UNL     1      28.626  45.893  -4.208  1.00  0.00    -0.274 N 
HETATM   13  C1  UNL     1      29.369  46.123  -5.241  1.00  0.00     0.215 C 
HETATM   14  N1  UNL     1      30.509  46.973  -5.117  1.00  0.00    -0.065 NA
HETATM   15  N2  UNL     1      29.035  45.522  -6.492  1.00  0.00    -0.065 NA
ATOM     16  H3  UNL     1      27.811  45.286  -4.295  1.00  0.00     0.189 HD
ENDBRANCH   1  12
TORSDOF 1
ENDMDL
MODEL 2
REMARK VINA RESULT: -6.780871619      2.756      3.831
REMARK  1 active torsions:
REMARK  status: ('A' for Active; 'I' for Inactive)
REMARK    1  A    between atoms: N3_4  and  N4_6 
ROOT
HETATM    1  N4  UNL     1      29.760  48.284  -3.354  1.00  0.00    -0.279 N 
ATOM      2  H4  UNL     1      29.461  48.364  -4.326  1.00  0.00     0.189 HD
HETATM    3  C2  UNL     1      29.140  47.443  -2.605  1.00  0.00     0.193 A 
HETATM    4  N5  UNL     1      29.389  47.171  -1.229  1.00  0.00    -0.289 N 
ATOM      5  H5  UNL     1      30.099  47.611  -0.645  1.00  0.00     0.172 HD
HETATM    6  C3  UNL     1      28.458  46.169  -0.820  1.00  0.00     0.328 A 
HETATM    7  O1  UNL     1      28.382  45.678   0.342  1.00  0.00    -0.247 OA
HETATM    8  N6  UNL     1      27.633  45.815  -1.928  1.00  0.00    -0.272 N 
ATOM      9  H6  UNL     1      26.882  45.125  -1.921  1.00  0.00     0.174 HD
HETATM   10  C4  UNL     1      28.039  46.591  -3.039  1.00  0.00     0.295 A 
HETATM   11  O2  UNL     1      27.566  46.579  -4.204  1.00  0.00    -0.264 OA
ENDROOT
BRANCH   1  12
HETATM   12  N3  UNL     1      30.802  49.087  -2.934  1.00  0.00    -0.274 N 
HETATM   13  C1  UNL     1      31.920  49.105  -3.585  1.00  0.00     0.215 C 
HETATM   14  N1  UNL     1      32.074  48.288  -4.745  1.00  0.00    -0.065 NA
HETATM   15  N2  UNL     1      32.983  49.943  -3.131  1.00  0.00    -0.065 NA
ATOM     16  H3  UNL     1      30.691  49.670  -2.104  1.00  0.00     0.189 HD
ENDBRANCH   1  12
TORSDOF 1
ENDMDL
MODEL 3
REMARK VINA RESULT: -6.753018681      2.366      2.955
REMARK  1 active torsions:
REMARK  status: ('A' for Active; 'I' for Inactive)
REMARK    1  A    between atoms: N3_4  and  N4_6 
ROOT
HETATM    1  N4  UNL     1      29.845  47.712  -1.206  1.00  0.00    -0.279 N 
ATOM      2  H4  UNL     1      30.316  46.919  -0.771  1.00  0.00     0.189 HD
HETATM    3  C2  UNL     1      28.570  47.644  -1.351  1.00  0.00     0.193 A 
HETATM    4  N5  UNL     1      27.718  48.629  -1.930  1.00  0.00    -0.289 N 
ATOM      5  H5  UNL     1      28.006  49.529  -2.312  1.00  0.00     0.172 HD
HETATM    6  C3  UNL     1      26.385  48.119  -1.877  1.00  0.00     0.328 A 
HETATM    7  O1  UNL     1      25.359  48.722  -2.302  1.00  0.00    -0.247 OA
HETATM    8  N6  UNL     1      26.401  46.828  -1.271  1.00  0.00    -0.272 N 
ATOM      9  H6  UNL     1      25.589  46.233  -1.106  1.00  0.00     0.174 HD
HETATM   10  C4  UNL     1      27.740  46.518  -0.940  1.00  0.00     0.295 A 
HETATM   11  O2  UNL     1      28.179  45.476  -0.391  1.00  0.00    -0.264 OA
ENDROOT
BRANCH   1  12
HETATM   12  N3  UNL     1      30.623  48.784  -1.600  1.00  0.00    -0.274 N 
HETATM   13  C1  UNL     1      31.307  48.730  -2.696  1.00  0.00     0.215 C 
HETATM   14  N1  UNL     1      31.257  47.553  -3.503  1.00  0.00    -0.065 NA
HETATM   15  N2  UNL     1      32.104  49.850  -3.081  1.00  0.00    -0.065 NA
ATOM     16  H3  UNL     1      30.658  49.623  -1.022  1.00  0.00     0.189 HD
ENDBRANCH   1  12
TORSDOF 1
ENDMDL
MODEL 4
REMARK VINA RESULT: -6.741738706      1.586      2.361
REMARK  1 active torsions:
REMARK  status: ('A' for Active; 'I' for Inactive)
REMARK    1  A    between atoms: N3_4  and  N4_6 
ROOT
HETATM    1  N4  UNL     1      28.156  46.529  -4.267  1.00  0.00    -0.279 N 
ATOM      2  H4  UNL     1      28.002  47.272  -4.948  1.00  0.00     0.189 HD
HETATM    3  C2  UNL     1      27.842  46.766  -3.043  1.00  0.00     0.193 A 
HETATM    4  N5  UNL     1      27.972  45.878  -1.936  1.00  0.00    -0.289 N 
ATOM      5  H5  UNL     1      28.335  44.926  -1.964  1.00  0.00     0.172 HD
HETATM    6  C3  UNL     1      27.500  46.571  -0.780  1.00  0.00     0.328 A 
HETATM    7  O1  UNL     1      27.465  46.094   0.389  1.00  0.00    -0.247 OA
HETATM    8  N6  UNL     1      27.079  47.880  -1.158  1.00  0.00    -0.272 N 
ATOM      9  H6  UNL     1      26.698  48.592  -0.534  1.00  0.00     0.174 HD
HETATM   10  C4  UNL     1      27.282  48.018  -2.551  1.00  0.00     0.295 A 
HETATM   11  O2  UNL     1      27.038  49.020  -3.272  1.00  0.00    -0.264 OA
ENDROOT
BRANCH   1  12
HETATM   12  N3  UNL     1      28.687  45.338  -4.724  1.00  0.00    -0.274 N 
HETATM   13  C1  UNL     1      29.345  45.299  -5.837  1.00  0.00     0.215 C 
HETATM   14  N1  UNL     1      29.521  46.494  -6.596  1.00  0.00    -0.065 NA
HETATM   15  N2  UNL     1      29.883  44.056  -6.289  1.00  0.00    -0.065 NA
ATOM     16  H3  UNL     1      28.559  44.485  -4.181  1.00  0.00     0.189 HD
ENDBRANCH   1  12
TORSDOF 1
ENDMDL
MODEL 5
REMARK VINA RESULT: -6.633650375      1.893      2.121
REMARK  1 active torsions:
REMARK  status: ('A' for Active; 'I' for Inactive)
REMARK    1  A    between atoms: N3_4  and  N4_6 
ROOT
HETATM    1  N4  UNL     1      30.073  47.022  -2.139  1.00  0.00    -0.279 N 
ATOM      2  H4  UNL     1      30.681  46.453  -1.551  1.00  0.00     0.189 HD
HETATM    3  C2  UNL     1      29.019  47.524  -1.600  1.00  0.00     0.193 A 
HETATM    4  N5  UNL     1      28.038  48.342  -2.231  1.00  0.00    -0.289 N 
ATOM      5  H5  UNL     1      28.038  48.644  -3.205  1.00  0.00     0.172 HD
HETATM    6  C3  UNL     1      27.055  48.661  -1.246  1.00  0.00     0.328 A 
HETATM    7  O1  UNL     1      26.031  49.373  -1.445  1.00  0.00    -0.247 OA
HETATM    8  N6  UNL     1      27.416  48.049  -0.009  1.00  0.00    -0.272 N 
ATOM      9  H6  UNL     1      26.894  48.109   0.865  1.00  0.00     0.174 HD
HETATM   10  C4  UNL     1      28.625  47.343  -0.208  1.00  0.00     0.295 A 
HETATM   11  O2  UNL     1      29.275  46.671   0.633  1.00  0.00    -0.264 OA
ENDROOT
BRANCH   1  12
HETATM   12  N3  UNL     1      30.437  47.199  -3.460  1.00  0.00    -0.274 N 
HETATM   13  C1  UNL     1      31.492  47.885  -3.762  1.00  0.00     0.215 C 
HETATM   14  N1  UNL     1      32.281  48.463  -2.722  1.00  0.00    -0.065 NA
HETATM   15  N2  UNL     1      31.848  48.055  -5.134  1.00  0.00    -0.065 NA
ATOM     16  H3  UNL     1      29.872  46.786  -4.202  1.00  0.00     0.189 HD
ENDBRANCH   1  12
TORSDOF 1
ENDMDL
