MODEL 1
REMARK VINA RESULT: -4.294564641      0.000      0.000
REMARK  4 active torsions:
REMARK  status: ('A' for Active; 'I' for Inactive)
REMARK    1  A    between atoms: C1_2  and  C7_13 
REMARK    2  A    between atoms: C2_3  and  N2_4 
REMARK    3  A    between atoms: C7_13  and  N4_14 
REMARK    4  A    between atoms: C7_13  and  N5_18 
ROOT
HETATM    1  N1  UNL     1       2.434  11.511   1.556  1.00  0.00    -0.102 NA
HETATM    2  C1  UNL     1       2.993  11.000   2.776  1.00  0.00     0.097 C 
HETATM    3  C2  UNL     1       4.215  11.307   3.083  1.00  0.00     0.127 C 
ENDROOT
BRANCH   2   4
HETATM    4  C7  UNL     1       2.092  10.157   3.572  1.00  0.00     0.426 C 
BRANCH   4   5
HETATM    5  N4  UNL     1       2.428   8.749   3.311  1.00  0.00    -0.045 N 
ATOM      6  H43 UNL     1       1.605   8.147   3.276  1.00  0.00     0.277 HD
ATOM      7  H42 UNL     1       2.753   8.592   2.357  1.00  0.00     0.277 HD
ATOM      8  H41 UNL     1       3.106   8.447   4.011  1.00  0.00     0.277 HD
ENDBRANCH   4   5
BRANCH   4   9
HETATM    9  N5  UNL     1       0.699  10.355   3.404  1.00  0.00    -0.045 N 
ATOM     10  H53 UNL     1       0.541  11.197   2.849  1.00  0.00     0.277 HD
ATOM     11  H52 UNL     1       0.329   9.641   2.777  1.00  0.00     0.277 HD
ATOM     12  H51 UNL     1       0.127  10.394   4.247  1.00  0.00     0.277 HD
ENDBRANCH   4   9
ENDBRANCH   2   4
BRANCH   3  13
HETATM   13  N2  UNL     1       4.960  10.918   4.222  1.00  0.00    -0.284 N 
HETATM   14  C3  UNL     1       5.013  11.732   5.284  1.00  0.00     0.106 A 
HETATM   15  C4  UNL     1       5.745  11.406   6.425  1.00  0.00     0.092 A 
HETATM   16  C5  UNL     1       6.430  10.210   6.454  1.00  0.00     0.250 A 
HETATM   17  O1  UNL     1       7.088   9.925   7.492  1.00  0.00    -0.268 OA
HETATM   18  N3  UNL     1       6.361   9.412   5.377  1.00  0.00    -0.275 N 
HETATM   19  C6  UNL     1       5.638   9.761   4.281  1.00  0.00     0.333 A 
ATOM     20  H3  UNL     1       6.862   8.523   5.381  1.00  0.00     0.173 HD
HETATM   21  O2  UNL     1       5.643   8.936   3.327  1.00  0.00    -0.246 OA
ENDBRANCH   3  13
TORSDOF 4
ENDMDL
MODEL 2
REMARK VINA RESULT: -4.156761205      6.005      7.415
REMARK  4 active torsions:
REMARK  status: ('A' for Active; 'I' for Inactive)
REMARK    1  A    between atoms: C1_2  and  C7_13 
REMARK    2  A    between atoms: C2_3  and  N2_4 
REMARK    3  A    between atoms: C7_13  and  N4_14 
REMARK    4  A    between atoms: C7_13  and  N5_18 
ROOT
HETATM    1  N1  UNL     1       1.943  16.915  10.495  1.00  0.00    -0.102 NA
HETATM    2  C1  UNL     1       2.844  15.826  10.242  1.00  0.00     0.097 C 
HETATM    3  C2  UNL     1       2.661  15.092   9.189  1.00  0.00     0.127 C 
ENDROOT
BRANCH   2   4
HETATM    4  C7  UNL     1       3.913  15.656  11.234  1.00  0.00     0.426 C 
BRANCH   4   5
HETATM    5  N4  UNL     1       3.448  14.703  12.253  1.00  0.00    -0.045 N 
ATOM      6  H43 UNL     1       2.876  15.145  12.973  1.00  0.00     0.277 HD
ATOM      7  H42 UNL     1       2.744  14.057  11.896  1.00  0.00     0.277 HD
ATOM      8  H41 UNL     1       4.262  14.224  12.637  1.00  0.00     0.277 HD
ENDBRANCH   4   5
BRANCH   4   9
HETATM    9  N5  UNL     1       4.409  16.825  11.863  1.00  0.00    -0.045 N 
ATOM     10  H53 UNL     1       5.372  16.666  12.161  1.00  0.00     0.277 HD
ATOM     11  H52 UNL     1       4.544  17.554  11.163  1.00  0.00     0.277 HD
ATOM     12  H51 UNL     1       3.871  17.200  12.644  1.00  0.00     0.277 HD
ENDBRANCH   4   9
ENDBRANCH   2   4
BRANCH   3  13
HETATM   13  N2  UNL     1       3.418  13.980   8.749  1.00  0.00    -0.284 N 
HETATM   14  C3  UNL     1       4.301  14.136   7.754  1.00  0.00     0.106 A 
HETATM   15  C4  UNL     1       5.061  13.072   7.271  1.00  0.00     0.092 A 
HETATM   16  C5  UNL     1       4.894  11.827   7.839  1.00  0.00     0.250 A 
HETATM   17  O1  UNL     1       5.588  10.871   7.395  1.00  0.00    -0.268 OA
HETATM   18  N3  UNL     1       4.003  11.696   8.835  1.00  0.00    -0.275 N 
HETATM   19  C6  UNL     1       3.279  12.756   9.281  1.00  0.00     0.333 A 
ATOM     20  H3  UNL     1       3.868  10.783   9.267  1.00  0.00     0.173 HD
HETATM   21  O2  UNL     1       2.472  12.519  10.220  1.00  0.00    -0.246 OA
ENDBRANCH   3  13
TORSDOF 4
ENDMDL
MODEL 3
REMARK VINA RESULT: -4.152027636      3.584      5.355
REMARK  4 active torsions:
REMARK  status: ('A' for Active; 'I' for Inactive)
REMARK    1  A    between atoms: C1_2  and  C7_13 
REMARK    2  A    between atoms: C2_3  and  N2_4 
REMARK    3  A    between atoms: C7_13  and  N4_14 
REMARK    4  A    between atoms: C7_13  and  N5_18 
ROOT
HETATM    1  N1  UNL     1       6.019   9.776   4.777  1.00  0.00    -0.102 NA
HETATM    2  C1  UNL     1       5.966  10.608   5.946  1.00  0.00     0.097 C 
HETATM    3  C2  UNL     1       4.910  11.331   6.155  1.00  0.00     0.127 C 
ENDROOT
BRANCH   2   4
HETATM    4  C7  UNL     1       7.152  10.548   6.810  1.00  0.00     0.426 C 
BRANCH   4   5
HETATM    5  N4  UNL     1       8.117  11.552   6.338  1.00  0.00    -0.045 N 
ATOM      6  H43 UNL     1       7.687  12.264   5.748  1.00  0.00     0.277 HD
ATOM      7  H42 UNL     1       8.441  12.168   7.084  1.00  0.00     0.277 HD
ATOM      8  H41 UNL     1       8.882  11.064   5.872  1.00  0.00     0.277 HD
ENDBRANCH   4   5
BRANCH   4   9
HETATM    9  N5  UNL     1       7.795   9.292   6.946  1.00  0.00    -0.045 N 
ATOM     10  H53 UNL     1       7.296   8.595   6.392  1.00  0.00     0.277 HD
ATOM     11  H52 UNL     1       8.690   9.317   6.459  1.00  0.00     0.277 HD
ATOM     12  H51 UNL     1       7.933   8.937   7.892  1.00  0.00     0.277 HD
ENDBRANCH   4   9
ENDBRANCH   2   4
BRANCH   3  13
HETATM   13  N2  UNL     1       4.646  12.214   7.229  1.00  0.00    -0.284 N 
HETATM   14  C3  UNL     1       4.158  11.728   8.377  1.00  0.00     0.106 A 
HETATM   15  C4  UNL     1       3.866  12.555   9.461  1.00  0.00     0.092 A 
HETATM   16  C5  UNL     1       4.089  13.909   9.340  1.00  0.00     0.250 A 
HETATM   17  O1  UNL     1       3.821  14.648  10.327  1.00  0.00    -0.268 OA
HETATM   18  N3  UNL     1       4.578  14.372   8.179  1.00  0.00    -0.275 N 
HETATM   19  C6  UNL     1       4.852  13.538   7.143  1.00  0.00     0.333 A 
ATOM     20  H3  UNL     1       4.749  15.372   8.072  1.00  0.00     0.173 HD
HETATM   21  O2  UNL     1       5.309  14.080   6.099  1.00  0.00    -0.246 OA
ENDBRANCH   3  13
TORSDOF 4
ENDMDL
MODEL 4
REMARK VINA RESULT: -4.092939748      4.052      5.624
REMARK  4 active torsions:
REMARK  status: ('A' for Active; 'I' for Inactive)
REMARK    1  A    between atoms: C1_2  and  C7_13 
REMARK    2  A    between atoms: C2_3  and  N2_4 
REMARK    3  A    between atoms: C7_13  and  N4_14 
REMARK    4  A    between atoms: C7_13  and  N5_18 
ROOT
HETATM    1  N1  UNL     1       5.437  12.313   4.551  1.00  0.00    -0.102 NA
HETATM    2  C1  UNL     1       5.383  12.516   5.971  1.00  0.00     0.097 C 
HETATM    3  C2  UNL     1       4.355  13.121   6.480  1.00  0.00     0.127 C 
ENDROOT
BRANCH   2   4
HETATM    4  C7  UNL     1       6.533  11.997   6.721  1.00  0.00     0.426 C 
BRANCH   4   5
HETATM    5  N4  UNL     1       7.759  12.359   5.993  1.00  0.00    -0.045 N 
ATOM      6  H43 UNL     1       7.711  12.126   5.001  1.00  0.00     0.277 HD
ATOM      7  H42 UNL     1       7.874  13.367   5.892  1.00  0.00     0.277 HD
ATOM      8  H41 UNL     1       8.551  11.919   6.462  1.00  0.00     0.277 HD
ENDBRANCH   4   5
BRANCH   4   9
HETATM    9  N5  UNL     1       6.545  10.611   7.018  1.00  0.00    -0.045 N 
ATOM     10  H53 UNL     1       5.932  10.121   6.366  1.00  0.00     0.277 HD
ATOM     11  H52 UNL     1       7.450  10.218   6.762  1.00  0.00     0.277 HD
ATOM     12  H51 UNL     1       6.314  10.336   7.972  1.00  0.00     0.277 HD
ENDBRANCH   4   9
ENDBRANCH   2   4
BRANCH   3  13
HETATM   13  N2  UNL     1       4.096  13.426   7.838  1.00  0.00    -0.284 N 
HETATM   14  C3  UNL     1       4.185  14.694   8.257  1.00  0.00     0.106 A 
HETATM   15  C4  UNL     1       3.956  15.048   9.586  1.00  0.00     0.092 A 
HETATM   16  C5  UNL     1       3.628  14.058  10.488  1.00  0.00     0.250 A 
HETATM   17  O1  UNL     1       3.422  14.390  11.688  1.00  0.00    -0.268 OA
HETATM   18  N3  UNL     1       3.544  12.794  10.043  1.00  0.00    -0.275 N 
HETATM   19  C6  UNL     1       3.775  12.486   8.740  1.00  0.00     0.333 A 
ATOM     20  H3  UNL     1       3.303  12.050  10.697  1.00  0.00     0.173 HD
HETATM   21  O2  UNL     1       3.669  11.267   8.432  1.00  0.00    -0.246 OA
ENDBRANCH   3  13
TORSDOF 4
ENDMDL
MODEL 5
REMARK VINA RESULT: -4.069660569      4.164      5.077
REMARK  4 active torsions:
REMARK  status: ('A' for Active; 'I' for Inactive)
REMARK    1  A    between atoms: C1_2  and  C7_13 
REMARK    2  A    between atoms: C2_3  and  N2_4 
REMARK    3  A    between atoms: C7_13  and  N4_14 
REMARK    4  A    between atoms: C7_13  and  N5_18 
ROOT
HETATM    1  N1  UNL     1       2.222  13.987   8.103  1.00  0.00    -0.102 NA
HETATM    2  C1  UNL     1       3.599  13.579   8.089  1.00  0.00     0.097 C 
HETATM    3  C2  UNL     1       4.257  13.632   6.972  1.00  0.00     0.127 C 
ENDROOT
BRANCH   2   4
HETATM    4  C7  UNL     1       4.133  13.134   9.382  1.00  0.00     0.426 C 
BRANCH   4   5
HETATM    5  N4  UNL     1       4.027  11.668   9.443  1.00  0.00    -0.045 N 
ATOM      6  H43 UNL     1       3.534  11.344  10.276  1.00  0.00     0.277 HD
ATOM      7  H42 UNL     1       3.384  11.291   8.748  1.00  0.00     0.277 HD
ATOM      8  H41 UNL     1       4.965  11.276   9.364  1.00  0.00     0.277 HD
ENDBRANCH   4   5
BRANCH   4   9
HETATM    9  N5  UNL     1       3.569  13.704  10.550  1.00  0.00    -0.045 N 
ATOM     10  H53 UNL     1       3.607  14.721  10.482  1.00  0.00     0.277 HD
ATOM     11  H52 UNL     1       2.560  13.550  10.547  1.00  0.00     0.277 HD
ATOM     12  H51 UNL     1       3.954  13.410  11.447  1.00  0.00     0.277 HD
ENDBRANCH   4   9
ENDBRANCH   2   4
BRANCH   3  13
HETATM   13  N2  UNL     1       5.608  13.283   6.730  1.00  0.00    -0.284 N 
HETATM   14  C3  UNL     1       6.533  14.248   6.643  1.00  0.00     0.106 A 
HETATM   15  C4  UNL     1       7.873  13.961   6.390  1.00  0.00     0.092 A 
HETATM   16  C5  UNL     1       8.250  12.646   6.226  1.00  0.00     0.250 A 
HETATM   17  O1  UNL     1       9.466  12.398   5.998  1.00  0.00    -0.268 OA
HETATM   18  N3  UNL     1       7.304  11.697   6.318  1.00  0.00    -0.275 N 
HETATM   19  C6  UNL     1       6.007  12.012   6.565  1.00  0.00     0.333 A 
ATOM     20  H3  UNL     1       7.566  10.718   6.199  1.00  0.00     0.173 HD
HETATM   21  O2  UNL     1       5.203  11.042   6.631  1.00  0.00    -0.246 OA
ENDBRANCH   3  13
TORSDOF 4
ENDMDL
