MODEL 1
REMARK VINA RESULT: -4.803383105      0.000      0.000
REMARK  3 active torsions:
REMARK  status: ('A' for Active; 'I' for Inactive)
REMARK    1  A    between atoms: N1_1  and  C1_4 
REMARK    2  A    between atoms: N3_7  and  C2_8 
REMARK    3  A    between atoms: C5_18  and  C6_19 
ROOT
HETATM    1  C1  UNL     1       5.677   9.945   5.201  1.00  0.00     0.149 A 
HETATM    2  N2  UNL     1       4.800  10.738   5.834  1.00  0.00    -0.261 N 
ATOM      3  H2  UNL     1       3.863  10.953   5.494  1.00  0.00     0.191 HD
HETATM    4  N3  UNL     1       5.322  11.206   6.972  1.00  0.00    -0.180 N 
HETATM    5  N6  UNL     1       6.533  10.702   7.049  1.00  0.00    -0.270 N 
ATOM      6  H6  UNL     1       7.184  10.880   7.814  1.00  0.00     0.189 HD
HETATM    7  C5  UNL     1       6.803   9.928   6.000  1.00  0.00     0.160 A 
ENDROOT
BRANCH   4   8
HETATM    8  C2  UNL     1       4.680  12.073   7.900  1.00  0.00     0.145 C 
HETATM    9  N4  UNL     1       4.163  11.731   9.021  1.00  0.00    -0.353 N 
HETATM   10  C3  UNL     1       3.597  12.832   9.718  1.00  0.00     0.356 C 
ATOM     11  H4  UNL     1       4.159  10.774   9.373  1.00  0.00     0.162 HD
HETATM   12  N5  UNL     1       4.153  13.992   9.083  1.00  0.00    -0.053 N 
HETATM   13  C4  UNL     1       4.502  13.519   7.734  1.00  0.00     0.313 C 
ATOM     14  H52 UNL     1       3.546  14.812   9.098  1.00  0.00     0.279 HD
ATOM     15  H51 UNL     1       4.926  14.421   9.592  1.00  0.00     0.279 HD
ENDBRANCH   4   8
BRANCH   1  16
HETATM   16  N1  UNL     1       5.558   9.315   4.097  1.00  0.00    -0.382 N 
ATOM     17  H12 UNL     1       4.757   8.739   3.840  1.00  0.00     0.157 HD
ATOM     18  H11 UNL     1       6.197   9.262   3.304  1.00  0.00     0.157 HD
ENDBRANCH   1  16
BRANCH   7  19
HETATM   19  C6  UNL     1       8.054   9.214   5.766  1.00  0.00     0.286 C 
HETATM   20  N7  UNL     1       8.075   7.877   5.331  1.00  0.00    -0.056 NA
HETATM   21  O1  UNL     1       9.144   9.800   5.956  1.00  0.00    -0.269 OA
ENDBRANCH   7  19
TORSDOF 3
ENDMDL
MODEL 2
REMARK VINA RESULT: -4.696820942      1.461      2.003
REMARK  3 active torsions:
REMARK  status: ('A' for Active; 'I' for Inactive)
REMARK    1  A    between atoms: N1_1  and  C1_4 
REMARK    2  A    between atoms: N3_7  and  C2_8 
REMARK    3  A    between atoms: C5_18  and  C6_19 
ROOT
HETATM    1  C1  UNL     1       7.366   9.647   6.397  1.00  0.00     0.149 A 
HETATM    2  N2  UNL     1       6.885  10.424   7.379  1.00  0.00    -0.261 N 
ATOM      3  H2  UNL     1       7.338  10.565   8.281  1.00  0.00     0.191 HD
HETATM    4  N3  UNL     1       5.730  10.988   7.012  1.00  0.00    -0.180 N 
HETATM    5  N6  UNL     1       5.489  10.560   5.793  1.00  0.00    -0.270 N 
ATOM      6  H6  UNL     1       4.671  10.821   5.242  1.00  0.00     0.189 HD
HETATM    7  C5  UNL     1       6.449   9.742   5.369  1.00  0.00     0.160 A 
ENDROOT
BRANCH   4   8
HETATM    8  C2  UNL     1       4.937  11.872   7.796  1.00  0.00     0.145 C 
HETATM    9  N4  UNL     1       4.350  11.585   8.898  1.00  0.00    -0.353 N 
HETATM   10  C3  UNL     1       3.634  12.688   9.437  1.00  0.00     0.356 C 
ATOM     11  H4  UNL     1       4.391  10.666   9.338  1.00  0.00     0.162 HD
HETATM   12  N5  UNL     1       4.149  13.833   8.743  1.00  0.00    -0.053 N 
HETATM   13  C4  UNL     1       4.658  13.276   7.480  1.00  0.00     0.313 C 
ATOM     14  H52 UNL     1       3.479  14.593   8.629  1.00  0.00     0.279 HD
ATOM     15  H51 UNL     1       4.835  14.372   9.272  1.00  0.00     0.279 HD
ENDBRANCH   4   8
BRANCH   1  16
HETATM   16  N1  UNL     1       8.432   8.945   6.360  1.00  0.00    -0.382 N 
ATOM     17  H12 UNL     1       9.348   9.264   6.674  1.00  0.00     0.157 HD
ATOM     18  H11 UNL     1       8.573   7.991   6.030  1.00  0.00     0.157 HD
ENDBRANCH   1  16
BRANCH   7  19
HETATM   19  C6  UNL     1       6.498   9.086   4.065  1.00  0.00     0.286 C 
HETATM   20  N7  UNL     1       7.298   7.955   3.833  1.00  0.00    -0.056 NA
HETATM   21  O1  UNL     1       5.810   9.539   3.122  1.00  0.00    -0.269 OA
ENDBRANCH   7  19
TORSDOF 3
ENDMDL
MODEL 3
REMARK VINA RESULT: -4.691505958      2.574      5.784
REMARK  3 active torsions:
REMARK  status: ('A' for Active; 'I' for Inactive)
REMARK    1  A    between atoms: N1_1  and  C1_4 
REMARK    2  A    between atoms: N3_7  and  C2_8 
REMARK    3  A    between atoms: C5_18  and  C6_19 
ROOT
HETATM    1  C1  UNL     1       3.956  12.653   9.285  1.00  0.00     0.149 A 
HETATM    2  N2  UNL     1       4.458  11.554   8.702  1.00  0.00    -0.261 N 
ATOM      3  H2  UNL     1       4.359  10.608   9.068  1.00  0.00     0.191 HD
HETATM    4  N3  UNL     1       5.104  11.870   7.576  1.00  0.00    -0.180 N 
HETATM    5  N6  UNL     1       5.006  13.175   7.456  1.00  0.00    -0.270 N 
ATOM      6  H6  UNL     1       5.404  13.714   6.687  1.00  0.00     0.189 HD
HETATM    7  C5  UNL     1       4.319  13.704   8.466  1.00  0.00     0.160 A 
ENDROOT
BRANCH   4   8
HETATM    8  C2  UNL     1       5.760  10.963   6.698  1.00  0.00     0.145 C 
HETATM    9  N4  UNL     1       6.830  10.306   6.951  1.00  0.00    -0.353 N 
HETATM   10  C3  UNL     1       7.233   9.481   5.866  1.00  0.00     0.356 C 
ATOM     11  H4  UNL     1       7.338  10.369   7.833  1.00  0.00     0.162 HD
HETATM   12  N5  UNL     1       6.075   9.395   5.023  1.00  0.00    -0.053 N 
HETATM   13  C4  UNL     1       5.317  10.615   5.344  1.00  0.00     0.313 C 
ATOM     14  H52 UNL     1       6.284   9.278   4.031  1.00  0.00     0.279 HD
ATOM     15  H51 UNL     1       5.544   8.530   5.124  1.00  0.00     0.279 HD
ENDBRANCH   4   8
BRANCH   1  16
HETATM   16  N1  UNL     1       3.283  12.770  10.364  1.00  0.00    -0.382 N 
ATOM     17  H12 UNL     1       3.361  12.148  11.168  1.00  0.00     0.157 HD
ATOM     18  H11 UNL     1       2.577  13.460  10.620  1.00  0.00     0.157 HD
ENDBRANCH   1  16
BRANCH   7  19
HETATM   19  C6  UNL     1       4.022  15.122   8.647  1.00  0.00     0.286 C 
HETATM   20  N7  UNL     1       4.305  15.791   9.850  1.00  0.00    -0.056 NA
HETATM   21  O1  UNL     1       3.501  15.767   7.708  1.00  0.00    -0.269 OA
ENDBRANCH   7  19
TORSDOF 3
ENDMDL
MODEL 4
REMARK VINA RESULT: -4.650340293      2.507      5.674
REMARK  3 active torsions:
REMARK  status: ('A' for Active; 'I' for Inactive)
REMARK    1  A    between atoms: N1_1  and  C1_4 
REMARK    2  A    between atoms: N3_7  and  C2_8 
REMARK    3  A    between atoms: C5_18  and  C6_19 
ROOT
HETATM    1  C1  UNL     1       4.734  13.943   7.714  1.00  0.00     0.149 A 
HETATM    2  N2  UNL     1       5.453  13.201   6.859  1.00  0.00    -0.261 N 
ATOM      3  H2  UNL     1       5.940  13.568   6.042  1.00  0.00     0.191 HD
HETATM    4  N3  UNL     1       5.445  11.916   7.225  1.00  0.00    -0.180 N 
HETATM    5  N6  UNL     1       4.714  11.855   8.317  1.00  0.00    -0.270 N 
ATOM      6  H6  UNL     1       4.523  10.998   8.834  1.00  0.00     0.189 HD
HETATM    7  C5  UNL     1       4.257  13.057   8.660  1.00  0.00     0.160 A 
ENDROOT
BRANCH   4   8
HETATM    8  C2  UNL     1       6.100  10.845   6.556  1.00  0.00     0.145 C 
HETATM    9  N4  UNL     1       7.036  10.114   7.037  1.00  0.00    -0.353 N 
HETATM   10  C3  UNL     1       7.482   9.126   6.118  1.00  0.00     0.356 C 
ATOM     11  H4  UNL     1       7.419  10.229   7.975  1.00  0.00     0.162 HD
HETATM   12  N5  UNL     1       6.452   9.062   5.122  1.00  0.00    -0.053 N 
HETATM   13  C4  UNL     1       5.812  10.384   5.195  1.00  0.00     0.313 C 
ATOM     14  H52 UNL     1       6.781   8.804   4.191  1.00  0.00     0.279 HD
ATOM     15  H51 UNL     1       5.810   8.276   5.230  1.00  0.00     0.279 HD
ENDBRANCH   4   8
BRANCH   1  16
HETATM   16  N1  UNL     1       4.502  15.199   7.710  1.00  0.00    -0.382 N 
ATOM     17  H12 UNL     1       5.175  15.913   7.434  1.00  0.00     0.157 HD
ATOM     18  H11 UNL     1       3.654  15.706   7.965  1.00  0.00     0.157 HD
ENDBRANCH   1  16
BRANCH   7  19
HETATM   19  C6  UNL     1       3.415  13.352   9.816  1.00  0.00     0.286 C 
HETATM   20  N7  UNL     1       3.622  14.491  10.612  1.00  0.00    -0.056 NA
HETATM   21  O1  UNL     1       2.482  12.572  10.114  1.00  0.00    -0.269 OA
ENDBRANCH   7  19
TORSDOF 3
ENDMDL
MODEL 5
REMARK VINA RESULT: -4.502985836      3.751      5.941
REMARK  3 active torsions:
REMARK  status: ('A' for Active; 'I' for Inactive)
REMARK    1  A    between atoms: N1_1  and  C1_4 
REMARK    2  A    between atoms: N3_7  and  C2_8 
REMARK    3  A    between atoms: C5_18  and  C6_19 
ROOT
HETATM    1  C1  UNL     1       4.287  14.896   9.057  1.00  0.00     0.149 A 
HETATM    2  N2  UNL     1       4.036  15.512  10.221  1.00  0.00    -0.261 N 
ATOM      3  H2  UNL     1       4.130  16.515  10.378  1.00  0.00     0.191 HD
HETATM    4  N3  UNL     1       3.645  14.632  11.148  1.00  0.00    -0.180 N 
HETATM    5  N6  UNL     1       3.653  13.457  10.557  1.00  0.00    -0.270 N 
ATOM      6  H6  UNL     1       3.398  12.582  11.014  1.00  0.00     0.189 HD
HETATM    7  C5  UNL     1       4.035  13.558   9.286  1.00  0.00     0.160 A 
ENDROOT
BRANCH   4   8
HETATM    8  C2  UNL     1       3.295  14.926  12.495  1.00  0.00     0.145 C 
HETATM    9  N4  UNL     1       3.506  14.175  13.511  1.00  0.00    -0.353 N 
HETATM   10  C3  UNL     1       3.038  14.754  14.722  1.00  0.00     0.356 C 
ATOM     11  H4  UNL     1       3.958  13.263  13.457  1.00  0.00     0.162 HD
HETATM   12  N5  UNL     1       2.844  16.141  14.414  1.00  0.00    -0.053 N 
HETATM   13  C4  UNL     1       2.633  16.150  12.958  1.00  0.00     0.313 C 
ATOM     14  H52 UNL     1       2.102  16.593  14.950  1.00  0.00     0.279 HD
ATOM     15  H51 UNL     1       3.596  16.752  14.734  1.00  0.00     0.279 HD
ENDBRANCH   4   8
BRANCH   1  16
HETATM   16  N1  UNL     1       4.678  15.382   7.943  1.00  0.00    -0.382 N 
ATOM     17  H12 UNL     1       4.273  15.155   7.035  1.00  0.00     0.157 HD
ATOM     18  H11 UNL     1       5.424  16.050   7.750  1.00  0.00     0.157 HD
ENDBRANCH   1  16
BRANCH   7  19
HETATM   19  C6  UNL     1       4.155  12.450   8.342  1.00  0.00     0.286 C 
HETATM   20  N7  UNL     1       3.909  12.618   6.968  1.00  0.00    -0.056 NA
HETATM   21  O1  UNL     1       4.486  11.317   8.759  1.00  0.00    -0.269 OA
ENDBRANCH   7  19
TORSDOF 3
ENDMDL
