MODEL 1
REMARK VINA RESULT: -7.173857951      0.000      0.000
REMARK  7 active torsions:
REMARK  status: ('A' for Active; 'I' for Inactive)
REMARK    1  A    between atoms: N1_2  and  C3_4 
REMARK    2  A    between atoms: C3_4  and  C4_5 
REMARK       I    between atoms: C4_5  and  N2_7 
REMARK    3  A    between atoms: N2_7  and  C5_9 
REMARK    4  A    between atoms: C7_16  and  N5_17 
REMARK    5  A    between atoms: N5_17  and  C8_19 
REMARK    6  A    between atoms: C10_21  and  C11_22 
REMARK    7  A    between atoms: C11_22  and  O3_23 
ROOT
HETATM    1  C5  UNL     1     -39.163 173.326  74.493  1.00  0.00     0.703 A 
HETATM    2  N3  UNL     1     -39.235 174.671  74.418  1.00  0.00    -0.140 N 
ATOM      3  H3  UNL     1     -39.335 175.234  75.263  1.00  0.00     0.189 HD
HETATM    4  C6  UNL     1     -39.174 175.248  73.221  1.00  0.00     0.352 A 
HETATM    5  O2  UNL     1     -39.234 176.506  73.045  1.00  0.00    -0.246 OA
HETATM    6  N4  UNL     1     -39.039 174.469  72.112  1.00  0.00    -0.140 N 
ATOM      7  H4  UNL     1     -38.991 174.913  71.195  1.00  0.00     0.189 HD
HETATM    8  C7  UNL     1     -38.967 173.128  72.199  1.00  0.00     0.697 A 
HETATM    9  N6  UNL     1     -39.030 172.561  73.404  1.00  0.00    -0.022 N 
ATOM     10  H6  UNL     1     -38.977 171.546  73.496  1.00  0.00     0.203 HD
ENDROOT
BRANCH   8  11
HETATM   11  N5  UNL     1     -38.838 172.405  71.116  1.00  0.00    -0.221 N 
ATOM     12  H5  UNL     1     -39.388 172.664  70.296  1.00  0.00     0.178 HD
BRANCH  11  13
HETATM   13  C8  UNL     1     -37.962 171.263  71.015  1.00  0.00     0.101 C 
HETATM   14  C9  UNL     1     -38.175 170.637  69.645  1.00  0.00     0.034 C 
HETATM   15  C10 UNL     1     -37.007 171.169  68.857  1.00  0.00     0.030 C 
HETATM   16  C12 UNL     1     -35.881 170.985  69.852  1.00  0.00     0.022 C 
HETATM   17  C13 UNL     1     -34.608 171.646  69.409  1.00  0.00     0.028 C 
HETATM   18 BR1  UNL     1     -35.655 169.121  70.219  1.00  0.00    -0.085 Br
HETATM   19  C14 UNL     1     -36.497 171.699  71.058  1.00  0.00     0.046 C 
BRANCH  15  20
HETATM   20  C11 UNL     1     -36.798 170.460  67.558  1.00  0.00     0.170 C 
BRANCH  20  21
HETATM   21  O3  UNL     1     -37.838 169.607  67.253  1.00  0.00    -0.400 OA
ATOM     22  H3  UNL     1     -37.533 168.769  66.926  1.00  0.00     0.209 HD
ENDBRANCH  20  21
ENDBRANCH  15  20
ENDBRANCH  11  13
ENDBRANCH   8  11
BRANCH   1  23
HETATM   23  N2  UNL     1     -39.221 172.757  75.642  1.00  0.00    -0.157 N 
HETATM   24  C4  UNL     1     -39.328 171.343  75.743  1.00  0.00     0.264 C 
HETATM   25  O1  UNL     1     -40.439 170.821  75.494  1.00  0.00    -0.271 OA
ATOM     26  H2  UNL     1     -39.190 173.324  76.490  1.00  0.00     0.187 HD
BRANCH  24  27
HETATM   27  C3  UNL     1     -38.117 170.596  76.134  1.00  0.00     0.374 C 
BRANCH  27  28
HETATM   28  N1  UNL     1     -38.101 169.246  75.610  1.00  0.00     0.088 N 
HETATM   29  C1  UNL     1     -37.028 168.547  76.334  1.00  0.00     0.310 C 
HETATM   30  C2  UNL     1     -37.744 169.200  74.205  1.00  0.00     0.310 C 
ENDBRANCH  27  28
ENDBRANCH  24  27
ENDBRANCH   1  23
TORSDOF 7
ENDMDL
MODEL 2
REMARK VINA RESULT: -7.119142769      2.146      4.394
REMARK  7 active torsions:
REMARK  status: ('A' for Active; 'I' for Inactive)
REMARK    1  A    between atoms: N1_2  and  C3_4 
REMARK    2  A    between atoms: C3_4  and  C4_5 
REMARK       I    between atoms: C4_5  and  N2_7 
REMARK    3  A    between atoms: N2_7  and  C5_9 
REMARK    4  A    between atoms: C7_16  and  N5_17 
REMARK    5  A    between atoms: N5_17  and  C8_19 
REMARK    6  A    between atoms: C10_21  and  C11_22 
REMARK    7  A    between atoms: C11_22  and  O3_23 
ROOT
HETATM    1  C5  UNL     1     -38.917 173.891  74.513  1.00  0.00     0.703 A 
HETATM    2  N3  UNL     1     -37.791 173.998  75.247  1.00  0.00    -0.140 N 
ATOM      3  H3  UNL     1     -37.577 174.861  75.748  1.00  0.00     0.189 HD
HETATM    4  C6  UNL     1     -36.965 172.957  75.305  1.00  0.00     0.352 A 
HETATM    5  O2  UNL     1     -35.880 172.958  75.968  1.00  0.00    -0.246 OA
HETATM    6  N4  UNL     1     -37.280 171.819  74.626  1.00  0.00    -0.140 N 
ATOM      7  H4  UNL     1     -36.646 171.020  74.672  1.00  0.00     0.189 HD
HETATM    8  C7  UNL     1     -38.407 171.723  73.896  1.00  0.00     0.697 A 
HETATM    9  N6  UNL     1     -39.227 172.774  73.847  1.00  0.00    -0.022 N 
ATOM     10  H6  UNL     1     -40.088 172.726  73.302  1.00  0.00     0.203 HD
ENDROOT
BRANCH   8  11
HETATM   11  N5  UNL     1     -38.682 170.617  73.255  1.00  0.00    -0.221 N 
ATOM     12  H5  UNL     1     -39.601 170.196  73.393  1.00  0.00     0.178 HD
BRANCH  11  13
HETATM   13  C8  UNL     1     -37.760 169.959  72.361  1.00  0.00     0.101 C 
HETATM   14  C9  UNL     1     -38.575 169.103  71.404  1.00  0.00     0.034 C 
HETATM   15  C10 UNL     1     -38.631 169.958  70.165  1.00  0.00     0.030 C 
HETATM   16  C12 UNL     1     -37.193 170.427  70.076  1.00  0.00     0.022 C 
HETATM   17  C13 UNL     1     -37.000 171.494  69.037  1.00  0.00     0.028 C 
HETATM   18 BR1  UNL     1     -36.048 168.919  69.805  1.00  0.00    -0.085 Br
HETATM   19  C14 UNL     1     -37.026 170.982  71.492  1.00  0.00     0.046 C 
BRANCH  15  20
HETATM   20  C11 UNL     1     -39.109 169.219  68.957  1.00  0.00     0.170 C 
BRANCH  20  21
HETATM   21  O3  UNL     1     -40.465 169.367  68.757  1.00  0.00    -0.400 OA
ATOM     22  H3  UNL     1     -40.973 168.727  69.242  1.00  0.00     0.209 HD
ENDBRANCH  20  21
ENDBRANCH  15  20
ENDBRANCH  11  13
ENDBRANCH   8  11
BRANCH   1  23
HETATM   23  N2  UNL     1     -39.723 174.889  74.449  1.00  0.00    -0.157 N 
HETATM   24  C4  UNL     1     -39.516 175.924  73.497  1.00  0.00     0.264 C 
HETATM   25  O1  UNL     1     -38.603 176.752  73.721  1.00  0.00    -0.271 OA
ATOM     26  H2  UNL     1     -40.518 174.939  75.087  1.00  0.00     0.187 HD
BRANCH  24  27
HETATM   27  C3  UNL     1     -40.397 175.944  72.314  1.00  0.00     0.374 C 
BRANCH  27  28
HETATM   28  N1  UNL     1     -39.666 175.785  71.073  1.00  0.00     0.088 N 
HETATM   29  C1  UNL     1     -40.583 176.224  70.009  1.00  0.00     0.310 C 
HETATM   30  C2  UNL     1     -39.344 174.400  70.790  1.00  0.00     0.310 C 
ENDBRANCH  27  28
ENDBRANCH  24  27
ENDBRANCH   1  23
TORSDOF 7
ENDMDL
MODEL 3
REMARK VINA RESULT: -7.076514855      2.261      4.450
REMARK  7 active torsions:
REMARK  status: ('A' for Active; 'I' for Inactive)
REMARK    1  A    between atoms: N1_2  and  C3_4 
REMARK    2  A    between atoms: C3_4  and  C4_5 
REMARK       I    between atoms: C4_5  and  N2_7 
REMARK    3  A    between atoms: N2_7  and  C5_9 
REMARK    4  A    between atoms: C7_16  and  N5_17 
REMARK    5  A    between atoms: N5_17  and  C8_19 
REMARK    6  A    between atoms: C10_21  and  C11_22 
REMARK    7  A    between atoms: C11_22  and  O3_23 
ROOT
HETATM    1  C5  UNL     1     -39.269 171.761  74.744  1.00  0.00     0.703 A 
HETATM    2  N3  UNL     1     -40.209 170.826  74.993  1.00  0.00    -0.140 N 
ATOM      3  H3  UNL     1     -40.987 171.026  75.623  1.00  0.00     0.189 HD
HETATM    4  C6  UNL     1     -40.101 169.639  74.402  1.00  0.00     0.352 A 
HETATM    5  O2  UNL     1     -40.933 168.693  74.573  1.00  0.00    -0.246 OA
HETATM    6  N4  UNL     1     -39.052 169.404  73.566  1.00  0.00    -0.140 N 
ATOM      7  H4  UNL     1     -38.971 168.494  73.113  1.00  0.00     0.189 HD
HETATM    8  C7  UNL     1     -38.120 170.344  73.324  1.00  0.00     0.697 A 
HETATM    9  N6  UNL     1     -38.240 171.530  73.923  1.00  0.00    -0.022 N 
ATOM     10  H6  UNL     1     -37.547 172.260  73.755  1.00  0.00     0.203 HD
ENDROOT
BRANCH   8  11
HETATM   11  N5  UNL     1     -37.123 170.089  72.517  1.00  0.00    -0.221 N 
ATOM     12  H5  UNL     1     -36.263 169.714  72.917  1.00  0.00     0.178 HD
BRANCH  11  13
HETATM   13  C8  UNL     1     -37.171 170.309  71.091  1.00  0.00     0.101 C 
HETATM   14  C9  UNL     1     -36.122 171.356  70.750  1.00  0.00     0.034 C 
HETATM   15  C10 UNL     1     -34.980 170.519  70.236  1.00  0.00     0.030 C 
HETATM   16  C12 UNL     1     -35.718 169.545  69.341  1.00  0.00     0.022 C 
HETATM   17  C13 UNL     1     -34.838 168.430  68.855  1.00  0.00     0.028 C 
HETATM   18 BR1  UNL     1     -36.551 170.502  67.909  1.00  0.00    -0.085 Br
HETATM   19  C14 UNL     1     -36.768 169.043  70.335  1.00  0.00     0.046 C 
BRANCH  15  20
HETATM   20  C11 UNL     1     -33.929 171.318  69.534  1.00  0.00     0.170 C 
BRANCH  20  21
HETATM   21  O3  UNL     1     -32.655 170.954  69.915  1.00  0.00    -0.400 OA
ATOM     22  H3  UNL     1     -32.026 171.051  69.209  1.00  0.00     0.209 HD
ENDBRANCH  20  21
ENDBRANCH  15  20
ENDBRANCH  11  13
ENDBRANCH   8  11
BRANCH   1  23
HETATM   23  N2  UNL     1     -39.362 172.911  75.308  1.00  0.00    -0.157 N 
HETATM   24  C4  UNL     1     -38.693 174.039  74.760  1.00  0.00     0.264 C 
HETATM   25  O1  UNL     1     -37.454 174.123  74.926  1.00  0.00    -0.271 OA
ATOM     26  H2  UNL     1     -39.919 173.015  76.156  1.00  0.00     0.187 HD
BRANCH  24  27
HETATM   27  C3  UNL     1     -39.514 175.029  74.035  1.00  0.00     0.374 C 
BRANCH  27  28
HETATM   28  N1  UNL     1     -39.052 175.249  72.680  1.00  0.00     0.088 N 
HETATM   29  C1  UNL     1     -40.057 176.121  72.051  1.00  0.00     0.310 C 
HETATM   30  C2  UNL     1     -39.022 174.028  71.897  1.00  0.00     0.310 C 
ENDBRANCH  27  28
ENDBRANCH  24  27
ENDBRANCH   1  23
TORSDOF 7
ENDMDL
MODEL 4
REMARK VINA RESULT: -7.072354816      1.324      1.440
REMARK  7 active torsions:
REMARK  status: ('A' for Active; 'I' for Inactive)
REMARK    1  A    between atoms: N1_2  and  C3_4 
REMARK    2  A    between atoms: C3_4  and  C4_5 
REMARK       I    between atoms: C4_5  and  N2_7 
REMARK    3  A    between atoms: N2_7  and  C5_9 
REMARK    4  A    between atoms: C7_16  and  N5_17 
REMARK    5  A    between atoms: N5_17  and  C8_19 
REMARK    6  A    between atoms: C10_21  and  C11_22 
REMARK    7  A    between atoms: C11_22  and  O3_23 
ROOT
HETATM    1  C5  UNL     1     -39.266 174.089  73.299  1.00  0.00     0.703 A 
HETATM    2  N3  UNL     1     -39.784 175.297  72.996  1.00  0.00    -0.140 N 
ATOM      3  H3  UNL     1     -40.048 175.950  73.734  1.00  0.00     0.189 HD
HETATM    4  C6  UNL     1     -39.945 175.618  71.715  1.00  0.00     0.352 A 
HETATM    5  O2  UNL     1     -40.425 176.730  71.326  1.00  0.00    -0.246 OA
HETATM    6  N4  UNL     1     -39.583 174.725  70.753  1.00  0.00    -0.140 N 
ATOM      7  H4  UNL     1     -39.706 174.973  69.771  1.00  0.00     0.189 HD
HETATM    8  C7  UNL     1     -39.067 173.522  71.068  1.00  0.00     0.697 A 
HETATM    9  N6  UNL     1     -38.911 173.212  72.356  1.00  0.00    -0.022 N 
ATOM     10  H6  UNL     1     -38.520 172.307  72.620  1.00  0.00     0.203 HD
ENDROOT
BRANCH   8  11
HETATM   11  N5  UNL     1     -38.728 172.684  70.122  1.00  0.00    -0.221 N 
ATOM     12  H5  UNL     1     -39.091 172.847  69.182  1.00  0.00     0.178 HD
BRANCH  11  13
HETATM   13  C8  UNL     1     -37.871 171.543  70.333  1.00  0.00     0.101 C 
HETATM   14  C9  UNL     1     -37.856 170.733  69.046  1.00  0.00     0.034 C 
HETATM   15  C10 UNL     1     -36.559 171.156  68.408  1.00  0.00     0.030 C 
HETATM   16  C12 UNL     1     -35.626 171.115  69.601  1.00  0.00     0.022 C 
HETATM   17  C13 UNL     1     -34.282 171.714  69.300  1.00  0.00     0.028 C 
HETATM   18 BR1  UNL     1     -35.504 169.320  70.252  1.00  0.00    -0.085 Br
HETATM   19  C14 UNL     1     -36.428 171.986  70.571  1.00  0.00     0.046 C 
BRANCH  15  20
HETATM   20  C11 UNL     1     -36.141 170.275  67.275  1.00  0.00     0.170 C 
BRANCH  20  21
HETATM   21  O3  UNL     1     -35.868 170.991  66.128  1.00  0.00    -0.400 OA
ATOM     22  H3  UNL     1     -35.652 171.898  66.313  1.00  0.00     0.209 HD
ENDBRANCH  20  21
ENDBRANCH  15  20
ENDBRANCH  11  13
ENDBRANCH   8  11
BRANCH   1  23
HETATM   23  N2  UNL     1     -39.106 173.766  74.532  1.00  0.00    -0.157 N 
HETATM   24  C4  UNL     1     -38.944 172.405  74.906  1.00  0.00     0.264 C 
HETATM   25  O1  UNL     1     -39.960 171.673  74.909  1.00  0.00    -0.271 OA
ATOM     26  H2  UNL     1     -39.096 174.493  75.248  1.00  0.00     0.187 HD
BRANCH  24  27
HETATM   27  C3  UNL     1     -37.584 171.957  75.265  1.00  0.00     0.374 C 
BRANCH  27  28
HETATM   28  N1  UNL     1     -37.589 170.912  76.269  1.00  0.00     0.088 N 
HETATM   29  C1  UNL     1     -36.338 171.078  77.025  1.00  0.00     0.310 C 
HETATM   30  C2  UNL     1     -37.544 169.584  75.689  1.00  0.00     0.310 C 
ENDBRANCH  27  28
ENDBRANCH  24  27
ENDBRANCH   1  23
TORSDOF 7
ENDMDL
MODEL 5
REMARK VINA RESULT: -6.954808814      2.157      4.434
REMARK  7 active torsions:
REMARK  status: ('A' for Active; 'I' for Inactive)
REMARK    1  A    between atoms: N1_2  and  C3_4 
REMARK    2  A    between atoms: C3_4  and  C4_5 
REMARK       I    between atoms: C4_5  and  N2_7 
REMARK    3  A    between atoms: N2_7  and  C5_9 
REMARK    4  A    between atoms: C7_16  and  N5_17 
REMARK    5  A    between atoms: N5_17  and  C8_19 
REMARK    6  A    between atoms: C10_21  and  C11_22 
REMARK    7  A    between atoms: C11_22  and  O3_23 
ROOT
HETATM    1  C5  UNL     1     -38.932 172.379  74.508  1.00  0.00     0.703 A 
HETATM    2  N3  UNL     1     -38.536 172.076  75.761  1.00  0.00    -0.140 N 
ATOM      3  H3  UNL     1     -38.871 172.619  76.558  1.00  0.00     0.189 HD
HETATM    4  C6  UNL     1     -37.702 171.055  75.937  1.00  0.00     0.352 A 
HETATM    5  O2  UNL     1     -37.271 170.690  77.077  1.00  0.00    -0.246 OA
HETATM    6  N4  UNL     1     -37.275 170.349  74.854  1.00  0.00    -0.140 N 
ATOM      7  H4  UNL     1     -36.636 169.565  74.991  1.00  0.00     0.189 HD
HETATM    8  C7  UNL     1     -37.676 170.660  73.608  1.00  0.00     0.697 A 
HETATM    9  N6  UNL     1     -38.513 171.686  73.444  1.00  0.00    -0.022 N 
ATOM     10  H6  UNL     1     -38.832 171.941  72.509  1.00  0.00     0.203 HD
ENDROOT
BRANCH   8  11
HETATM   11  N5  UNL     1     -37.249 169.964  72.586  1.00  0.00    -0.221 N 
ATOM     12  H5  UNL     1     -36.841 169.046  72.766  1.00  0.00     0.178 HD
BRANCH  11  13
HETATM   13  C8  UNL     1     -37.321 170.421  71.219  1.00  0.00     0.101 C 
HETATM   14  C9  UNL     1     -36.162 171.377  70.990  1.00  0.00     0.034 C 
HETATM   15  C10 UNL     1     -35.154 170.507  70.284  1.00  0.00     0.030 C 
HETATM   16  C12 UNL     1     -36.042 169.790  69.289  1.00  0.00     0.022 C 
HETATM   17  C13 UNL     1     -35.328 168.674  68.582  1.00  0.00     0.028 C 
HETATM   18 BR1  UNL     1     -36.800 171.063  68.079  1.00  0.00    -0.085 Br
HETATM   19  C14 UNL     1     -37.110 169.259  70.248  1.00  0.00     0.046 C 
BRANCH  15  20
HETATM   20  C11 UNL     1     -34.037 171.281  69.661  1.00  0.00     0.170 C 
BRANCH  20  21
HETATM   21  O3  UNL     1     -32.799 170.776  69.999  1.00  0.00    -0.400 OA
ATOM     22  H3  UNL     1     -32.100 171.165  69.486  1.00  0.00     0.209 HD
ENDBRANCH  20  21
ENDBRANCH  15  20
ENDBRANCH  11  13
ENDBRANCH   8  11
BRANCH   1  23
HETATM   23  N2  UNL     1     -39.736 173.362  74.324  1.00  0.00    -0.157 N 
HETATM   24  C4  UNL     1     -39.298 174.700  74.520  1.00  0.00     0.264 C 
HETATM   25  O1  UNL     1     -39.166 175.107  75.697  1.00  0.00    -0.271 OA
ATOM     26  H2  UNL     1     -40.698 173.182  74.035  1.00  0.00     0.187 HD
BRANCH  24  27
HETATM   27  C3  UNL     1     -39.032 175.511  73.316  1.00  0.00     0.374 C 
BRANCH  27  28
HETATM   28  N1  UNL     1     -39.755 175.036  72.154  1.00  0.00     0.088 N 
HETATM   29  C1  UNL     1     -38.738 174.473  71.251  1.00  0.00     0.310 C 
HETATM   30  C2  UNL     1     -40.402 176.110  71.423  1.00  0.00     0.310 C 
ENDBRANCH  27  28
ENDBRANCH  24  27
ENDBRANCH   1  23
TORSDOF 7
ENDMDL
