MODEL 1
REMARK VINA RESULT: -7.492741818      0.000      0.000
REMARK  7 active torsions:
REMARK  status: ('A' for Active; 'I' for Inactive)
REMARK    1  A    between atoms: O1_2  and  C2_3 
REMARK    2  A    between atoms: C5_8  and  N2_9 
REMARK    3  A    between atoms: C6_14  and  N4_15 
REMARK    4  A    between atoms: N4_15  and  O2_17 
REMARK    5  A    between atoms: O2_17  and  C7_18 
REMARK    6  A    between atoms: C9_24  and  O3_25 
REMARK    7  A    between atoms: C11_27  and  O4_28 
ROOT
HETATM    1  C2  UNL     1      30.442  47.805  -7.288  1.00  0.00     0.106 A 
HETATM    2  C3  UNL     1      31.178  48.931  -6.912  1.00  0.00     0.071 A 
HETATM    3  C4  UNL     1      31.375  49.209  -5.569  1.00  0.00     0.069 A 
HETATM    4  N1  UNL     1      32.106  50.303  -5.228  1.00  0.00    -0.191 N 
ATOM      5  H1  UNL     1      32.486  50.903  -5.959  1.00  0.00     0.184 HD
HETATM    6  C5  UNL     1      32.330  50.600  -3.943  1.00  0.00     0.678 A 
HETATM    7  N3  UNL     1      31.816  49.787  -3.008  1.00  0.00    -0.174 N 
ATOM      8  H3  UNL     1      31.989  50.011  -2.029  1.00  0.00     0.186 HD
HETATM    9  C6  UNL     1      31.084  48.689  -3.288  1.00  0.00     0.156 A 
HETATM   10  C8  UNL     1      30.836  48.360  -4.595  1.00  0.00     0.074 A 
HETATM   11  C9  UNL     1      30.111  47.254  -4.983  1.00  0.00     0.120 A 
HETATM   12  C11 UNL     1      29.912  46.972  -6.335  1.00  0.00     0.136 A 
ENDROOT
BRANCH   9  13
HETATM   13  N4  UNL     1      30.638  47.935  -2.331  1.00  0.00    -0.240 N 
ATOM     14  H4  UNL     1      30.597  46.922  -2.450  1.00  0.00     0.196 HD
BRANCH  13  15
HETATM   15  O2  UNL     1      30.220  48.508  -1.155  1.00  0.00    -0.203 OA
BRANCH  15  16
HETATM   16  C7  UNL     1      28.923  48.307  -0.693  1.00  0.00     0.249 C 
HETATM   17  N5  UNL     1      27.994  49.022  -1.248  1.00  0.00    -0.366 N 
ATOM     18  H52 UNL     1      28.216  49.693  -1.984  1.00  0.00     0.159 HD
ATOM     19  H51 UNL     1      27.044  48.875  -0.909  1.00  0.00     0.159 HD
HETATM   20  N6  UNL     1      28.614  47.373   0.331  1.00  0.00    -0.055 NA
ENDBRANCH  15  16
ENDBRANCH  13  15
ENDBRANCH   9  13
BRANCH   6  21
HETATM   21  N2  UNL     1      33.024  51.641  -3.630  1.00  0.00    -0.234 N 
ATOM     22  H22 UNL     1      33.271  52.349  -4.321  1.00  0.00     0.174 HD
ATOM     23  H21 UNL     1      33.341  51.775  -2.670  1.00  0.00     0.174 HD
ENDBRANCH   6  21
BRANCH  11  24
HETATM   24  O3  UNL     1      29.558  46.401  -4.020  1.00  0.00    -0.352 OA
HETATM   25  C10 UNL     1      28.161  46.426  -3.737  1.00  0.00     0.210 C 
ENDBRANCH  11  24
BRANCH  12  26
HETATM   26  O4  UNL     1      29.197  45.878  -6.686  1.00  0.00    -0.351 OA
HETATM   27  C12 UNL     1      29.656  44.571  -6.843  1.00  0.00     0.210 C 
ENDBRANCH  12  26
BRANCH   1  28
HETATM   28  O1  UNL     1      30.238  47.515  -8.609  1.00  0.00    -0.353 OA
HETATM   29  C1  UNL     1      31.177  46.856  -9.436  1.00  0.00     0.210 C 
ENDBRANCH   1  28
TORSDOF 7
ENDMDL
MODEL 2
REMARK VINA RESULT: -7.329421451      2.697      4.338
REMARK  7 active torsions:
REMARK  status: ('A' for Active; 'I' for Inactive)
REMARK    1  A    between atoms: O1_2  and  C2_3 
REMARK    2  A    between atoms: C5_8  and  N2_9 
REMARK    3  A    between atoms: C6_14  and  N4_15 
REMARK    4  A    between atoms: N4_15  and  O2_17 
REMARK    5  A    between atoms: O2_17  and  C7_18 
REMARK    6  A    between atoms: C9_24  and  O3_25 
REMARK    7  A    between atoms: C11_27  and  O4_28 
ROOT
HETATM    1  C2  UNL     1      31.371  49.222  -6.852  1.00  0.00     0.106 A 
HETATM    2  C3  UNL     1      31.149  47.964  -7.418  1.00  0.00     0.071 A 
HETATM    3  C4  UNL     1      30.550  46.967  -6.666  1.00  0.00     0.069 A 
HETATM    4  N1  UNL     1      30.333  45.755  -7.242  1.00  0.00    -0.191 N 
ATOM      5  H1  UNL     1      30.621  45.596  -8.207  1.00  0.00     0.184 HD
HETATM    6  C5  UNL     1      29.746  44.768  -6.554  1.00  0.00     0.678 A 
HETATM    7  N3  UNL     1      29.379  45.013  -5.288  1.00  0.00    -0.174 N 
ATOM      8  H3  UNL     1      28.930  44.262  -4.765  1.00  0.00     0.186 HD
HETATM    9  C6  UNL     1      29.570  46.195  -4.666  1.00  0.00     0.156 A 
HETATM   10  C8  UNL     1      30.170  47.223  -5.344  1.00  0.00     0.074 A 
HETATM   11  C9  UNL     1      30.397  48.469  -4.801  1.00  0.00     0.120 A 
HETATM   12  C11 UNL     1      30.999  49.476  -5.557  1.00  0.00     0.136 A 
ENDROOT
BRANCH   9  13
HETATM   13  N4  UNL     1      29.167  46.366  -3.444  1.00  0.00    -0.240 N 
ATOM     14  H4  UNL     1      29.837  46.602  -2.711  1.00  0.00     0.196 HD
BRANCH  13  15
HETATM   15  O2  UNL     1      27.835  46.228  -3.143  1.00  0.00    -0.203 OA
BRANCH  15  16
HETATM   16  C7  UNL     1      27.282  46.903  -2.060  1.00  0.00     0.249 C 
HETATM   17  N5  UNL     1      27.210  46.245  -0.944  1.00  0.00    -0.366 N 
ATOM     18  H52 UNL     1      27.545  45.283  -0.878  1.00  0.00     0.159 HD
ATOM     19  H51 UNL     1      26.805  46.740  -0.150  1.00  0.00     0.159 HD
HETATM   20  N6  UNL     1      26.815  48.242  -2.151  1.00  0.00    -0.055 NA
ENDBRANCH  15  16
ENDBRANCH  13  15
ENDBRANCH   9  13
BRANCH   6  21
HETATM   21  N2  UNL     1      29.546  43.622  -7.110  1.00  0.00    -0.234 N 
ATOM     22  H22 UNL     1      30.012  42.777  -6.781  1.00  0.00     0.174 HD
ATOM     23  H21 UNL     1      28.906  43.541  -7.901  1.00  0.00     0.174 HD
ENDBRANCH   6  21
BRANCH  11  24
HETATM   24  O3  UNL     1      30.031  48.738  -3.476  1.00  0.00    -0.352 OA
HETATM   25  C10 UNL     1      30.974  48.607  -2.415  1.00  0.00     0.210 C 
ENDBRANCH  11  24
BRANCH  12  26
HETATM   26  O4  UNL     1      31.209  50.690  -4.997  1.00  0.00    -0.351 OA
HETATM   27  C12 UNL     1      32.382  51.177  -4.424  1.00  0.00     0.210 C 
ENDBRANCH  12  26
BRANCH   1  28
HETATM   28  O1  UNL     1      31.960  50.219  -7.580  1.00  0.00    -0.353 OA
HETATM   29  C1  UNL     1      33.323  50.235  -7.956  1.00  0.00     0.210 C 
ENDBRANCH   1  28
TORSDOF 7
ENDMDL
MODEL 3
REMARK VINA RESULT: -7.309085318      2.722      4.265
REMARK  7 active torsions:
REMARK  status: ('A' for Active; 'I' for Inactive)
REMARK    1  A    between atoms: O1_2  and  C2_3 
REMARK    2  A    between atoms: C5_8  and  N2_9 
REMARK    3  A    between atoms: C6_14  and  N4_15 
REMARK    4  A    between atoms: N4_15  and  O2_17 
REMARK    5  A    between atoms: O2_17  and  C7_18 
REMARK    6  A    between atoms: C9_24  and  O3_25 
REMARK    7  A    between atoms: C11_27  and  O4_28 
ROOT
HETATM    1  C2  UNL     1      31.328  49.119  -7.534  1.00  0.00     0.106 A 
HETATM    2  C3  UNL     1      31.013  47.817  -7.930  1.00  0.00     0.071 A 
HETATM    3  C4  UNL     1      30.530  46.911  -7.000  1.00  0.00     0.069 A 
HETATM    4  N1  UNL     1      30.219  45.654  -7.412  1.00  0.00    -0.191 N 
ATOM      5  H1  UNL     1      30.354  45.395  -8.389  1.00  0.00     0.184 HD
HETATM    6  C5  UNL     1      29.738  44.752  -6.547  1.00  0.00     0.678 A 
HETATM    7  N3  UNL     1      29.571  45.128  -5.271  1.00  0.00    -0.174 N 
ATOM      8  H3  UNL     1      29.202  44.442  -4.613  1.00  0.00     0.186 HD
HETATM    9  C6  UNL     1      29.863  46.360  -4.807  1.00  0.00     0.156 A 
HETATM   10  C8  UNL     1      30.359  47.304  -5.667  1.00  0.00     0.074 A 
HETATM   11  C9  UNL     1      30.676  48.592  -5.293  1.00  0.00     0.120 A 
HETATM   12  C11 UNL     1      31.161  49.506  -6.229  1.00  0.00     0.136 A 
ENDROOT
BRANCH   9  13
HETATM   13  N4  UNL     1      29.654  46.659  -3.561  1.00  0.00    -0.240 N 
ATOM     14  H4  UNL     1      30.357  47.176  -3.032  1.00  0.00     0.196 HD
BRANCH  13  15
HETATM   15  O2  UNL     1      28.481  46.277  -2.960  1.00  0.00    -0.203 OA
BRANCH  15  16
HETATM   16  C7  UNL     1      28.372  46.257  -1.573  1.00  0.00     0.249 C 
HETATM   17  N5  UNL     1      27.169  46.247  -1.088  1.00  0.00    -0.366 N 
ATOM     18  H52 UNL     1      26.354  46.252  -1.702  1.00  0.00     0.159 HD
ATOM     19  H51 UNL     1      27.089  46.232  -0.071  1.00  0.00     0.159 HD
HETATM   20  N6  UNL     1      29.506  46.250  -0.718  1.00  0.00    -0.055 NA
ENDBRANCH  15  16
ENDBRANCH  13  15
ENDBRANCH   9  13
BRANCH   6  21
HETATM   21  N2  UNL     1      29.447  43.562  -6.949  1.00  0.00    -0.234 N 
ATOM     22  H22 UNL     1      28.500  43.189  -6.882  1.00  0.00     0.174 HD
ATOM     23  H21 UNL     1      30.171  42.964  -7.347  1.00  0.00     0.174 HD
ENDBRANCH   6  21
BRANCH  11  24
HETATM   24  O3  UNL     1      30.518  48.997  -3.962  1.00  0.00    -0.352 OA
HETATM   25  C10 UNL     1      31.619  48.975  -3.056  1.00  0.00     0.210 C 
ENDBRANCH  11  24
BRANCH  12  26
HETATM   26  O4  UNL     1      31.462  50.764  -5.832  1.00  0.00    -0.351 OA
HETATM   27  C12 UNL     1      32.720  51.295  -5.554  1.00  0.00     0.210 C 
ENDBRANCH  12  26
BRANCH   1  28
HETATM   28  O1  UNL     1      31.805  50.026  -8.439  1.00  0.00    -0.353 OA
HETATM   29  C1  UNL     1      33.069  49.940  -9.065  1.00  0.00     0.210 C 
ENDBRANCH   1  28
TORSDOF 7
ENDMDL
MODEL 4
REMARK VINA RESULT: -7.265605035      2.717      4.281
REMARK  7 active torsions:
REMARK  status: ('A' for Active; 'I' for Inactive)
REMARK    1  A    between atoms: O1_2  and  C2_3 
REMARK    2  A    between atoms: C5_8  and  N2_9 
REMARK    3  A    between atoms: C6_14  and  N4_15 
REMARK    4  A    between atoms: N4_15  and  O2_17 
REMARK    5  A    between atoms: O2_17  and  C7_18 
REMARK    6  A    between atoms: C9_24  and  O3_25 
REMARK    7  A    between atoms: C11_27  and  O4_28 
ROOT
HETATM    1  C2  UNL     1      31.457  48.950  -7.902  1.00  0.00     0.106 A 
HETATM    2  C3  UNL     1      31.127  47.623  -8.189  1.00  0.00     0.071 A 
HETATM    3  C4  UNL     1      30.599  46.814  -7.196  1.00  0.00     0.069 A 
HETATM    4  N1  UNL     1      30.274  45.531  -7.502  1.00  0.00    -0.191 N 
ATOM      5  H1  UNL     1      30.431  45.182  -8.448  1.00  0.00     0.184 HD
HETATM    6  C5  UNL     1      29.751  44.720  -6.576  1.00  0.00     0.678 A 
HETATM    7  N3  UNL     1      29.557  45.212  -5.343  1.00  0.00    -0.174 N 
ATOM      8  H3  UNL     1      29.155  44.595  -4.638  1.00  0.00     0.186 HD
HETATM    9  C6  UNL     1      29.861  46.476  -4.983  1.00  0.00     0.156 A 
HETATM   10  C8  UNL     1      30.400  47.329  -5.910  1.00  0.00     0.074 A 
HETATM   11  C9  UNL     1      30.732  48.639  -5.643  1.00  0.00     0.120 A 
HETATM   12  C11 UNL     1      31.262  49.456  -6.642  1.00  0.00     0.136 A 
ENDROOT
BRANCH   9  13
HETATM   13  N4  UNL     1      29.623  46.890  -3.776  1.00  0.00    -0.240 N 
ATOM     14  H4  UNL     1      30.369  47.312  -3.222  1.00  0.00     0.196 HD
BRANCH  13  15
HETATM   15  O2  UNL     1      28.363  46.756  -3.250  1.00  0.00    -0.203 OA
BRANCH  15  16
HETATM   16  C7  UNL     1      27.651  47.876  -2.829  1.00  0.00     0.249 C 
HETATM   17  N5  UNL     1      27.896  48.985  -3.456  1.00  0.00    -0.366 N 
ATOM     18  H52 UNL     1      28.576  49.021  -4.215  1.00  0.00     0.159 HD
ATOM     19  H51 UNL     1      27.374  49.806  -3.147  1.00  0.00     0.159 HD
HETATM   20  N6  UNL     1      26.705  47.826  -1.771  1.00  0.00    -0.055 NA
ENDBRANCH  15  16
ENDBRANCH  13  15
ENDBRANCH   9  13
BRANCH   6  21
HETATM   21  N2  UNL     1      29.447  43.503  -6.877  1.00  0.00    -0.234 N 
ATOM     22  H22 UNL     1      29.962  42.980  -7.585  1.00  0.00     0.174 HD
ATOM     23  H21 UNL     1      28.673  43.036  -6.403  1.00  0.00     0.174 HD
ENDBRANCH   6  21
BRANCH  11  24
HETATM   24  O3  UNL     1      30.546  49.166  -4.359  1.00  0.00    -0.352 OA
HETATM   25  C10 UNL     1      31.616  49.192  -3.418  1.00  0.00     0.210 C 
ENDBRANCH  11  24
BRANCH  12  26
HETATM   26  O4  UNL     1      31.578  50.740  -6.351  1.00  0.00    -0.351 OA
HETATM   27  C12 UNL     1      32.820  51.252  -5.981  1.00  0.00     0.210 C 
ENDBRANCH  12  26
BRANCH   1  28
HETATM   28  O1  UNL     1      31.978  49.763  -8.870  1.00  0.00    -0.353 OA
HETATM   29  C1  UNL     1      31.726  49.620 -10.254  1.00  0.00     0.210 C 
ENDBRANCH   1  28
TORSDOF 7
ENDMDL
MODEL 5
REMARK VINA RESULT: -7.194717947      4.084      7.034
REMARK  7 active torsions:
REMARK  status: ('A' for Active; 'I' for Inactive)
REMARK    1  A    between atoms: O1_2  and  C2_3 
REMARK    2  A    between atoms: C5_8  and  N2_9 
REMARK    3  A    between atoms: C6_14  and  N4_15 
REMARK    4  A    between atoms: N4_15  and  O2_17 
REMARK    5  A    between atoms: O2_17  and  C7_18 
REMARK    6  A    between atoms: C9_24  and  O3_25 
REMARK    7  A    between atoms: C11_27  and  O4_28 
ROOT
HETATM    1  C2  UNL     1      29.362  47.898  -4.786  1.00  0.00     0.106 A 
HETATM    2  C3  UNL     1      28.947  46.564  -4.770  1.00  0.00     0.071 A 
HETATM    3  C4  UNL     1      29.479  45.666  -5.680  1.00  0.00     0.069 A 
HETATM    4  N1  UNL     1      29.070  44.371  -5.637  1.00  0.00    -0.191 N 
ATOM      5  H1  UNL     1      28.376  44.084  -4.947  1.00  0.00     0.184 HD
HETATM    6  C5  UNL     1      29.568  43.469  -6.491  1.00  0.00     0.678 A 
HETATM    7  N3  UNL     1      30.480  43.881  -7.383  1.00  0.00    -0.174 N 
ATOM      8  H3  UNL     1      30.862  43.193  -8.032  1.00  0.00     0.186 HD
HETATM    9  C6  UNL     1      30.922  45.152  -7.472  1.00  0.00     0.156 A 
HETATM   10  C8  UNL     1      30.429  46.099  -6.613  1.00  0.00     0.074 A 
HETATM   11  C9  UNL     1      30.826  47.418  -6.616  1.00  0.00     0.120 A 
HETATM   12  C11 UNL     1      30.293  48.324  -5.699  1.00  0.00     0.136 A 
ENDROOT
BRANCH   9  13
HETATM   13  N4  UNL     1      31.826  45.474  -8.348  1.00  0.00    -0.240 N 
ATOM     14  H4  UNL     1      32.654  45.996  -8.062  1.00  0.00     0.196 HD
BRANCH  13  15
HETATM   15  O2  UNL     1      31.659  45.106  -9.659  1.00  0.00    -0.203 OA
BRANCH  15  16
HETATM   16  C7  UNL     1      32.365  44.029 -10.186  1.00  0.00     0.249 C 
HETATM   17  N5  UNL     1      33.316  44.315 -11.022  1.00  0.00    -0.366 N 
ATOM     18  H52 UNL     1      33.525  45.282 -11.270  1.00  0.00     0.159 HD
ATOM     19  H51 UNL     1      33.833  43.525 -11.408  1.00  0.00     0.159 HD
HETATM   20  N6  UNL     1      32.074  42.683  -9.841  1.00  0.00    -0.055 NA
ENDBRANCH  15  16
ENDBRANCH  13  15
ENDBRANCH   9  13
BRANCH   6  21
HETATM   21  N2  UNL     1      29.172  42.243  -6.442  1.00  0.00    -0.234 N 
ATOM     22  H22 UNL     1      29.416  41.570  -7.168  1.00  0.00     0.174 HD
ATOM     23  H21 UNL     1      28.599  41.920  -5.661  1.00  0.00     0.174 HD
ENDBRANCH   6  21
BRANCH  11  24
HETATM   24  O3  UNL     1      31.770  47.868  -7.549  1.00  0.00    -0.352 OA
HETATM   25  C10 UNL     1      31.384  48.714  -8.629  1.00  0.00     0.210 C 
ENDBRANCH  11  24
BRANCH  12  26
HETATM   26  O4  UNL     1      30.703  49.614  -5.725  1.00  0.00    -0.351 OA
HETATM   27  C12 UNL     1      31.756  50.190  -5.017  1.00  0.00     0.210 C 
ENDBRANCH  12  26
BRANCH   1  28
HETATM   28  O1  UNL     1      28.848  48.798  -3.894  1.00  0.00    -0.353 OA
HETATM   29  C1  UNL     1      27.543  48.732  -3.355  1.00  0.00     0.210 C 
ENDBRANCH   1  28
TORSDOF 7
ENDMDL
