MODEL 1
REMARK VINA RESULT: -6.026499548      0.000      0.000
REMARK  3 active torsions:
REMARK  status: ('A' for Active; 'I' for Inactive)
REMARK    1  A    between atoms: O1_2  and  C2_3 
REMARK    2  A    between atoms: C4_7  and  N2_8 
REMARK    3  A    between atoms: C5_13  and  N4_14 
ROOT
HETATM    1  N4  UNL     1      43.805  31.110  33.630  1.00  0.00    -0.277 N 
ATOM      2  H4  UNL     1      44.616  31.290  34.221  1.00  0.00     0.179 HD
HETATM    3  C6  UNL     1      43.222  29.837  33.623  1.00  0.00     0.183 C 
HETATM    4  N5  UNL     1      42.731  28.789  33.600  1.00  0.00    -0.172 NA
ENDROOT
BRANCH   1   5
HETATM    5  C5  UNL     1      43.331  32.051  32.899  1.00  0.00     0.165 A 
HETATM    6  C2  UNL     1      43.392  33.366  33.305  1.00  0.00     0.129 A 
HETATM    7  C3  UNL     1      42.885  34.396  32.526  1.00  0.00     0.146 A 
HETATM    8  N1  UNL     1      42.322  34.057  31.340  1.00  0.00    -0.199 N 
HETATM    9  C4  UNL     1      42.254  32.779  30.929  1.00  0.00     0.677 A 
ATOM     10  H1  UNL     1      41.940  34.791  30.744  1.00  0.00     0.183 HD
HETATM   11  N3  UNL     1      42.757  31.803  31.711  1.00  0.00    -0.173 N 
ATOM     12  H3  UNL     1      42.699  30.838  31.388  1.00  0.00     0.186 HD
BRANCH   6  13
HETATM   13  O1  UNL     1      43.965  33.700  34.508  1.00  0.00    -0.351 OA
HETATM   14  C1  UNL     1      43.620  34.888  35.192  1.00  0.00     0.210 C 
ENDBRANCH   6  13
BRANCH   9  15
HETATM   15  N2  UNL     1      41.697  32.574  29.785  1.00  0.00    -0.234 N 
ATOM     16  H22 UNL     1      42.147  32.758  28.887  1.00  0.00     0.174 HD
ATOM     17  H21 UNL     1      40.746  32.205  29.803  1.00  0.00     0.174 HD
ENDBRANCH   9  15
ENDBRANCH   1   5
TORSDOF 3
ENDMDL
MODEL 2
REMARK VINA RESULT: -5.496298858      0.923      3.383
REMARK  3 active torsions:
REMARK  status: ('A' for Active; 'I' for Inactive)
REMARK    1  A    between atoms: O1_2  and  C2_3 
REMARK    2  A    between atoms: C4_7  and  N2_8 
REMARK    3  A    between atoms: C5_13  and  N4_14 
ROOT
HETATM    1  N4  UNL     1      42.519  33.334  31.338  1.00  0.00    -0.277 N 
ATOM      2  H4  UNL     1      42.667  34.343  31.363  1.00  0.00     0.179 HD
HETATM    3  C6  UNL     1      41.944  32.747  30.205  1.00  0.00     0.183 C 
HETATM    4  N5  UNL     1      41.463  32.245  29.279  1.00  0.00    -0.172 NA
ENDROOT
BRANCH   1   5
HETATM    5  C5  UNL     1      42.862  32.617  32.345  1.00  0.00     0.165 A 
HETATM    6  C2  UNL     1      43.474  33.181  33.442  1.00  0.00     0.129 A 
HETATM    7  C3  UNL     1      43.850  32.419  34.540  1.00  0.00     0.146 A 
HETATM    8  N1  UNL     1      43.590  31.089  34.491  1.00  0.00    -0.199 N 
HETATM    9  C4  UNL     1      42.994  30.524  33.427  1.00  0.00     0.677 A 
ATOM     10  H1  UNL     1      43.854  30.503  35.282  1.00  0.00     0.183 HD
HETATM   11  N3  UNL     1      42.642  31.294  32.378  1.00  0.00    -0.173 N 
ATOM     12  H3  UNL     1      42.190  30.852  31.577  1.00  0.00     0.186 HD
BRANCH   6  13
HETATM   13  O1  UNL     1      43.733  34.529  33.484  1.00  0.00    -0.351 OA
HETATM   14  C1  UNL     1      44.366  35.131  34.595  1.00  0.00     0.210 C 
ENDBRANCH   6  13
BRANCH   9  15
HETATM   15  N2  UNL     1      42.797  29.252  33.490  1.00  0.00    -0.234 N 
ATOM     16  H22 UNL     1      43.354  28.560  32.987  1.00  0.00     0.174 HD
ATOM     17  H21 UNL     1      42.030  28.941  34.087  1.00  0.00     0.174 HD
ENDBRANCH   9  15
ENDBRANCH   1   5
TORSDOF 3
ENDMDL
MODEL 3
REMARK VINA RESULT: -5.048207176      2.023      3.234
REMARK  3 active torsions:
REMARK  status: ('A' for Active; 'I' for Inactive)
REMARK    1  A    between atoms: O1_2  and  C2_3 
REMARK    2  A    between atoms: C4_7  and  N2_8 
REMARK    3  A    between atoms: C5_13  and  N4_14 
ROOT
HETATM    1  N4  UNL     1      44.195  31.194  33.100  1.00  0.00    -0.277 N 
ATOM      2  H4  UNL     1      45.164  31.062  32.811  1.00  0.00     0.179 HD
HETATM    3  C6  UNL     1      43.417  30.082  33.443  1.00  0.00     0.183 C 
HETATM    4  N5  UNL     1      42.757  29.173  33.722  1.00  0.00    -0.172 NA
ENDROOT
BRANCH   1   5
HETATM    5  C5  UNL     1      43.702  32.378  33.145  1.00  0.00     0.165 A 
HETATM    6  C2  UNL     1      42.866  32.837  32.151  1.00  0.00     0.129 A 
HETATM    7  C3  UNL     1      42.324  34.115  32.185  1.00  0.00     0.146 A 
HETATM    8  N1  UNL     1      42.651  34.899  33.242  1.00  0.00    -0.199 N 
HETATM    9  C4  UNL     1      43.465  34.465  34.219  1.00  0.00     0.677 A 
ATOM     10  H1  UNL     1      42.268  35.843  33.296  1.00  0.00     0.183 HD
HETATM   11  N3  UNL     1      43.974  33.219  34.155  1.00  0.00    -0.173 N 
ATOM     12  H3  UNL     1      44.591  32.903  34.903  1.00  0.00     0.186 HD
BRANCH   6  13
HETATM   13  O1  UNL     1      42.540  32.035  31.085  1.00  0.00    -0.351 OA
HETATM   14  C1  UNL     1      41.780  32.520  29.995  1.00  0.00     0.210 C 
ENDBRANCH   6  13
BRANCH   9  15
HETATM   15  N2  UNL     1      43.707  35.297  35.174  1.00  0.00    -0.234 N 
ATOM     16  H22 UNL     1      44.339  36.094  35.094  1.00  0.00     0.174 HD
ATOM     17  H21 UNL     1      43.223  35.127  36.056  1.00  0.00     0.174 HD
ENDBRANCH   9  15
ENDBRANCH   1   5
TORSDOF 3
ENDMDL
MODEL 4
REMARK VINA RESULT: -4.810926468      5.171      6.929
REMARK  3 active torsions:
REMARK  status: ('A' for Active; 'I' for Inactive)
REMARK    1  A    between atoms: O1_2  and  C2_3 
REMARK    2  A    between atoms: C4_7  and  N2_8 
REMARK    3  A    between atoms: C5_13  and  N4_14 
ROOT
HETATM    1  N4  UNL     1      44.765  35.576  36.376  1.00  0.00    -0.277 N 
ATOM      2  H4  UNL     1      45.710  35.944  36.275  1.00  0.00     0.179 HD
HETATM    3  C6  UNL     1      44.129  34.989  35.276  1.00  0.00     0.183 C 
HETATM    4  N5  UNL     1      43.585  34.508  34.374  1.00  0.00    -0.172 NA
ENDROOT
BRANCH   1   5
HETATM    5  C5  UNL     1      44.170  35.656  37.510  1.00  0.00     0.165 A 
HETATM    6  C2  UNL     1      44.774  35.205  38.662  1.00  0.00     0.129 A 
HETATM    7  C3  UNL     1      44.145  35.285  39.897  1.00  0.00     0.146 A 
HETATM    8  N1  UNL     1      42.904  35.830  39.926  1.00  0.00    -0.199 N 
HETATM    9  C4  UNL     1      42.300  36.275  38.810  1.00  0.00     0.677 A 
ATOM     10  H1  UNL     1      42.415  35.903  40.818  1.00  0.00     0.183 HD
HETATM   11  N3  UNL     1      42.941  36.182  37.628  1.00  0.00    -0.173 N 
ATOM     12  H3  UNL     1      42.472  36.523  36.789  1.00  0.00     0.186 HD
BRANCH   6  13
HETATM   13  O1  UNL     1      46.032  34.655  38.624  1.00  0.00    -0.351 OA
HETATM   14  C1  UNL     1      47.168  35.363  39.080  1.00  0.00     0.210 C 
ENDBRANCH   6  13
BRANCH   9  15
HETATM   15  N2  UNL     1      41.121  36.773  38.958  1.00  0.00    -0.234 N 
ATOM     16  H22 UNL     1      40.669  37.387  38.279  1.00  0.00     0.174 HD
ATOM     17  H21 UNL     1      40.627  36.524  39.815  1.00  0.00     0.174 HD
ENDBRANCH   9  15
ENDBRANCH   1   5
TORSDOF 3
ENDMDL
MODEL 5
REMARK VINA RESULT: -4.505537561      6.470      8.499
REMARK  3 active torsions:
REMARK  status: ('A' for Active; 'I' for Inactive)
REMARK    1  A    between atoms: O1_2  and  C2_3 
REMARK    2  A    between atoms: C4_7  and  N2_8 
REMARK    3  A    between atoms: C5_13  and  N4_14 
ROOT
HETATM    1  N4  UNL     1      44.170  39.511  38.616  1.00  0.00    -0.277 N 
ATOM      2  H4  UNL     1      43.559  40.028  39.248  1.00  0.00     0.179 HD
HETATM    3  C6  UNL     1      45.349  40.106  38.153  1.00  0.00     0.183 C 
HETATM    4  N5  UNL     1      46.324  40.586  37.754  1.00  0.00    -0.172 NA
ENDROOT
BRANCH   1   5
HETATM    5  C5  UNL     1      43.850  38.323  38.254  1.00  0.00     0.165 A 
HETATM    6  C2  UNL     1      42.976  37.564  39.000  1.00  0.00     0.129 A 
HETATM    7  C3  UNL     1      42.618  36.277  38.621  1.00  0.00     0.146 A 
HETATM    8  N1  UNL     1      43.167  35.792  37.480  1.00  0.00    -0.199 N 
HETATM    9  C4  UNL     1      44.022  36.520  36.741  1.00  0.00     0.677 A 
ATOM     10  H1  UNL     1      42.924  34.850  37.175  1.00  0.00     0.183 HD
HETATM   11  N3  UNL     1      44.346  37.766  37.138  1.00  0.00    -0.173 N 
ATOM     12  H3  UNL     1      44.996  38.307  36.568  1.00  0.00     0.186 HD
BRANCH   6  13
HETATM   13  O1  UNL     1      42.425  38.064  40.154  1.00  0.00    -0.351 OA
HETATM   14  C1  UNL     1      42.343  37.291  41.335  1.00  0.00     0.210 C 
ENDBRANCH   6  13
BRANCH   9  15
HETATM   15  N2  UNL     1      44.480  35.956  35.677  1.00  0.00    -0.234 N 
ATOM     16  H22 UNL     1      44.231  35.014  35.374  1.00  0.00     0.174 HD
ATOM     17  H21 UNL     1      45.133  36.507  35.118  1.00  0.00     0.174 HD
ENDBRANCH   9  15
ENDBRANCH   1   5
TORSDOF 3
ENDMDL
