MODEL 1
REMARK VINA RESULT: -8.060601140      0.000      0.000
REMARK  10 active torsions:
REMARK  status: ('A' for Active; 'I' for Inactive)
REMARK    1  A    between atoms: N1_1  and  C1_5 
REMARK    2  A    between atoms: C1_5  and  C2_6 
REMARK    3  A    between atoms: C1_5  and  C3_8 
REMARK    4  A    between atoms: C6_11  and  O2_12 
REMARK    5  A    between atoms: O2_12  and  C7_13 
REMARK    6  A    between atoms: C7_13  and  C8_14 
REMARK    7  A    between atoms: C8_14  and  O3_15 
REMARK    8  A    between atoms: C8_14  and  C9_17 
REMARK    9  A    between atoms: C9_17  and  N2_18 
REMARK   10  A    between atoms: N2_18  and  C10_20 
ROOT
HETATM    1  C8  UNL     1       1.371   5.145  12.378  1.00  0.00     0.160 C 
ENDROOT
BRANCH   1   2
HETATM    2  C7  UNL     1       0.041   5.011  11.665  1.00  0.00     0.209 C 
BRANCH   2   3
HETATM    3  O2  UNL     1      -0.745   6.119  11.986  1.00  0.00    -0.349 OA
BRANCH   3   4
HETATM    4  C6  UNL     1      -0.861   7.239  11.176  1.00  0.00     0.068 A 
HETATM    5  C5  UNL     1      -1.612   8.295  11.627  1.00  0.00     0.037 A 
HETATM    6  C4  UNL     1      -1.715   9.411  10.795  1.00  0.00     0.012 A 
HETATM    7  C3  UNL     1      -1.093   9.461   9.571  1.00  0.00    -0.021 A 
HETATM    8  C18 UNL     1      -0.346   8.385   9.145  1.00  0.00     0.012 A 
HETATM    9  C17 UNL     1      -0.220   7.249   9.954  1.00  0.00     0.037 A 
BRANCH   7  10
HETATM   10  C1  UNL     1      -1.256  10.688   8.751  1.00  0.00     0.277 C 
BRANCH  10  11
HETATM   11  N1  UNL     1      -2.519  11.305   9.104  1.00  0.00    -0.065 N 
ATOM     12  H13 UNL     1      -3.306  10.832   8.662  1.00  0.00     0.275 HD
ATOM     13  H12 UNL     1      -2.764  11.133  10.079  1.00  0.00     0.275 HD
ATOM     14  H11 UNL     1      -2.511  12.302   8.889  1.00  0.00     0.275 HD
ENDBRANCH  10  11
BRANCH  10  15
HETATM   15  C2  UNL     1      -0.134  11.632   8.945  1.00  0.00     0.268 C 
HETATM   16  O1  UNL     1       0.864  11.537   8.265  1.00  0.00    -0.304 OA
ENDBRANCH  10  15
ENDBRANCH   7  10
ENDBRANCH   3   4
ENDBRANCH   2   3
ENDBRANCH   1   2
BRANCH   1  17
HETATM   17  O3  UNL     1       2.293   4.393  11.649  1.00  0.00    -0.392 OA
ATOM     18  H3  UNL     1       2.909   5.010  11.272  1.00  0.00     0.210 HD
ENDBRANCH   1  17
BRANCH   1  19
HETATM   19  C9  UNL     1       1.326   4.563  13.766  1.00  0.00     0.172 C 
BRANCH  19  20
HETATM   20  N2  UNL     1       1.045   5.574  14.762  1.00  0.00    -0.223 N 
ATOM     21  H2  UNL     1       1.806   6.149  15.121  1.00  0.00     0.177 HD
BRANCH  20  22
HETATM   22  C10 UNL     1      -0.136   5.758  15.199  1.00  0.00     0.679 A 
HETATM   23  N3  UNL     1      -0.730   5.068  16.178  1.00  0.00    -0.190 N 
HETATM   24  C11 UNL     1      -1.989   5.554  16.362  1.00  0.00     0.076 A 
ATOM     25  H3  UNL     1      -0.309   4.301  16.702  1.00  0.00     0.184 HD
HETATM   26  C12 UNL     1      -2.997   5.199  17.232  1.00  0.00     0.032 A 
HETATM   27  C16 UNL     1      -2.170   6.584  15.457  1.00  0.00     0.076 A 
HETATM   28  C13 UNL     1      -4.185   5.901  17.170  1.00  0.00     0.002 A 
HETATM   29  C14 UNL     1      -4.394   6.929  16.281  1.00  0.00     0.002 A 
HETATM   30  C15 UNL     1      -3.369   7.269  15.417  1.00  0.00     0.032 A 
HETATM   31  N4  UNL     1      -1.014   6.670  14.769  1.00  0.00    -0.190 N 
ATOM     32  H4  UNL     1      -0.832   7.341  14.023  1.00  0.00     0.184 HD
ENDBRANCH  20  22
ENDBRANCH  19  20
ENDBRANCH   1  19
TORSDOF 10
ENDMDL
MODEL 2
REMARK VINA RESULT: -8.022211457      1.249      1.683
REMARK  10 active torsions:
REMARK  status: ('A' for Active; 'I' for Inactive)
REMARK    1  A    between atoms: N1_1  and  C1_5 
REMARK    2  A    between atoms: C1_5  and  C2_6 
REMARK    3  A    between atoms: C1_5  and  C3_8 
REMARK    4  A    between atoms: C6_11  and  O2_12 
REMARK    5  A    between atoms: O2_12  and  C7_13 
REMARK    6  A    between atoms: C7_13  and  C8_14 
REMARK    7  A    between atoms: C8_14  and  O3_15 
REMARK    8  A    between atoms: C8_14  and  C9_17 
REMARK    9  A    between atoms: C9_17  and  N2_18 
REMARK   10  A    between atoms: N2_18  and  C10_20 
ROOT
HETATM    1  C8  UNL     1       1.508   4.682  11.566  1.00  0.00     0.160 C 
ENDROOT
BRANCH   1   2
HETATM    2  C7  UNL     1       0.297   4.651  10.655  1.00  0.00     0.209 C 
BRANCH   2   3
HETATM    3  O2  UNL     1      -0.656   5.537  11.159  1.00  0.00    -0.349 OA
BRANCH   3   4
HETATM    4  C6  UNL     1      -0.720   6.877  10.806  1.00  0.00     0.068 A 
HETATM    5  C5  UNL     1      -0.168   7.262   9.610  1.00  0.00     0.037 A 
HETATM    6  C4  UNL     1      -0.244   8.616   9.275  1.00  0.00     0.012 A 
HETATM    7  C3  UNL     1      -0.845   9.533  10.103  1.00  0.00    -0.021 A 
HETATM    8  C18 UNL     1      -1.389   9.116  11.297  1.00  0.00     0.012 A 
HETATM    9  C17 UNL     1      -1.332   7.766  11.665  1.00  0.00     0.037 A 
BRANCH   7  10
HETATM   10  C1  UNL     1      -0.881  10.952   9.667  1.00  0.00     0.277 C 
BRANCH  10  11
HETATM   11  N1  UNL     1       0.181  11.664  10.350  1.00  0.00    -0.065 N 
ATOM     12  H13 UNL     1       0.489  11.169  11.186  1.00  0.00     0.275 HD
ATOM     13  H12 UNL     1       1.054  11.635   9.823  1.00  0.00     0.275 HD
ATOM     14  H11 UNL     1      -0.100  12.621  10.562  1.00  0.00     0.275 HD
ENDBRANCH  10  11
BRANCH  10  15
HETATM   15  C2  UNL     1      -0.745  11.080   8.200  1.00  0.00     0.268 C 
HETATM   16  O1  UNL     1       0.142  11.757   7.729  1.00  0.00    -0.304 OA
ENDBRANCH  10  15
ENDBRANCH   7  10
ENDBRANCH   3   4
ENDBRANCH   2   3
ENDBRANCH   1   2
BRANCH   1  17
HETATM   17  O3  UNL     1       2.472   3.863  10.977  1.00  0.00    -0.392 OA
ATOM     18  H3  UNL     1       2.430   3.027  11.426  1.00  0.00     0.210 HD
ENDBRANCH   1  17
BRANCH   1  19
HETATM   19  C9  UNL     1       1.206   4.102  12.922  1.00  0.00     0.172 C 
BRANCH  19  20
HETATM   20  N2  UNL     1       1.042   5.135  13.921  1.00  0.00    -0.223 N 
ATOM     21  H2  UNL     1       1.868   5.566  14.337  1.00  0.00     0.177 HD
BRANCH  20  22
HETATM   22  C10 UNL     1      -0.114   5.516  14.292  1.00  0.00     0.679 A 
HETATM   23  N3  UNL     1      -0.385   6.574  15.063  1.00  0.00    -0.190 N 
HETATM   24  C11 UNL     1      -1.732   6.659  15.241  1.00  0.00     0.076 A 
ATOM     25  H3  UNL     1       0.306   7.214  15.454  1.00  0.00     0.184 HD
HETATM   26  C12 UNL     1      -2.516   7.551  15.941  1.00  0.00     0.032 A 
HETATM   27  C16 UNL     1      -2.307   5.608  14.550  1.00  0.00     0.076 A 
HETATM   28  C13 UNL     1      -3.885   7.362  15.927  1.00  0.00     0.002 A 
HETATM   29  C14 UNL     1      -4.485   6.327  15.249  1.00  0.00     0.002 A 
HETATM   30  C15 UNL     1      -3.679   5.443  14.554  1.00  0.00     0.032 A 
HETATM   31  N4  UNL     1      -1.281   4.939  13.988  1.00  0.00    -0.190 N 
ATOM     32  H4  UNL     1      -1.381   4.105  13.408  1.00  0.00     0.184 HD
ENDBRANCH  20  22
ENDBRANCH  19  20
ENDBRANCH   1  19
TORSDOF 10
ENDMDL
MODEL 3
REMARK VINA RESULT: -8.006949588      1.986      3.986
REMARK  10 active torsions:
REMARK  status: ('A' for Active; 'I' for Inactive)
REMARK    1  A    between atoms: N1_1  and  C1_5 
REMARK    2  A    between atoms: C1_5  and  C2_6 
REMARK    3  A    between atoms: C1_5  and  C3_8 
REMARK    4  A    between atoms: C6_11  and  O2_12 
REMARK    5  A    between atoms: O2_12  and  C7_13 
REMARK    6  A    between atoms: C7_13  and  C8_14 
REMARK    7  A    between atoms: C8_14  and  O3_15 
REMARK    8  A    between atoms: C8_14  and  C9_17 
REMARK    9  A    between atoms: C9_17  and  N2_18 
REMARK   10  A    between atoms: N2_18  and  C10_20 
ROOT
HETATM    1  C8  UNL     1      -3.325   6.727  15.782  1.00  0.00     0.160 C 
ENDROOT
BRANCH   1   2
HETATM    2  C7  UNL     1      -3.340   6.715  14.267  1.00  0.00     0.209 C 
BRANCH   2   3
HETATM    3  O2  UNL     1      -2.019   6.713  13.813  1.00  0.00    -0.349 OA
BRANCH   3   4
HETATM    4  C6  UNL     1      -1.610   7.329  12.639  1.00  0.00     0.068 A 
HETATM    5  C5  UNL     1      -1.842   8.674  12.494  1.00  0.00     0.037 A 
HETATM    6  C4  UNL     1      -1.422   9.272  11.305  1.00  0.00     0.012 A 
HETATM    7  C3  UNL     1      -0.801   8.552  10.313  1.00  0.00    -0.021 A 
HETATM    8  C18 UNL     1      -0.583   7.204  10.487  1.00  0.00     0.012 A 
HETATM    9  C17 UNL     1      -0.990   6.570  11.668  1.00  0.00     0.037 A 
BRANCH   7  10
HETATM   10  C1  UNL     1      -0.388   9.270   9.080  1.00  0.00     0.277 C 
BRANCH  10  11
HETATM   11  N1  UNL     1      -1.516   9.297   8.170  1.00  0.00    -0.065 N 
ATOM     12  H13 UNL     1      -1.267   9.718   7.275  1.00  0.00     0.275 HD
ATOM     13  H12 UNL     1      -1.755   8.362   7.839  1.00  0.00     0.275 HD
ATOM     14  H11 UNL     1      -2.317   9.762   8.596  1.00  0.00     0.275 HD
ENDBRANCH  10  11
BRANCH  10  15
HETATM   15  C2  UNL     1       0.087  10.640   9.375  1.00  0.00     0.268 C 
HETATM   16  O1  UNL     1       0.635  11.291   8.514  1.00  0.00    -0.304 OA
ENDBRANCH  10  15
ENDBRANCH   7  10
ENDBRANCH   3   4
ENDBRANCH   2   3
ENDBRANCH   1   2
BRANCH   1  17
HETATM   17  O3  UNL     1      -4.435   7.470  16.186  1.00  0.00    -0.392 OA
ATOM     18  H3  UNL     1      -4.390   7.533  17.133  1.00  0.00     0.210 HD
ENDBRANCH   1  17
BRANCH   1  19
HETATM   19  C9  UNL     1      -2.106   7.423  16.326  1.00  0.00     0.172 C 
BRANCH  19  20
HETATM   20  N2  UNL     1      -1.288   6.530  17.116  1.00  0.00    -0.223 N 
ATOM     21  H2  UNL     1      -1.214   6.675  18.123  1.00  0.00     0.177 HD
BRANCH  20  22
HETATM   22  C10 UNL     1      -0.657   5.565  16.577  1.00  0.00     0.679 A 
HETATM   23  N3  UNL     1      -0.527   4.332  17.077  1.00  0.00    -0.190 N 
HETATM   24  C11 UNL     1       0.215   3.581  16.217  1.00  0.00     0.076 A 
ATOM     25  H3  UNL     1      -0.920   4.007  17.960  1.00  0.00     0.184 HD
HETATM   26  C12 UNL     1       0.631   2.267  16.263  1.00  0.00     0.032 A 
HETATM   27  C16 UNL     1       0.553   4.390  15.148  1.00  0.00     0.076 A 
HETATM   28  C13 UNL     1       1.390   1.790  15.211  1.00  0.00     0.002 A 
HETATM   29  C14 UNL     1       1.740   2.571  14.134  1.00  0.00     0.002 A 
HETATM   30  C15 UNL     1       1.312   3.886  14.110  1.00  0.00     0.032 A 
HETATM   31  N4  UNL     1      -0.001   5.590  15.412  1.00  0.00    -0.190 N 
ATOM     32  H4  UNL     1       0.070   6.407  14.806  1.00  0.00     0.184 HD
ENDBRANCH  20  22
ENDBRANCH  19  20
ENDBRANCH   1  19
TORSDOF 10
ENDMDL
MODEL 4
REMARK VINA RESULT: -7.980576383      1.262      1.333
REMARK  10 active torsions:
REMARK  status: ('A' for Active; 'I' for Inactive)
REMARK    1  A    between atoms: N1_1  and  C1_5 
REMARK    2  A    between atoms: C1_5  and  C2_6 
REMARK    3  A    between atoms: C1_5  and  C3_8 
REMARK    4  A    between atoms: C6_11  and  O2_12 
REMARK    5  A    between atoms: O2_12  and  C7_13 
REMARK    6  A    between atoms: C7_13  and  C8_14 
REMARK    7  A    between atoms: C8_14  and  O3_15 
REMARK    8  A    between atoms: C8_14  and  C9_17 
REMARK    9  A    between atoms: C9_17  and  N2_18 
REMARK   10  A    between atoms: N2_18  and  C10_20 
ROOT
HETATM    1  C8  UNL     1       1.523   4.566  11.490  1.00  0.00     0.160 C 
ENDROOT
BRANCH   1   2
HETATM    2  C7  UNL     1       0.313   4.672  10.585  1.00  0.00     0.209 C 
BRANCH   2   3
HETATM    3  O2  UNL     1      -0.582   5.582  11.149  1.00  0.00    -0.349 OA
BRANCH   3   4
HETATM    4  C6  UNL     1      -0.657   6.917  10.777  1.00  0.00     0.068 A 
HETATM    5  C5  UNL     1      -1.278   7.796  11.628  1.00  0.00     0.037 A 
HETATM    6  C4  UNL     1      -1.342   9.134  11.233  1.00  0.00     0.012 A 
HETATM    7  C3  UNL     1      -0.808   9.563  10.043  1.00  0.00    -0.021 A 
HETATM    8  C18 UNL     1      -0.191   8.656   9.209  1.00  0.00     0.012 A 
HETATM    9  C17 UNL     1      -0.108   7.306   9.573  1.00  0.00     0.037 A 
BRANCH   7  10
HETATM   10  C1  UNL     1      -0.921  11.004   9.702  1.00  0.00     0.277 C 
BRANCH  10  11
HETATM   11  N1  UNL     1       0.127  11.720  10.403  1.00  0.00    -0.065 N 
ATOM     12  H13 UNL     1       0.144  11.486  11.396  1.00  0.00     0.275 HD
ATOM     13  H12 UNL     1       1.053  11.377  10.148  1.00  0.00     0.275 HD
ATOM     14  H11 UNL     1       0.043  12.725  10.255  1.00  0.00     0.275 HD
ENDBRANCH  10  11
BRANCH  10  15
HETATM   15  C2  UNL     1      -0.834  11.233   8.244  1.00  0.00     0.268 C 
HETATM   16  O1  UNL     1       0.120  11.814   7.776  1.00  0.00    -0.304 OA
ENDBRANCH  10  15
ENDBRANCH   7  10
ENDBRANCH   3   4
ENDBRANCH   2   3
ENDBRANCH   1   2
BRANCH   1  17
HETATM   17  O3  UNL     1       2.387   3.645  10.897  1.00  0.00    -0.392 OA
ATOM     18  H3  UNL     1       3.242   3.786  11.285  1.00  0.00     0.210 HD
ENDBRANCH   1  17
BRANCH   1  19
HETATM   19  C9  UNL     1       1.162   4.022  12.847  1.00  0.00     0.172 C 
BRANCH  19  20
HETATM   20  N2  UNL     1       1.010   5.077  13.824  1.00  0.00    -0.223 N 
ATOM     21  H2  UNL     1       1.840   5.528  14.209  1.00  0.00     0.177 HD
BRANCH  20  22
HETATM   22  C10 UNL     1      -0.142   5.453  14.213  1.00  0.00     0.679 A 
HETATM   23  N3  UNL     1      -1.304   4.859  13.924  1.00  0.00    -0.190 N 
HETATM   24  C11 UNL     1      -2.315   5.551  14.518  1.00  0.00     0.076 A 
ATOM     25  H3  UNL     1      -1.415   4.023  13.350  1.00  0.00     0.184 HD
HETATM   26  C12 UNL     1      -3.681   5.359  14.532  1.00  0.00     0.032 A 
HETATM   27  C16 UNL     1      -1.746   6.612  15.198  1.00  0.00     0.076 A 
HETATM   28  C13 UNL     1      -4.454   6.256  15.244  1.00  0.00     0.002 A 
HETATM   29  C14 UNL     1      -3.916   7.319  15.931  1.00  0.00     0.002 A 
HETATM   30  C15 UNL     1      -2.544   7.493  15.902  1.00  0.00     0.032 A 
HETATM   31  N4  UNL     1      -0.419   6.511  14.983  1.00  0.00    -0.190 N 
ATOM     32  H4  UNL     1       0.279   7.154  15.356  1.00  0.00     0.184 HD
ENDBRANCH  20  22
ENDBRANCH  19  20
ENDBRANCH   1  19
TORSDOF 10
ENDMDL
MODEL 5
REMARK VINA RESULT: -7.967591894      1.019      1.447
REMARK  10 active torsions:
REMARK  status: ('A' for Active; 'I' for Inactive)
REMARK    1  A    between atoms: N1_1  and  C1_5 
REMARK    2  A    between atoms: C1_5  and  C2_6 
REMARK    3  A    between atoms: C1_5  and  C3_8 
REMARK    4  A    between atoms: C6_11  and  O2_12 
REMARK    5  A    between atoms: O2_12  and  C7_13 
REMARK    6  A    between atoms: C7_13  and  C8_14 
REMARK    7  A    between atoms: C8_14  and  O3_15 
REMARK    8  A    between atoms: C8_14  and  C9_17 
REMARK    9  A    between atoms: C9_17  and  N2_18 
REMARK   10  A    between atoms: N2_18  and  C10_20 
ROOT
HETATM    1  C8  UNL     1       1.581   4.465  11.722  1.00  0.00     0.160 C 
ENDROOT
BRANCH   1   2
HETATM    2  C7  UNL     1       0.357   4.628  10.844  1.00  0.00     0.209 C 
BRANCH   2   3
HETATM    3  O2  UNL     1      -0.442   5.638  11.385  1.00  0.00    -0.349 OA
BRANCH   3   4
HETATM    4  C6  UNL     1      -0.623   6.876  10.785  1.00  0.00     0.068 A 
HETATM    5  C5  UNL     1      -0.026   7.105   9.570  1.00  0.00     0.037 A 
HETATM    6  C4  UNL     1      -0.222   8.357   8.986  1.00  0.00     0.012 A 
HETATM    7  C3  UNL     1      -0.980   9.329   9.594  1.00  0.00    -0.021 A 
HETATM    8  C18 UNL     1      -1.565   9.070  10.814  1.00  0.00     0.012 A 
HETATM    9  C17 UNL     1      -1.391   7.824  11.429  1.00  0.00     0.037 A 
BRANCH   7  10
HETATM   10  C1  UNL     1      -1.135  10.633   8.900  1.00  0.00     0.277 C 
BRANCH  10  11
HETATM   11  N1  UNL     1      -2.390  11.224   9.320  1.00  0.00    -0.065 N 
ATOM     12  H13 UNL     1      -2.256  11.899  10.071  1.00  0.00     0.275 HD
ATOM     13  H12 UNL     1      -2.766  11.854   8.611  1.00  0.00     0.275 HD
ATOM     14  H11 UNL     1      -3.064  10.503   9.577  1.00  0.00     0.275 HD
ENDBRANCH  10  11
BRANCH  10  15
HETATM   15  C2  UNL     1      -0.003  11.542   9.180  1.00  0.00     0.268 C 
HETATM   16  O1  UNL     1       0.937  11.595   8.418  1.00  0.00    -0.304 OA
ENDBRANCH  10  15
ENDBRANCH   7  10
ENDBRANCH   3   4
ENDBRANCH   2   3
ENDBRANCH   1   2
BRANCH   1  17
HETATM   17  O3  UNL     1       2.365   3.472  11.134  1.00  0.00    -0.392 OA
ATOM     18  H3  UNL     1       3.079   3.917  10.693  1.00  0.00     0.210 HD
ENDBRANCH   1  17
BRANCH   1  19
HETATM   19  C9  UNL     1       1.222   3.983  13.103  1.00  0.00     0.172 C 
BRANCH  19  20
HETATM   20  N2  UNL     1       1.055   5.083  14.027  1.00  0.00    -0.223 N 
ATOM     21  H2  UNL     1       1.879   5.549  14.407  1.00  0.00     0.177 HD
BRANCH  20  22
HETATM   22  C10 UNL     1      -0.103   5.481  14.376  1.00  0.00     0.679 A 
HETATM   23  N3  UNL     1      -1.266   4.923  14.026  1.00  0.00    -0.190 N 
HETATM   24  C11 UNL     1      -2.284   5.627  14.592  1.00  0.00     0.076 A 
ATOM     25  H3  UNL     1      -1.374   4.101  13.431  1.00  0.00     0.184 HD
HETATM   26  C12 UNL     1      -3.653   5.470  14.546  1.00  0.00     0.032 A 
HETATM   27  C16 UNL     1      -1.718   6.659  15.318  1.00  0.00     0.076 A 
HETATM   28  C13 UNL     1      -4.433   6.372  15.245  1.00  0.00     0.002 A 
HETATM   29  C14 UNL     1      -3.899   7.407  15.975  1.00  0.00     0.002 A 
HETATM   30  C15 UNL     1      -2.522   7.546  16.007  1.00  0.00     0.032 A 
HETATM   31  N4  UNL     1      -0.386   6.529  15.156  1.00  0.00    -0.190 N 
ATOM     32  H4  UNL     1       0.312   7.146  15.571  1.00  0.00     0.184 HD
ENDBRANCH  20  22
ENDBRANCH  19  20
ENDBRANCH   1  19
TORSDOF 10
ENDMDL
