MODEL 1
REMARK VINA RESULT: -4.693990945      0.000      0.000
REMARK  4 active torsions:
REMARK  status: ('A' for Active; 'I' for Inactive)
REMARK    1  A    between atoms: C2_2  and  C3_3 
REMARK    2  A    between atoms: C3_3  and  C4_4 
REMARK    3  A    between atoms: C13_13  and  O1_14 
REMARK    4  A    between atoms: C16_18  and  C17_19 
ROOT
HETATM    1  C4  UNL     1     120.348 108.531 -43.557  1.00  0.00    -0.002 C 
HETATM    2  C5  UNL     1     121.146 108.819 -42.299  1.00  0.00    -0.005 C 
HETATM    3  C6  UNL     1     120.752 110.283 -42.537  1.00  0.00     0.011 C 
HETATM    4  C7  UNL     1     120.847 109.906 -44.023  1.00  0.00    -0.005 C 
HETATM    5  C8  UNL     1     122.284 109.842 -44.415  1.00  0.00    -0.000 C 
HETATM    6  C9  UNL     1     122.950 108.513 -44.022  1.00  0.00    -0.000 C 
HETATM    7  C10 UNL     1     124.414 108.875 -44.295  1.00  0.00    -0.002 C 
HETATM    8  C11 UNL     1     125.170 108.354 -43.062  1.00  0.00     0.013 C 
HETATM    9  C12 UNL     1     124.865 109.527 -42.135  1.00  0.00     0.020 C 
HETATM   10  C13 UNL     1     125.469 110.628 -43.027  1.00  0.00     0.127 C 
HETATM   11  C14 UNL     1     124.509 110.384 -44.187  1.00  0.00     0.024 C 
HETATM   12  C15 UNL     1     123.192 110.674 -43.489  1.00  0.00     0.002 C 
HETATM   13  C16 UNL     1     123.393 109.882 -42.236  1.00  0.00     0.002 C 
HETATM   14  C17 UNL     1     122.616 108.594 -42.551  1.00  0.00    -0.000 C 
ENDROOT
BRANCH   1  15
HETATM   15  C3  UNL     1     118.863 108.424 -43.386  1.00  0.00     0.031 C 
BRANCH  15  16
HETATM   16  C2  UNL     1     118.387 107.445 -44.417  1.00  0.00    -0.037 C 
HETATM   17  C1  UNL     1     119.226 106.705 -45.135  1.00  0.00     0.007 C 
ENDBRANCH  15  16
ENDBRANCH   1  15
BRANCH  10  18
HETATM   18  O1  UNL     1     126.728 110.298 -43.463  1.00  0.00    -0.395 OA
ATOM     19  H1  UNL     1     126.890 110.611 -44.346  1.00  0.00     0.210 HD
ENDBRANCH  10  18
TORSDOF 4
ENDMDL
MODEL 2
REMARK VINA RESULT: -4.659530822      1.075      1.154
REMARK  4 active torsions:
REMARK  status: ('A' for Active; 'I' for Inactive)
REMARK    1  A    between atoms: C2_2  and  C3_3 
REMARK    2  A    between atoms: C3_3  and  C4_4 
REMARK    3  A    between atoms: C13_13  and  O1_14 
REMARK    4  A    between atoms: C16_18  and  C17_19 
ROOT
HETATM    1  C4  UNL     1     120.068 108.686 -43.530  1.00  0.00    -0.002 C 
HETATM    2  C5  UNL     1     121.055 109.134 -42.468  1.00  0.00    -0.005 C 
HETATM    3  C6  UNL     1     120.991 110.498 -43.167  1.00  0.00     0.011 C 
HETATM    4  C7  UNL     1     120.817 109.664 -44.444  1.00  0.00    -0.005 C 
HETATM    5  C8  UNL     1     122.141 109.108 -44.843  1.00  0.00    -0.000 C 
HETATM    6  C9  UNL     1     122.518 107.844 -44.054  1.00  0.00    -0.000 C 
HETATM    7  C10 UNL     1     123.983 107.706 -44.482  1.00  0.00    -0.002 C 
HETATM    8  C11 UNL     1     124.737 107.419 -43.174  1.00  0.00     0.013 C 
HETATM    9  C12 UNL     1     124.828 108.861 -42.680  1.00  0.00     0.020 C 
HETATM   10  C13 UNL     1     125.563 109.429 -43.909  1.00  0.00     0.127 C 
HETATM   11  C14 UNL     1     124.443 109.093 -44.887  1.00  0.00     0.024 C 
HETATM   12  C15 UNL     1     123.323 109.921 -44.280  1.00  0.00     0.002 C 
HETATM   13  C16 UNL     1     123.480 109.538 -42.842  1.00  0.00     0.002 C 
HETATM   14  C17 UNL     1     122.390 108.465 -42.683  1.00  0.00    -0.000 C 
ENDROOT
BRANCH   1  15
HETATM   15  C3  UNL     1     118.630 109.029 -43.282  1.00  0.00     0.031 C 
BRANCH  15  16
HETATM   16  C2  UNL     1     117.863 107.746 -43.389  1.00  0.00    -0.037 C 
HETATM   17  C1  UNL     1     116.898 107.568 -44.287  1.00  0.00     0.007 C 
ENDBRANCH  15  16
ENDBRANCH   1  15
BRANCH  10  18
HETATM   18  O1  UNL     1     126.649 108.661 -44.254  1.00  0.00    -0.395 OA
ATOM     19  H1  UNL     1     126.855 108.737 -45.179  1.00  0.00     0.210 HD
ENDBRANCH  10  18
TORSDOF 4
ENDMDL
MODEL 3
REMARK VINA RESULT: -4.634901537      2.507      4.368
REMARK  4 active torsions:
REMARK  status: ('A' for Active; 'I' for Inactive)
REMARK    1  A    between atoms: C2_2  and  C3_3 
REMARK    2  A    between atoms: C3_3  and  C4_4 
REMARK    3  A    between atoms: C13_13  and  O1_14 
REMARK    4  A    between atoms: C16_18  and  C17_19 
ROOT
HETATM    1  C4  UNL     1     124.013 106.681 -44.628  1.00  0.00    -0.002 C 
HETATM    2  C5  UNL     1     124.160 108.121 -45.084  1.00  0.00    -0.005 C 
HETATM    3  C6  UNL     1     125.274 108.206 -44.032  1.00  0.00     0.011 C 
HETATM    4  C7  UNL     1     124.395 107.225 -43.244  1.00  0.00    -0.005 C 
HETATM    5  C8  UNL     1     123.258 107.975 -42.638  1.00  0.00    -0.000 C 
HETATM    6  C9  UNL     1     122.112 108.224 -43.631  1.00  0.00    -0.000 C 
HETATM    7  C10 UNL     1     121.278 109.215 -42.811  1.00  0.00    -0.002 C 
HETATM    8  C11 UNL     1     120.920 110.328 -43.809  1.00  0.00     0.013 C 
HETATM    9  C12 UNL     1     122.238 111.093 -43.730  1.00  0.00     0.020 C 
HETATM   10  C13 UNL     1     122.210 111.352 -42.213  1.00  0.00     0.127 C 
HETATM   11  C14 UNL     1     122.235 109.875 -41.836  1.00  0.00     0.024 C 
HETATM   12  C15 UNL     1     123.558 109.477 -42.468  1.00  0.00     0.002 C 
HETATM   13  C16 UNL     1     123.397 110.116 -43.810  1.00  0.00     0.002 C 
HETATM   14  C17 UNL     1     122.951 108.924 -44.673  1.00  0.00    -0.000 C 
ENDROOT
BRANCH   1  15
HETATM   15  C3  UNL     1     124.985 105.701 -45.211  1.00  0.00     0.031 C 
BRANCH  15  16
HETATM   16  C2  UNL     1     124.348 104.350 -45.089  1.00  0.00    -0.037 C 
HETATM   17  C1  UNL     1     124.691 103.485 -44.139  1.00  0.00     0.007 C 
ENDBRANCH  15  16
ENDBRANCH   1  15
BRANCH  10  18
HETATM   18  O1  UNL     1     121.000 111.857 -41.803  1.00  0.00    -0.395 OA
ATOM     19  H1  UNL     1     120.851 111.708 -40.877  1.00  0.00     0.210 HD
ENDBRANCH  10  18
TORSDOF 4
ENDMDL
MODEL 4
REMARK VINA RESULT: -4.600677886      2.570      4.752
REMARK  4 active torsions:
REMARK  status: ('A' for Active; 'I' for Inactive)
REMARK    1  A    between atoms: C2_2  and  C3_3 
REMARK    2  A    between atoms: C3_3  and  C4_4 
REMARK    3  A    between atoms: C13_13  and  O1_14 
REMARK    4  A    between atoms: C16_18  and  C17_19 
ROOT
HETATM    1  C4  UNL     1     124.249 107.415 -42.283  1.00  0.00    -0.002 C 
HETATM    2  C5  UNL     1     124.472 107.173 -43.764  1.00  0.00    -0.005 C 
HETATM    3  C6  UNL     1     125.331 108.444 -43.711  1.00  0.00     0.011 C 
HETATM    4  C7  UNL     1     124.314 108.902 -42.656  1.00  0.00    -0.005 C 
HETATM    5  C8  UNL     1     123.063 109.330 -43.344  1.00  0.00    -0.000 C 
HETATM    6  C9  UNL     1     122.156 108.148 -43.722  1.00  0.00    -0.000 C 
HETATM    7  C10 UNL     1     121.152 108.878 -44.621  1.00  0.00    -0.002 C 
HETATM    8  C11 UNL     1     121.004 107.962 -45.848  1.00  0.00     0.013 C 
HETATM    9  C12 UNL     1     122.264 108.414 -46.582  1.00  0.00     0.020 C 
HETATM   10  C13 UNL     1     121.903 109.909 -46.662  1.00  0.00     0.127 C 
HETATM   11  C14 UNL     1     121.865 110.107 -45.150  1.00  0.00     0.024 C 
HETATM   12  C15 UNL     1     123.299 109.735 -44.812  1.00  0.00     0.002 C 
HETATM   13  C16 UNL     1     123.424 108.474 -45.606  1.00  0.00     0.002 C 
HETATM   14  C17 UNL     1     123.192 107.402 -44.529  1.00  0.00    -0.000 C 
ENDROOT
BRANCH   1  15
HETATM   15  C3  UNL     1     125.337 106.946 -41.365  1.00  0.00     0.031 C 
BRANCH  15  16
HETATM   16  C2  UNL     1     124.870 105.648 -40.781  1.00  0.00    -0.037 C 
HETATM   17  C1  UNL     1     124.978 104.495 -41.434  1.00  0.00     0.007 C 
ENDBRANCH  15  16
ENDBRANCH   1  15
BRANCH  10  18
HETATM   18  O1  UNL     1     120.626 110.102 -47.131  1.00  0.00    -0.395 OA
ATOM     19  H1  UNL     1     119.981 109.666 -46.586  1.00  0.00     0.210 HD
ENDBRANCH  10  18
TORSDOF 4
ENDMDL
MODEL 5
REMARK VINA RESULT: -4.559613521      1.094      1.823
REMARK  4 active torsions:
REMARK  status: ('A' for Active; 'I' for Inactive)
REMARK    1  A    between atoms: C2_2  and  C3_3 
REMARK    2  A    between atoms: C3_3  and  C4_4 
REMARK    3  A    between atoms: C13_13  and  O1_14 
REMARK    4  A    between atoms: C16_18  and  C17_19 
ROOT
HETATM    1  C4  UNL     1     120.384 108.786 -43.282  1.00  0.00    -0.002 C 
HETATM    2  C5  UNL     1     121.236 110.018 -43.525  1.00  0.00    -0.005 C 
HETATM    3  C6  UNL     1     120.970 109.750 -45.012  1.00  0.00     0.011 C 
HETATM    4  C7  UNL     1     120.994 108.274 -44.594  1.00  0.00    -0.005 C 
HETATM    5  C8  UNL     1     122.409 107.851 -44.390  1.00  0.00    -0.000 C 
HETATM    6  C9  UNL     1     122.961 108.262 -43.016  1.00  0.00    -0.000 C 
HETATM    7  C10 UNL     1     124.445 107.947 -43.236  1.00  0.00    -0.002 C 
HETATM    8  C11 UNL     1     125.181 109.176 -42.678  1.00  0.00     0.013 C 
HETATM    9  C12 UNL     1     125.006 110.079 -43.895  1.00  0.00     0.020 C 
HETATM   10  C13 UNL     1     125.685 109.146 -44.915  1.00  0.00     0.127 C 
HETATM   11  C14 UNL     1     124.679 108.014 -44.733  1.00  0.00     0.024 C 
HETATM   12  C15 UNL     1     123.411 108.735 -45.158  1.00  0.00     0.002 C 
HETATM   13  C16 UNL     1     123.571 110.003 -44.381  1.00  0.00     0.002 C 
HETATM   14  C17 UNL     1     122.673 109.737 -43.161  1.00  0.00    -0.000 C 
ENDROOT
BRANCH   1  15
HETATM   15  C3  UNL     1     118.900 108.992 -43.314  1.00  0.00     0.031 C 
BRANCH  15  16
HETATM   16  C2  UNL     1     118.294 107.662 -43.644  1.00  0.00    -0.037 C 
HETATM   17  C1  UNL     1     117.031 107.534 -44.038  1.00  0.00     0.007 C 
ENDBRANCH  15  16
ENDBRANCH   1  15
BRANCH  10  18
HETATM   18  O1  UNL     1     126.898 108.690 -44.462  1.00  0.00    -0.395 OA
ATOM     19  H1  UNL     1     126.842 107.799 -44.137  1.00  0.00     0.210 HD
ENDBRANCH  10  18
TORSDOF 4
ENDMDL
