MODEL 1
REMARK VINA RESULT: -8.556040633      0.000      0.000
REMARK  8 active torsions:
REMARK  status: ('A' for Active; 'I' for Inactive)
REMARK       I    between atoms: N1_4  and  C4_6 
REMARK    1  A    between atoms: C4_6  and  C5_8 
REMARK    2  A    between atoms: C8_12  and  O3_13 
REMARK    3  A    between atoms: C10_16  and  N2_17 
REMARK    4  A    between atoms: N2_17  and  C11_19 
REMARK    5  A    between atoms: C12_21  and  C13_22 
REMARK    6  A    between atoms: C13_22  and  C14_23 
REMARK    7  A    between atoms: C14_23  and  N3_24 
REMARK       I    between atoms: N3_24  and  C15_26 
REMARK    8  A    between atoms: C15_26  and  C16_28 
ROOT
HETATM    1  C5  UNL     1      15.353   4.797  24.636  1.00  0.00     0.101 C 
HETATM    2  C6  UNL     1      15.122   4.554  23.215  1.00  0.00     0.190 C 
HETATM    3  O2  UNL     1      14.607   3.281  23.108  1.00  0.00    -0.387 OA
HETATM    4  C7  UNL     1      13.999   2.918  24.294  1.00  0.00     0.207 C 
HETATM    5  C8  UNL     1      14.658   3.699  25.380  1.00  0.00     0.100 C 
HETATM    6  C9  UNL     1      13.750   4.353  26.360  1.00  0.00     0.067 C 
HETATM    7  C10 UNL     1      13.507   5.779  25.720  1.00  0.00     0.092 C 
HETATM    8  C12 UNL     1      14.848   6.120  25.204  1.00  0.00     0.034 C 
ENDROOT
BRANCH   8   9
HETATM    9  C13 UNL     1      15.062   7.257  24.327  1.00  0.00     0.041 C 
BRANCH   9  10
HETATM   10  C14 UNL     1      16.023   8.340  24.670  1.00  0.00     0.056 C 
HETATM   11  C22 UNL     1      15.738   9.678  24.073  1.00  0.00     0.059 C 
HETATM   12  C23 UNL     1      15.864   9.347  22.579  1.00  0.00     0.170 C 
HETATM   13  O6  UNL     1      16.714   8.268  22.484  1.00  0.00    -0.389 OA
HETATM   14  C24 UNL     1      17.265   8.027  23.741  1.00  0.00     0.198 C 
BRANCH  10  15
HETATM   15  N3  UNL     1      16.490   8.293  25.998  1.00  0.00    -0.349 N 
HETATM   16  C15 UNL     1      15.890   8.752  27.166  1.00  0.00     0.222 C 
HETATM   17  O5  UNL     1      14.771   9.310  27.169  1.00  0.00    -0.273 OA
ATOM     18  H3  UNL     1      17.404   7.857  26.121  1.00  0.00     0.163 HD
BRANCH  16  19
HETATM   19  C16 UNL     1      16.575   8.597  28.516  1.00  0.00     0.078 C 
HETATM   20  C17 UNL     1      15.486   8.345  29.508  1.00  0.00     0.020 C 
HETATM   21  C18 UNL     1      15.924   8.424  30.936  1.00  0.00     0.080 C 
HETATM   22  C19 UNL     1      17.371   8.820  31.104  1.00  0.00     0.243 C 
HETATM   23  F1  UNL     1      18.228   7.761  30.907  1.00  0.00    -0.206 F 
HETATM   24  F2  UNL     1      17.548   9.219  32.435  1.00  0.00    -0.206 F 
HETATM   25  C20 UNL     1      17.762   9.972  30.239  1.00  0.00     0.080 C 
HETATM   26  C21 UNL     1      17.352   9.828  28.810  1.00  0.00     0.020 C 
ENDBRANCH  16  19
ENDBRANCH  10  15
ENDBRANCH   9  10
ENDBRANCH   8   9
BRANCH   1  27
HETATM   27  C4  UNL     1      16.848   4.695  24.864  1.00  0.00     0.236 C 
HETATM   28  N1  UNL     1      17.396   5.195  26.060  1.00  0.00    -0.334 N 
HETATM   29  C2  UNL     1      18.627   5.437  26.283  1.00  0.00    -0.018 C 
ATOM     30  H1  UNL     1      16.745   5.381  26.823  1.00  0.00     0.168 HD
HETATM   31  C1  UNL     1      19.096   5.965  27.586  1.00  0.00     0.062 C 
HETATM   32  C3  UNL     1      19.648   5.197  25.236  1.00  0.00     0.062 C 
HETATM   33  O1  UNL     1      17.518   4.159  23.954  1.00  0.00    -0.272 OA
ENDBRANCH   1  27
BRANCH   7  34
HETATM   34  N2  UNL     1      12.410   5.651  24.822  1.00  0.00    -0.363 N 
ATOM     35  H2  UNL     1      12.540   5.720  23.813  1.00  0.00     0.162 HD
BRANCH  34  36
HETATM   36  C11 UNL     1      11.113   5.419  25.395  1.00  0.00     0.348 C 
HETATM   37  O4  UNL     1      10.653   6.099  26.343  1.00  0.00    -0.284 OA
ENDBRANCH  34  36
ENDBRANCH   7  34
BRANCH   5  38
HETATM   38  O3  UNL     1      15.581   2.844  26.012  1.00  0.00    -0.386 OA
ATOM     39  H3  UNL     1      15.154   2.069  26.359  1.00  0.00     0.210 HD
ENDBRANCH   5  38
TORSDOF 8
ENDMDL
MODEL 2
REMARK VINA RESULT: -8.327770434      1.971      3.862
REMARK  8 active torsions:
REMARK  status: ('A' for Active; 'I' for Inactive)
REMARK       I    between atoms: N1_4  and  C4_6 
REMARK    1  A    between atoms: C4_6  and  C5_8 
REMARK    2  A    between atoms: C8_12  and  O3_13 
REMARK    3  A    between atoms: C10_16  and  N2_17 
REMARK    4  A    between atoms: N2_17  and  C11_19 
REMARK    5  A    between atoms: C12_21  and  C13_22 
REMARK    6  A    between atoms: C13_22  and  C14_23 
REMARK    7  A    between atoms: C14_23  and  N3_24 
REMARK       I    between atoms: N3_24  and  C15_26 
REMARK    8  A    between atoms: C15_26  and  C16_28 
ROOT
HETATM    1  C5  UNL     1      17.811   5.363  23.967  1.00  0.00     0.101 C 
HETATM    2  C6  UNL     1      17.717   6.631  23.250  1.00  0.00     0.190 C 
HETATM    3  O2  UNL     1      18.681   6.604  22.267  1.00  0.00    -0.387 OA
HETATM    4  C7  UNL     1      18.990   5.297  21.945  1.00  0.00     0.207 C 
HETATM    5  C8  UNL     1      18.690   4.469  23.148  1.00  0.00     0.100 C 
HETATM    6  C9  UNL     1      17.923   3.217  22.907  1.00  0.00     0.067 C 
HETATM    7  C10 UNL     1      16.421   3.686  23.071  1.00  0.00     0.092 C 
HETATM    8  C12 UNL     1      16.508   4.610  24.219  1.00  0.00     0.034 C 
ENDROOT
BRANCH   8   9
HETATM    9  C13 UNL     1      15.398   5.466  24.597  1.00  0.00     0.041 C 
BRANCH   9  10
HETATM   10  C14 UNL     1      14.680   5.293  25.889  1.00  0.00     0.056 C 
HETATM   11  C22 UNL     1      13.989   3.985  26.081  1.00  0.00     0.059 C 
HETATM   12  C23 UNL     1      12.966   4.041  24.938  1.00  0.00     0.170 C 
HETATM   13  O6  UNL     1      12.728   5.373  24.687  1.00  0.00    -0.389 OA
HETATM   14  C24 UNL     1      13.353   6.130  25.677  1.00  0.00     0.198 C 
BRANCH  10  15
HETATM   15  N3  UNL     1      15.343   5.862  26.994  1.00  0.00    -0.349 N 
HETATM   16  C15 UNL     1      15.894   7.131  27.140  1.00  0.00     0.222 C 
HETATM   17  O5  UNL     1      15.864   7.983  26.226  1.00  0.00    -0.273 OA
ATOM     18  H3  UNL     1      15.431   5.253  27.808  1.00  0.00     0.163 HD
BRANCH  16  19
HETATM   19  C16 UNL     1      16.572   7.549  28.437  1.00  0.00     0.078 C 
HETATM   20  C17 UNL     1      15.471   7.856  29.400  1.00  0.00     0.020 C 
HETATM   21  C18 UNL     1      15.922   8.538  30.653  1.00  0.00     0.080 C 
HETATM   22  C19 UNL     1      17.398   8.855  30.672  1.00  0.00     0.243 C 
HETATM   23  F1  UNL     1      18.163   7.759  31.000  1.00  0.00    -0.206 F 
HETATM   24  F2  UNL     1      17.615   9.797  31.685  1.00  0.00    -0.206 F 
HETATM   25  C20 UNL     1      17.878   9.459  29.394  1.00  0.00     0.080 C 
HETATM   26  C21 UNL     1      17.450   8.717  28.170  1.00  0.00     0.020 C 
ENDBRANCH  16  19
ENDBRANCH  10  15
ENDBRANCH   9  10
ENDBRANCH   8   9
BRANCH   1  27
HETATM   27  C4  UNL     1      18.484   5.654  25.294  1.00  0.00     0.236 C 
HETATM   28  N1  UNL     1      19.221   6.843  25.444  1.00  0.00    -0.334 N 
HETATM   29  C2  UNL     1      20.058   7.102  26.370  1.00  0.00    -0.018 C 
ATOM     30  H1  UNL     1      19.072   7.570  24.743  1.00  0.00     0.168 HD
HETATM   31  C1  UNL     1      20.782   8.393  26.430  1.00  0.00     0.062 C 
HETATM   32  C3  UNL     1      20.341   6.109  27.433  1.00  0.00     0.062 C 
HETATM   33  O1  UNL     1      18.339   4.799  26.194  1.00  0.00    -0.272 OA
ENDBRANCH   1  27
BRANCH   7  34
HETATM   34  N2  UNL     1      15.994   4.166  21.801  1.00  0.00    -0.363 N 
ATOM     35  H2  UNL     1      15.971   5.164  21.593  1.00  0.00     0.162 HD
BRANCH  34  36
HETATM   36  C11 UNL     1      15.597   3.190  20.826  1.00  0.00     0.348 C 
HETATM   37  O4  UNL     1      14.754   2.292  21.062  1.00  0.00    -0.284 OA
ENDBRANCH  34  36
ENDBRANCH   7  34
BRANCH   5  38
HETATM   38  O3  UNL     1      19.913   4.215  23.798  1.00  0.00    -0.386 OA
ATOM     39  H3  UNL     1      20.514   3.743  23.234  1.00  0.00     0.210 HD
ENDBRANCH   5  38
TORSDOF 8
ENDMDL
MODEL 3
REMARK VINA RESULT: -8.271270887      1.199      1.439
REMARK  8 active torsions:
REMARK  status: ('A' for Active; 'I' for Inactive)
REMARK       I    between atoms: N1_4  and  C4_6 
REMARK    1  A    between atoms: C4_6  and  C5_8 
REMARK    2  A    between atoms: C8_12  and  O3_13 
REMARK    3  A    between atoms: C10_16  and  N2_17 
REMARK    4  A    between atoms: N2_17  and  C11_19 
REMARK    5  A    between atoms: C12_21  and  C13_22 
REMARK    6  A    between atoms: C13_22  and  C14_23 
REMARK    7  A    between atoms: C14_23  and  N3_24 
REMARK       I    between atoms: N3_24  and  C15_26 
REMARK    8  A    between atoms: C15_26  and  C16_28 
ROOT
HETATM    1  C5  UNL     1      15.432   4.903  24.948  1.00  0.00     0.101 C 
HETATM    2  C6  UNL     1      15.213   4.919  23.505  1.00  0.00     0.190 C 
HETATM    3  O2  UNL     1      14.666   3.699  23.173  1.00  0.00    -0.387 OA
HETATM    4  C7  UNL     1      14.034   3.151  24.272  1.00  0.00     0.207 C 
HETATM    5  C8  UNL     1      14.700   3.712  25.483  1.00  0.00     0.100 C 
HETATM    6  C9  UNL     1      13.796   4.210  26.555  1.00  0.00     0.067 C 
HETATM    7  C10 UNL     1      13.598   5.732  26.172  1.00  0.00     0.092 C 
HETATM    8  C12 UNL     1      14.954   6.121  25.735  1.00  0.00     0.034 C 
ENDROOT
BRANCH   8   9
HETATM    9  C13 UNL     1      15.209   7.386  25.072  1.00  0.00     0.041 C 
BRANCH   9  10
HETATM   10  C14 UNL     1      14.789   8.683  25.670  1.00  0.00     0.056 C 
HETATM   11  C22 UNL     1      13.512   9.256  25.153  1.00  0.00     0.059 C 
HETATM   12  C23 UNL     1      13.884   9.477  23.680  1.00  0.00     0.170 C 
HETATM   13  O6  UNL     1      15.250   9.643  23.638  1.00  0.00    -0.389 OA
HETATM   14  C24 UNL     1      15.725   9.733  24.945  1.00  0.00     0.198 C 
BRANCH  10  15
HETATM   15  N3  UNL     1      15.054   8.790  27.049  1.00  0.00    -0.349 N 
HETATM   16  C15 UNL     1      16.269   8.740  27.725  1.00  0.00     0.222 C 
HETATM   17  O5  UNL     1      17.358   8.575  27.133  1.00  0.00    -0.273 OA
ATOM     18  H3  UNL     1      14.233   8.926  27.639  1.00  0.00     0.163 HD
BRANCH  16  19
HETATM   19  C16 UNL     1      16.334   8.883  29.239  1.00  0.00     0.078 C 
HETATM   20  C17 UNL     1      16.743  10.295  29.506  1.00  0.00     0.020 C 
HETATM   21  C18 UNL     1      17.118  10.569  30.927  1.00  0.00     0.080 C 
HETATM   22  C19 UNL     1      17.085   9.344  31.809  1.00  0.00     0.243 C 
HETATM   23  F1  UNL     1      15.808   9.026  32.214  1.00  0.00    -0.206 F 
HETATM   24  F2  UNL     1      17.799   9.643  32.976  1.00  0.00    -0.206 F 
HETATM   25  C20 UNL     1      17.739   8.158  31.180  1.00  0.00     0.080 C 
HETATM   26  C21 UNL     1      17.297   7.889  29.779  1.00  0.00     0.020 C 
ENDBRANCH  16  19
ENDBRANCH  10  15
ENDBRANCH   9  10
ENDBRANCH   8   9
BRANCH   1  27
HETATM   27  C4  UNL     1      16.921   4.721  25.167  1.00  0.00     0.236 C 
HETATM   28  N1  UNL     1      17.520   5.279  26.312  1.00  0.00    -0.334 N 
HETATM   29  C2  UNL     1      18.768   5.457  26.500  1.00  0.00    -0.018 C 
ATOM     30  H1  UNL     1      16.895   5.570  27.064  1.00  0.00     0.168 HD
HETATM   31  C1  UNL     1      19.292   6.058  27.750  1.00  0.00     0.062 C 
HETATM   32  C3  UNL     1      19.754   5.065  25.465  1.00  0.00     0.062 C 
HETATM   33  O1  UNL     1      17.539   4.070  24.297  1.00  0.00    -0.272 OA
ENDBRANCH   1  27
BRANCH   7  34
HETATM   34  N2  UNL     1      12.510   5.793  25.257  1.00  0.00    -0.363 N 
ATOM     35  H2  UNL     1      12.653   5.666  24.255  1.00  0.00     0.162 HD
BRANCH  34  36
HETATM   36  C11 UNL     1      11.204   6.040  25.801  1.00  0.00     0.348 C 
HETATM   37  O4  UNL     1      11.000   6.252  27.020  1.00  0.00    -0.284 OA
ENDBRANCH  34  36
ENDBRANCH   7  34
BRANCH   5  38
HETATM   38  O3  UNL     1      15.591   2.734  25.964  1.00  0.00    -0.386 OA
ATOM     39  H3  UNL     1      15.517   2.629  26.905  1.00  0.00     0.210 HD
ENDBRANCH   5  38
TORSDOF 8
ENDMDL
MODEL 4
REMARK VINA RESULT: -7.990778314      1.892      4.067
REMARK  8 active torsions:
REMARK  status: ('A' for Active; 'I' for Inactive)
REMARK       I    between atoms: N1_4  and  C4_6 
REMARK    1  A    between atoms: C4_6  and  C5_8 
REMARK    2  A    between atoms: C8_12  and  O3_13 
REMARK    3  A    between atoms: C10_16  and  N2_17 
REMARK    4  A    between atoms: N2_17  and  C11_19 
REMARK    5  A    between atoms: C12_21  and  C13_22 
REMARK    6  A    between atoms: C13_22  and  C14_23 
REMARK    7  A    between atoms: C14_23  and  N3_24 
REMARK       I    between atoms: N3_24  and  C15_26 
REMARK    8  A    between atoms: C15_26  and  C16_28 
ROOT
HETATM    1  C5  UNL     1      16.164   5.274  24.307  1.00  0.00     0.101 C 
HETATM    2  C6  UNL     1      15.528   6.201  23.377  1.00  0.00     0.190 C 
HETATM    3  O2  UNL     1      16.245   6.139  22.202  1.00  0.00    -0.387 OA
HETATM    4  C7  UNL     1      16.896   4.925  22.111  1.00  0.00     0.207 C 
HETATM    5  C8  UNL     1      17.116   4.442  23.505  1.00  0.00     0.100 C 
HETATM    6  C9  UNL     1      16.768   3.019  23.767  1.00  0.00     0.067 C 
HETATM    7  C10 UNL     1      15.254   3.104  24.220  1.00  0.00     0.092 C 
HETATM    8  C12 UNL     1      15.250   4.315  25.064  1.00  0.00     0.034 C 
ENDROOT
BRANCH   8   9
HETATM    9  C13 UNL     1      14.013   4.921  25.524  1.00  0.00     0.041 C 
BRANCH   9  10
HETATM   10  C14 UNL     1      13.543   4.772  26.928  1.00  0.00     0.056 C 
HETATM   11  C22 UNL     1      13.206   3.385  27.359  1.00  0.00     0.059 C 
HETATM   12  C23 UNL     1      12.047   3.070  26.403  1.00  0.00     0.170 C 
HETATM   13  O6  UNL     1      11.476   4.277  26.066  1.00  0.00    -0.389 OA
HETATM   14  C24 UNL     1      12.043   5.273  26.859  1.00  0.00     0.198 C 
BRANCH  10  15
HETATM   15  N3  UNL     1      14.205   5.610  27.846  1.00  0.00    -0.349 N 
HETATM   16  C15 UNL     1      14.527   6.960  27.743  1.00  0.00     0.222 C 
HETATM   17  O5  UNL     1      14.241   7.641  26.734  1.00  0.00    -0.273 OA
ATOM     18  H3  UNL     1      14.492   5.160  28.716  1.00  0.00     0.163 HD
BRANCH  16  19
HETATM   19  C16 UNL     1      15.252   7.684  28.868  1.00  0.00     0.078 C 
HETATM   20  C17 UNL     1      15.623   9.027  28.327  1.00  0.00     0.020 C 
HETATM   21  C18 UNL     1      16.573   9.797  29.188  1.00  0.00     0.080 C 
HETATM   22  C19 UNL     1      17.037   9.036  30.406  1.00  0.00     0.243 C 
HETATM   23  F1  UNL     1      16.108   9.060  31.422  1.00  0.00    -0.206 F 
HETATM   24  F2  UNL     1      18.172   9.688  30.904  1.00  0.00    -0.206 F 
HETATM   25  C20 UNL     1      17.433   7.630  30.097  1.00  0.00     0.080 C 
HETATM   26  C21 UNL     1      16.431   6.881  29.280  1.00  0.00     0.020 C 
ENDBRANCH  16  19
ENDBRANCH  10  15
ENDBRANCH   9  10
ENDBRANCH   8   9
BRANCH   1  27
HETATM   27  C4  UNL     1      16.942   6.112  25.303  1.00  0.00     0.236 C 
HETATM   28  N1  UNL     1      17.050   7.500  25.097  1.00  0.00    -0.334 N 
HETATM   29  C2  UNL     1      17.878   8.285  25.665  1.00  0.00    -0.018 C 
ATOM     30  H1  UNL     1      16.403   7.918  24.429  1.00  0.00     0.168 HD
HETATM   31  C1  UNL     1      17.904   9.737  25.371  1.00  0.00     0.062 C 
HETATM   32  C3  UNL     1      18.856   7.769  26.652  1.00  0.00     0.062 C 
HETATM   33  O1  UNL     1      17.451   5.503  26.269  1.00  0.00    -0.272 OA
ENDBRANCH   1  27
BRANCH   7  34
HETATM   34  N2  UNL     1      14.463   3.056  23.038  1.00  0.00    -0.363 N 
ATOM     35  H2  UNL     1      13.726   3.741  22.865  1.00  0.00     0.162 HD
BRANCH  34  36
HETATM   36  C11 UNL     1      14.742   2.007  22.098  1.00  0.00     0.348 C 
HETATM   37  O4  UNL     1      14.980   2.220  20.886  1.00  0.00    -0.284 OA
ENDBRANCH  34  36
ENDBRANCH   7  34
BRANCH   5  38
HETATM   38  O3  UNL     1      18.453   4.723  23.841  1.00  0.00    -0.386 OA
ATOM     39  H3  UNL     1      18.994   4.817  23.066  1.00  0.00     0.210 HD
ENDBRANCH   5  38
TORSDOF 8
ENDMDL
MODEL 5
REMARK VINA RESULT: -7.914384174      1.546      1.945
REMARK  8 active torsions:
REMARK  status: ('A' for Active; 'I' for Inactive)
REMARK       I    between atoms: N1_4  and  C4_6 
REMARK    1  A    between atoms: C4_6  and  C5_8 
REMARK    2  A    between atoms: C8_12  and  O3_13 
REMARK    3  A    between atoms: C10_16  and  N2_17 
REMARK    4  A    between atoms: N2_17  and  C11_19 
REMARK    5  A    between atoms: C12_21  and  C13_22 
REMARK    6  A    between atoms: C13_22  and  C14_23 
REMARK    7  A    between atoms: C14_23  and  N3_24 
REMARK       I    between atoms: N3_24  and  C15_26 
REMARK    8  A    between atoms: C15_26  and  C16_28 
ROOT
HETATM    1  C5  UNL     1      14.498   6.261  25.469  1.00  0.00     0.101 C 
HETATM    2  C6  UNL     1      14.672   6.111  24.028  1.00  0.00     0.190 C 
HETATM    3  O2  UNL     1      14.374   4.800  23.727  1.00  0.00    -0.387 OA
HETATM    4  C7  UNL     1      13.539   4.272  24.691  1.00  0.00     0.207 C 
HETATM    5  C8  UNL     1      13.790   5.033  25.950  1.00  0.00     0.100 C 
HETATM    6  C9  UNL     1      12.583   5.495  26.687  1.00  0.00     0.067 C 
HETATM    7  C10 UNL     1      12.323   6.932  26.076  1.00  0.00     0.092 C 
HETATM    8  C12 UNL     1      13.694   7.466  25.949  1.00  0.00     0.034 C 
ENDROOT
BRANCH   8   9
HETATM    9  C13 UNL     1      13.972   8.688  25.216  1.00  0.00     0.041 C 
BRANCH   9  10
HETATM   10  C14 UNL     1      14.829   9.764  25.784  1.00  0.00     0.056 C 
HETATM   11  C22 UNL     1      14.362  11.162  25.548  1.00  0.00     0.059 C 
HETATM   12  C23 UNL     1      14.428  11.221  24.015  1.00  0.00     0.170 C 
HETATM   13  O6  UNL     1      15.383  10.310  23.625  1.00  0.00    -0.389 OA
HETATM   14  C24 UNL     1      16.036   9.838  24.763  1.00  0.00     0.198 C 
BRANCH  10  15
HETATM   15  N3  UNL     1      15.382   9.453  27.041  1.00  0.00    -0.349 N 
HETATM   16  C15 UNL     1      16.336  10.141  27.784  1.00  0.00     0.222 C 
HETATM   17  O5  UNL     1      16.858  11.204  27.384  1.00  0.00    -0.273 OA
ATOM     18  H3  UNL     1      15.031   8.597  27.470  1.00  0.00     0.163 HD
BRANCH  16  19
HETATM   19  C16 UNL     1      16.799   9.625  29.139  1.00  0.00     0.078 C 
HETATM   20  C17 UNL     1      15.660   8.831  29.693  1.00  0.00     0.020 C 
HETATM   21  C18 UNL     1      15.814   8.456  31.133  1.00  0.00     0.080 C 
HETATM   22  C19 UNL     1      17.059   9.018  31.775  1.00  0.00     0.243 C 
HETATM   23  F1  UNL     1      18.181   8.282  31.470  1.00  0.00    -0.206 F 
HETATM   24  F2  UNL     1      16.899   8.923  33.163  1.00  0.00    -0.206 F 
HETATM   25  C20 UNL     1      17.280  10.458  31.451  1.00  0.00     0.080 C 
HETATM   26  C21 UNL     1      17.170  10.780  29.997  1.00  0.00     0.020 C 
ENDBRANCH  16  19
ENDBRANCH  10  15
ENDBRANCH   9  10
ENDBRANCH   8   9
BRANCH   1  27
HETATM   27  C4  UNL     1      15.886   6.314  26.078  1.00  0.00     0.236 C 
HETATM   28  N1  UNL     1      16.997   5.972  25.285  1.00  0.00    -0.334 N 
HETATM   29  C2  UNL     1      18.169   5.698  25.705  1.00  0.00    -0.018 C 
ATOM     30  H1  UNL     1      16.851   5.940  24.276  1.00  0.00     0.168 HD
HETATM   31  C1  UNL     1      19.270   5.349  24.777  1.00  0.00     0.062 C 
HETATM   32  C3  UNL     1      18.478   5.720  27.155  1.00  0.00     0.062 C 
HETATM   33  O1  UNL     1      15.958   6.667  27.275  1.00  0.00    -0.272 OA
ENDBRANCH   1  27
BRANCH   7  34
HETATM   34  N2  UNL     1      11.519   6.751  24.916  1.00  0.00    -0.363 N 
ATOM     35  H2  UNL     1      11.811   7.110  24.007  1.00  0.00     0.162 HD
BRANCH  34  36
HETATM   36  C11 UNL     1      10.279   6.044  25.077  1.00  0.00     0.348 C 
HETATM   37  O4  UNL     1       9.212   6.606  25.420  1.00  0.00    -0.284 OA
ENDBRANCH  34  36
ENDBRANCH   7  34
BRANCH   5  38
HETATM   38  O3  UNL     1      14.625   4.241  26.760  1.00  0.00    -0.386 OA
ATOM     39  H3  UNL     1      14.341   3.335  26.770  1.00  0.00     0.210 HD
ENDBRANCH   5  38
TORSDOF 8
ENDMDL
