MODEL 1
REMARK VINA RESULT: -9.130206077      0.000      0.000
REMARK  7 active torsions:
REMARK  status: ('A' for Active; 'I' for Inactive)
REMARK    1  A    between atoms: C2_2  and  C4_4 
REMARK    2  A    between atoms: C6_6  and  N1_7 
REMARK    3  A    between atoms: C8_9  and  N2_10 
REMARK    4  A    between atoms: C10_12  and  C11_13 
REMARK    5  A    between atoms: C12_16  and  N4_17 
REMARK    6  A    between atoms: C14_19  and  N5_20 
REMARK    7  A    between atoms: C20_33  and  C21_34 
ROOT
HETATM    1  N2  UNL     1      -5.422  10.323  21.132  1.00  0.00    -0.294 N 
HETATM    2  C9  UNL     1      -6.530  11.030  20.884  1.00  0.00     0.131 A 
HETATM    3  C10 UNL     1      -7.323  10.379  19.915  1.00  0.00     0.091 A 
HETATM    4  C12 UNL     1      -6.610   9.253  19.619  1.00  0.00     0.135 A 
HETATM    5  N6  UNL     1      -5.471   9.263  20.376  1.00  0.00    -0.282 N 
ATOM      6  H6  UNL     1      -4.755   8.536  20.352  1.00  0.00     0.189 HD
ENDROOT
BRANCH   1   7
HETATM    7  C8  UNL     1      -4.410  10.743  22.086  1.00  0.00     0.125 C 
HETATM    8  C7  UNL     1      -3.118  10.017  21.837  1.00  0.00     0.152 C 
HETATM    9  N1  UNL     1      -2.072  10.768  22.471  1.00  0.00    -0.353 N 
HETATM   10  C20 UNL     1      -1.741  12.051  21.918  1.00  0.00     0.090 C 
HETATM   11  C19 UNL     1      -2.969  12.622  21.203  1.00  0.00     0.028 C 
HETATM   12  C18 UNL     1      -4.157  12.222  22.062  1.00  0.00     0.031 C 
BRANCH   9  13
HETATM   13  C6  UNL     1      -1.414  10.249  23.598  1.00  0.00     0.170 A 
HETATM   14  C5  UNL     1      -1.956   9.953  24.852  1.00  0.00     0.085 A 
HETATM   15  C4  UNL     1      -0.943   9.466  25.644  1.00  0.00     0.040 A 
HETATM   16  N7  UNL     1       0.146   9.473  24.893  1.00  0.00    -0.263 N 
HETATM   17  O2  UNL     1      -0.138   9.918  23.737  1.00  0.00    -0.220 OA
ATOM     18  H7  UNL     1       1.071   9.168  25.196  1.00  0.00     0.194 HD
BRANCH  15  19
HETATM   19  C2  UNL     1      -1.086   9.034  27.045  1.00  0.00     0.029 C 
HETATM   20  C1  UNL     1      -0.666   7.595  27.248  1.00  0.00     0.016 C 
HETATM   21  C3  UNL     1      -2.523   9.141  27.533  1.00  0.00     0.016 C 
ENDBRANCH  15  19
ENDBRANCH   9  13
BRANCH  10  22
HETATM   22  C21 UNL     1      -0.579  12.092  21.000  1.00  0.00     0.000 C 
HETATM   23  C22 UNL     1       0.590  12.888  21.486  1.00  0.00     0.011 C 
HETATM   24  C23 UNL     1      -0.886  12.506  19.584  1.00  0.00     0.011 C 
ENDBRANCH  10  22
ENDBRANCH   1   7
BRANCH   3  25
HETATM   25  C11 UNL     1      -8.585  10.875  19.403  1.00  0.00     0.270 C 
HETATM   26  N3  UNL     1      -8.583  11.797  18.329  1.00  0.00    -0.057 NA
HETATM   27  O1  UNL     1      -9.662  10.508  19.887  1.00  0.00    -0.271 OA
ENDBRANCH   3  25
BRANCH   4  28
HETATM   28  N4  UNL     1      -6.975   8.205  18.711  1.00  0.00    -0.358 N 
HETATM   29  C13 UNL     1      -7.261   8.577  17.359  1.00  0.00     0.157 C 
HETATM   30  C14 UNL     1      -7.233   7.475  16.375  1.00  0.00     0.207 C 
HETATM   31  C15 UNL     1      -7.409   6.106  16.965  1.00  0.00     0.115 C 
HETATM   32  C16 UNL     1      -6.663   5.877  18.228  1.00  0.00     0.261 C 
HETATM   33  F1  UNL     1      -7.111   4.634  18.721  1.00  0.00    -0.204 F 
HETATM   34  F2  UNL     1      -5.310   5.703  18.026  1.00  0.00    -0.204 F 
HETATM   35  C17 UNL     1      -7.029   6.883  19.252  1.00  0.00     0.203 C 
BRANCH  30  36
HETATM   36  N5  UNL     1      -6.079   7.518  15.515  1.00  0.00    -0.073 N 
ATOM     37  H53 UNL     1      -5.265   7.874  16.015  1.00  0.00     0.274 HD
ATOM     38  H52 UNL     1      -5.747   6.577  15.304  1.00  0.00     0.274 HD
ATOM     39  H51 UNL     1      -6.240   8.048  14.658  1.00  0.00     0.274 HD
ENDBRANCH  30  36
ENDBRANCH   4  28
TORSDOF 7
ENDMDL
MODEL 2
REMARK VINA RESULT: -8.741390900      2.058      2.234
REMARK  7 active torsions:
REMARK  status: ('A' for Active; 'I' for Inactive)
REMARK    1  A    between atoms: C2_2  and  C4_4 
REMARK    2  A    between atoms: C6_6  and  N1_7 
REMARK    3  A    between atoms: C8_9  and  N2_10 
REMARK    4  A    between atoms: C10_12  and  C11_13 
REMARK    5  A    between atoms: C12_16  and  N4_17 
REMARK    6  A    between atoms: C14_19  and  N5_20 
REMARK    7  A    between atoms: C20_33  and  C21_34 
ROOT
HETATM    1  N2  UNL     1      -4.581  10.092  19.250  1.00  0.00    -0.294 N 
HETATM    2  C9  UNL     1      -4.593  10.799  18.115  1.00  0.00     0.131 A 
HETATM    3  C10 UNL     1      -5.296  10.102  17.109  1.00  0.00     0.091 A 
HETATM    4  C12 UNL     1      -5.691   8.952  17.729  1.00  0.00     0.135 A 
HETATM    5  N6  UNL     1      -5.237   8.990  19.019  1.00  0.00    -0.282 N 
ATOM      6  H6  UNL     1      -5.392   8.253  19.708  1.00  0.00     0.189 HD
ENDROOT
BRANCH   1   7
HETATM    7  C8  UNL     1      -3.931  10.553  20.465  1.00  0.00     0.125 C 
HETATM    8  C7  UNL     1      -2.468  10.211  20.443  1.00  0.00     0.152 C 
HETATM    9  N1  UNL     1      -1.812  11.055  21.401  1.00  0.00    -0.353 N 
HETATM   10  C20 UNL     1      -1.738  12.460  21.113  1.00  0.00     0.090 C 
HETATM   11  C19 UNL     1      -2.907  12.849  20.203  1.00  0.00     0.028 C 
HETATM   12  C18 UNL     1      -4.088  12.028  20.693  1.00  0.00     0.031 C 
BRANCH   9  13
HETATM   13  C6  UNL     1      -1.276  10.505  22.576  1.00  0.00     0.170 A 
HETATM   14  C5  UNL     1      -1.828  10.512  23.860  1.00  0.00     0.085 A 
HETATM   15  C4  UNL     1      -0.954   9.858  24.697  1.00  0.00     0.040 A 
HETATM   16  N7  UNL     1       0.065   9.482  23.942  1.00  0.00    -0.263 N 
HETATM   17  O2  UNL     1      -0.133   9.855  22.744  1.00  0.00    -0.220 OA
ATOM     18  H7  UNL     1       0.884   8.971  24.273  1.00  0.00     0.194 HD
BRANCH  15  19
HETATM   19  C2  UNL     1      -1.154   9.641  26.140  1.00  0.00     0.029 C 
HETATM   20  C1  UNL     1      -0.823   8.227  26.560  1.00  0.00     0.016 C 
HETATM   21  C3  UNL     1      -2.593   9.896  26.564  1.00  0.00     0.016 C 
ENDBRANCH  15  19
ENDBRANCH   9  13
BRANCH  10  22
HETATM   22  C21 UNL     1      -0.472  12.942  20.513  1.00  0.00     0.000 C 
HETATM   23  C22 UNL     1       0.667  13.097  21.469  1.00  0.00     0.011 C 
HETATM   24  C23 UNL     1      -0.582  14.200  19.690  1.00  0.00     0.011 C 
ENDBRANCH  10  22
ENDBRANCH   1   7
BRANCH   3  25
HETATM   25  C11 UNL     1      -5.490  10.573  15.752  1.00  0.00     0.270 C 
HETATM   26  N3  UNL     1      -6.310  11.704  15.521  1.00  0.00    -0.057 NA
HETATM   27  O1  UNL     1      -4.953  10.006  14.793  1.00  0.00    -0.271 OA
ENDBRANCH   3  25
BRANCH   4  28
HETATM   28  N4  UNL     1      -6.477   7.889  17.175  1.00  0.00    -0.358 N 
HETATM   29  C13 UNL     1      -7.520   8.249  16.263  1.00  0.00     0.157 C 
HETATM   30  C14 UNL     1      -8.031   7.154  15.414  1.00  0.00     0.207 C 
HETATM   31  C15 UNL     1      -7.769   5.775  15.948  1.00  0.00     0.115 C 
HETATM   32  C16 UNL     1      -6.414   5.582  16.522  1.00  0.00     0.261 C 
HETATM   33  F1  UNL     1      -6.433   4.316  17.142  1.00  0.00    -0.204 F 
HETATM   34  F2  UNL     1      -5.434   5.482  15.557  1.00  0.00    -0.204 F 
HETATM   35  C17 UNL     1      -6.148   6.565  17.599  1.00  0.00     0.203 C 
BRANCH  30  36
HETATM   36  N5  UNL     1      -7.609   7.261  14.041  1.00  0.00    -0.073 N 
ATOM     37  H53 UNL     1      -7.411   8.231  13.796  1.00  0.00     0.274 HD
ATOM     38  H52 UNL     1      -6.678   6.863  13.915  1.00  0.00     0.274 HD
ATOM     39  H51 UNL     1      -8.272   6.848  13.386  1.00  0.00     0.274 HD
ENDBRANCH  30  36
ENDBRANCH   4  28
TORSDOF 7
ENDMDL
MODEL 3
REMARK VINA RESULT: -8.662285931      3.633      9.788
REMARK  7 active torsions:
REMARK  status: ('A' for Active; 'I' for Inactive)
REMARK    1  A    between atoms: C2_2  and  C4_4 
REMARK    2  A    between atoms: C6_6  and  N1_7 
REMARK    3  A    between atoms: C8_9  and  N2_10 
REMARK    4  A    between atoms: C10_12  and  C11_13 
REMARK    5  A    between atoms: C12_16  and  N4_17 
REMARK    6  A    between atoms: C14_19  and  N5_20 
REMARK    7  A    between atoms: C20_33  and  C21_34 
ROOT
HETATM    1  N2  UNL     1      -5.294   9.816  18.422  1.00  0.00    -0.294 N 
HETATM    2  C9  UNL     1      -4.724  10.953  18.009  1.00  0.00     0.131 A 
HETATM    3  C10 UNL     1      -3.696  11.339  18.895  1.00  0.00     0.091 A 
HETATM    4  C12 UNL     1      -3.703  10.358  19.845  1.00  0.00     0.135 A 
HETATM    5  N6  UNL     1      -4.684   9.462  19.519  1.00  0.00    -0.282 N 
ATOM      6  H6  UNL     1      -4.908   8.627  20.061  1.00  0.00     0.189 HD
ENDROOT
BRANCH   1   7
HETATM    7  C8  UNL     1      -6.386   9.172  17.713  1.00  0.00     0.125 C 
HETATM    8  C7  UNL     1      -5.857   8.315  16.598  1.00  0.00     0.152 C 
HETATM    9  N1  UNL     1      -6.888   7.382  16.243  1.00  0.00    -0.353 N 
HETATM   10  C20 UNL     1      -7.223   6.361  17.197  1.00  0.00     0.090 C 
HETATM   11  C19 UNL     1      -6.889   6.861  18.606  1.00  0.00     0.028 C 
HETATM   12  C18 UNL     1      -7.255   8.336  18.606  1.00  0.00     0.031 C 
BRANCH   9  13
HETATM   13  C6  UNL     1      -7.540   7.487  15.004  1.00  0.00     0.170 A 
HETATM   14  C5  UNL     1      -7.296   8.405  13.978  1.00  0.00     0.085 A 
HETATM   15  C4  UNL     1      -8.173   8.134  12.954  1.00  0.00     0.040 A 
HETATM   16  N7  UNL     1      -8.900   7.105  13.356  1.00  0.00    -0.263 N 
HETATM   17  O2  UNL     1      -8.528   6.750  14.518  1.00  0.00    -0.220 OA
ATOM     18  H7  UNL     1      -9.645   6.664  12.815  1.00  0.00     0.194 HD
BRANCH  15  19
HETATM   19  C2  UNL     1      -8.252   8.870  11.680  1.00  0.00     0.029 C 
HETATM   20  C1  UNL     1      -8.970   8.083  10.606  1.00  0.00     0.016 C 
HETATM   21  C3  UNL     1      -6.875   9.205  11.126  1.00  0.00     0.016 C 
ENDBRANCH  15  19
ENDBRANCH   9  13
BRANCH  10  22
HETATM   22  C21 UNL     1      -6.595   5.036  16.988  1.00  0.00     0.000 C 
HETATM   23  C22 UNL     1      -7.446   4.032  16.278  1.00  0.00     0.011 C 
HETATM   24  C23 UNL     1      -6.021   4.389  18.223  1.00  0.00     0.011 C 
ENDBRANCH  10  22
ENDBRANCH   1   7
BRANCH   3  25
HETATM   25  C11 UNL     1      -2.880  12.529  18.755  1.00  0.00     0.270 C 
HETATM   26  N3  UNL     1      -1.748  12.498  17.905  1.00  0.00    -0.057 NA
HETATM   27  O1  UNL     1      -3.155  13.570  19.363  1.00  0.00    -0.271 OA
ENDBRANCH   3  25
BRANCH   4  28
HETATM   28  N4  UNL     1      -2.830  10.232  20.974  1.00  0.00    -0.358 N 
HETATM   29  C13 UNL     1      -1.423  10.187  20.716  1.00  0.00     0.157 C 
HETATM   30  C14 UNL     1      -0.552  10.464  21.876  1.00  0.00     0.207 C 
HETATM   31  C15 UNL     1      -1.206  10.257  23.212  1.00  0.00     0.115 C 
HETATM   32  C16 UNL     1      -2.599  10.761  23.302  1.00  0.00     0.261 C 
HETATM   33  F1  UNL     1      -3.098  10.299  24.537  1.00  0.00    -0.204 F 
HETATM   34  F2  UNL     1      -2.666  12.135  23.393  1.00  0.00    -0.204 F 
HETATM   35  C17 UNL     1      -3.455  10.151  22.257  1.00  0.00     0.203 C 
BRANCH  30  36
HETATM   36  N5  UNL     1       0.081  11.756  21.810  1.00  0.00    -0.073 N 
ATOM     37  H53 UNL     1       1.025  11.679  21.432  1.00  0.00     0.274 HD
ATOM     38  H52 UNL     1      -0.344  12.332  21.083  1.00  0.00     0.274 HD
ATOM     39  H51 UNL     1       0.086  12.244  22.706  1.00  0.00     0.274 HD
ENDBRANCH  30  36
ENDBRANCH   4  28
TORSDOF 7
ENDMDL
MODEL 4
REMARK VINA RESULT: -8.544810362      2.375      3.035
REMARK  7 active torsions:
REMARK  status: ('A' for Active; 'I' for Inactive)
REMARK    1  A    between atoms: C2_2  and  C4_4 
REMARK    2  A    between atoms: C6_6  and  N1_7 
REMARK    3  A    between atoms: C8_9  and  N2_10 
REMARK    4  A    between atoms: C10_12  and  C11_13 
REMARK    5  A    between atoms: C12_16  and  N4_17 
REMARK    6  A    between atoms: C14_19  and  N5_20 
REMARK    7  A    between atoms: C20_33  and  C21_34 
ROOT
HETATM    1  N2  UNL     1      -4.919   9.612  19.711  1.00  0.00    -0.294 N 
HETATM    2  C9  UNL     1      -4.942   8.302  19.442  1.00  0.00     0.131 A 
HETATM    3  C10 UNL     1      -5.718   8.049  18.291  1.00  0.00     0.091 A 
HETATM    4  C12 UNL     1      -6.141   9.289  17.908  1.00  0.00     0.135 A 
HETATM    5  N6  UNL     1      -5.635  10.200  18.795  1.00  0.00    -0.282 N 
ATOM      6  H6  UNL     1      -5.797  11.207  18.745  1.00  0.00     0.189 HD
ENDROOT
BRANCH   1   7
HETATM    7  C8  UNL     1      -4.199  10.178  20.839  1.00  0.00     0.125 C 
HETATM    8  C7  UNL     1      -2.736   9.847  20.750  1.00  0.00     0.152 C 
HETATM    9  N1  UNL     1      -2.032  10.774  21.590  1.00  0.00    -0.353 N 
HETATM   10  C20 UNL     1      -1.995  12.150  21.183  1.00  0.00     0.090 C 
HETATM   11  C19 UNL     1      -3.225  12.452  20.321  1.00  0.00     0.028 C 
HETATM   12  C18 UNL     1      -4.361  11.665  20.953  1.00  0.00     0.031 C 
BRANCH   9  13
HETATM   13  C6  UNL     1      -1.414  10.328  22.770  1.00  0.00     0.170 A 
HETATM   14  C5  UNL     1      -1.951  10.284  24.060  1.00  0.00     0.085 A 
HETATM   15  C4  UNL     1      -0.988   9.776  24.899  1.00  0.00     0.040 A 
HETATM   16  N7  UNL     1       0.068   9.531  24.141  1.00  0.00    -0.263 N 
HETATM   17  O2  UNL     1      -0.190   9.849  22.938  1.00  0.00    -0.220 OA
ATOM     18  H7  UNL     1       0.954   9.147  24.472  1.00  0.00     0.194 HD
BRANCH  15  19
HETATM   19  C2  UNL     1      -1.143   9.563  26.349  1.00  0.00     0.029 C 
HETATM   20  C1  UNL     1      -0.804   8.148  26.761  1.00  0.00     0.016 C 
HETATM   21  C3  UNL     1      -2.568   9.823  26.816  1.00  0.00     0.016 C 
ENDBRANCH  15  19
ENDBRANCH   9  13
BRANCH  10  22
HETATM   22  C21 UNL     1      -0.777  12.592  20.465  1.00  0.00     0.000 C 
HETATM   23  C22 UNL     1       0.403  12.886  21.334  1.00  0.00     0.011 C 
HETATM   24  C23 UNL     1      -0.968  13.742  19.509  1.00  0.00     0.011 C 
ENDBRANCH  10  22
ENDBRANCH   1   7
BRANCH   3  25
HETATM   25  C11 UNL     1      -5.966   6.737  17.726  1.00  0.00     0.270 C 
HETATM   26  N3  UNL     1      -5.865   5.595  18.556  1.00  0.00    -0.057 NA
HETATM   27  O1  UNL     1      -6.263   6.598  16.534  1.00  0.00    -0.271 OA
ENDBRANCH   3  25
BRANCH   4  28
HETATM   28  N4  UNL     1      -6.941   9.624  16.767  1.00  0.00    -0.358 N 
HETATM   29  C13 UNL     1      -6.253  10.040  15.582  1.00  0.00     0.157 C 
HETATM   30  C14 UNL     1      -7.042   9.984  14.335  1.00  0.00     0.207 C 
HETATM   31  C15 UNL     1      -8.530   9.994  14.536  1.00  0.00     0.115 C 
HETATM   32  C16 UNL     1      -9.009   9.142  15.652  1.00  0.00     0.261 C 
HETATM   33  F1  UNL     1     -10.378   9.440  15.807  1.00  0.00    -0.204 F 
HETATM   34  F2  UNL     1      -8.978   7.797  15.349  1.00  0.00    -0.204 F 
HETATM   35  C17 UNL     1      -8.357   9.521  16.928  1.00  0.00     0.203 C 
BRANCH  30  36
HETATM   36  N5  UNL     1      -6.649   8.904  13.467  1.00  0.00    -0.073 N 
ATOM     37  H53 UNL     1      -6.481   8.051  14.000  1.00  0.00     0.274 HD
ATOM     38  H52 UNL     1      -7.435   8.592  12.896  1.00  0.00     0.274 HD
ATOM     39  H51 UNL     1      -5.845   9.134  12.884  1.00  0.00     0.274 HD
ENDBRANCH  30  36
ENDBRANCH   4  28
TORSDOF 7
ENDMDL
MODEL 5
REMARK VINA RESULT: -8.452443561      3.308      9.218
REMARK  7 active torsions:
REMARK  status: ('A' for Active; 'I' for Inactive)
REMARK    1  A    between atoms: C2_2  and  C4_4 
REMARK    2  A    between atoms: C6_6  and  N1_7 
REMARK    3  A    between atoms: C8_9  and  N2_10 
REMARK    4  A    between atoms: C10_12  and  C11_13 
REMARK    5  A    between atoms: C12_16  and  N4_17 
REMARK    6  A    between atoms: C14_19  and  N5_20 
REMARK    7  A    between atoms: C20_33  and  C21_34 
ROOT
HETATM    1  N2  UNL     1      -5.974  10.754  19.953  1.00  0.00    -0.294 N 
HETATM    2  C9  UNL     1      -6.462  11.413  21.009  1.00  0.00     0.131 A 
HETATM    3  C10 UNL     1      -5.411  11.939  21.791  1.00  0.00     0.091 A 
HETATM    4  C12 UNL     1      -4.286  11.546  21.124  1.00  0.00     0.135 A 
HETATM    5  N6  UNL     1      -4.674  10.834  20.023  1.00  0.00    -0.282 N 
ATOM      6  H6  UNL     1      -4.032  10.420  19.346  1.00  0.00     0.189 HD
ENDROOT
BRANCH   1   7
HETATM    7  C8  UNL     1      -6.817  10.102  18.965  1.00  0.00     0.125 C 
HETATM    8  C7  UNL     1      -5.980   9.522  17.860  1.00  0.00     0.152 C 
HETATM    9  N1  UNL     1      -6.778   8.536  17.187  1.00  0.00    -0.353 N 
HETATM   10  C20 UNL     1      -7.101   7.335  17.905  1.00  0.00     0.090 C 
HETATM   11  C19 UNL     1      -7.089   7.629  19.408  1.00  0.00     0.028 C 
HETATM   12  C18 UNL     1      -7.679   9.022  19.549  1.00  0.00     0.031 C 
BRANCH   9  13
HETATM   13  C6  UNL     1      -7.223   8.764  15.875  1.00  0.00     0.170 A 
HETATM   14  C5  UNL     1      -6.590   9.495  14.865  1.00  0.00     0.085 A 
HETATM   15  C4  UNL     1      -7.390   9.450  13.748  1.00  0.00     0.040 A 
HETATM   16  N7  UNL     1      -8.446   8.726  14.082  1.00  0.00    -0.263 N 
HETATM   17  O2  UNL     1      -8.335   8.345  15.289  1.00  0.00    -0.220 OA
ATOM     18  H7  UNL     1      -9.229   8.507  13.464  1.00  0.00     0.194 HD
BRANCH  15  19
HETATM   19  C2  UNL     1      -7.093  10.093  12.457  1.00  0.00     0.029 C 
HETATM   20  C1  UNL     1      -6.620   9.103  11.416  1.00  0.00     0.016 C 
HETATM   21  C3  UNL     1      -6.002  11.147  12.581  1.00  0.00     0.016 C 
ENDBRANCH  15  19
ENDBRANCH   9  13
BRANCH  10  22
HETATM   22  C21 UNL     1      -6.246   6.156  17.632  1.00  0.00     0.000 C 
HETATM   23  C22 UNL     1      -6.283   5.654  16.224  1.00  0.00     0.011 C 
HETATM   24  C23 UNL     1      -6.437   4.987  18.563  1.00  0.00     0.011 C 
ENDBRANCH  10  22
ENDBRANCH   1   7
BRANCH   3  25
HETATM   25  C11 UNL     1      -5.583  12.697  23.014  1.00  0.00     0.270 C 
HETATM   26  N3  UNL     1      -6.235  13.953  22.965  1.00  0.00    -0.057 NA
HETATM   27  O1  UNL     1      -5.171  12.268  24.098  1.00  0.00    -0.271 OA
ENDBRANCH   3  25
BRANCH   4  28
HETATM   28  N4  UNL     1      -2.925  11.841  21.463  1.00  0.00    -0.358 N 
HETATM   29  C13 UNL     1      -2.383  11.199  22.623  1.00  0.00     0.157 C 
HETATM   30  C14 UNL     1      -0.909  11.193  22.717  1.00  0.00     0.207 C 
HETATM   31  C15 UNL     1      -0.226  12.250  21.899  1.00  0.00     0.115 C 
HETATM   32  C16 UNL     1      -0.795  12.445  20.542  1.00  0.00     0.261 C 
HETATM   33  F1  UNL     1      -0.165  13.594  20.021  1.00  0.00    -0.204 F 
HETATM   34  F2  UNL     1      -0.453  11.435  19.668  1.00  0.00    -0.204 F 
HETATM   35  C17 UNL     1      -2.241  12.763  20.612  1.00  0.00     0.203 C 
BRANCH  30  36
HETATM   36  N5  UNL     1      -0.334   9.897  22.464  1.00  0.00    -0.073 N 
ATOM     37  H53 UNL     1      -1.047   9.169  22.496  1.00  0.00     0.274 HD
ATOM     38  H52 UNL     1      -0.050   9.809  21.488  1.00  0.00     0.274 HD
ATOM     39  H51 UNL     1       0.441   9.675  23.089  1.00  0.00     0.274 HD
ENDBRANCH  30  36
ENDBRANCH   4  28
TORSDOF 7
ENDMDL
