MODEL 1
REMARK VINA RESULT: -7.946117108      0.000      0.000
REMARK  8 active torsions:
REMARK  status: ('A' for Active; 'I' for Inactive)
REMARK       I    between atoms: C2_2  and  N1_4 
REMARK    1  A    between atoms: N1_4  and  C3_6 
REMARK    2  A    between atoms: C7_10  and  N2_11 
REMARK    3  A    between atoms: C7_10  and  C22_35 
REMARK       I    between atoms: N2_11  and  C8_13 
REMARK    4  A    between atoms: C8_13  and  C9_15 
REMARK    5  A    between atoms: C9_15  and  N3_16 
REMARK    6  A    between atoms: C9_15  and  C20_30 
REMARK       I    between atoms: N3_16  and  C10_18 
REMARK       I    between atoms: C10_18  and  N4_20 
REMARK    7  A    between atoms: C15_25  and  C16_26 
REMARK    8  A    between atoms: C20_30  and  C21_32 
ROOT
HETATM    1  C9  UNL     1       9.214  63.022   1.352  1.00  0.00     0.254 C 
ENDROOT
BRANCH   1   2
HETATM    2  C8  UNL     1       9.296  64.174   2.325  1.00  0.00     0.249 C 
HETATM    3  N2  UNL     1       8.845  65.446   2.046  1.00  0.00    -0.339 N 
ATOM      4  H2  UNL     1       8.405  65.566   1.134  1.00  0.00     0.163 HD
HETATM    5  O2  UNL     1       9.830  63.806   3.426  1.00  0.00    -0.271 OA
BRANCH   3   6
HETATM    6  C7  UNL     1       8.912  66.633   2.867  1.00  0.00     0.127 C 
HETATM    7  C6  UNL     1       9.239  67.842   2.017  1.00  0.00     0.043 C 
HETATM    8  C5  UNL     1       9.642  68.886   3.011  1.00  0.00     0.010 C 
HETATM    9  C4  UNL     1      10.228  68.085   4.140  1.00  0.00     0.018 A 
HETATM   10  C3  UNL     1      11.345  67.200   3.699  1.00  0.00     0.096 A 
HETATM   11  C23 UNL     1      10.008  66.643   3.873  1.00  0.00     0.054 A 
BRANCH  10  12
HETATM   12  N1  UNL     1      12.324  66.907   4.738  1.00  0.00    -0.356 N 
HETATM   13  C2  UNL     1      13.072  65.709   4.777  1.00  0.00     0.213 C 
HETATM   14  C1  UNL     1      14.052  65.420   5.836  1.00  0.00     0.117 C 
HETATM   15  O1  UNL     1      12.895  64.848   3.874  1.00  0.00    -0.274 OA
ATOM     16  H1  UNL     1      12.477  67.600   5.471  1.00  0.00     0.162 HD
ENDBRANCH  10  12
BRANCH   6  17
HETATM   17  C22 UNL     1       7.627  66.859   3.537  1.00  0.00     0.203 C 
HETATM   18  O5  UNL     1       6.681  67.410   2.895  1.00  0.00    -0.646 OA
HETATM   19  O6  UNL     1       7.411  66.498   4.831  1.00  0.00    -0.646 OA
ENDBRANCH   6  17
ENDBRANCH   3   6
ENDBRANCH   1   2
BRANCH   1  20
HETATM   20  N3  UNL     1       7.958  62.327   1.490  1.00  0.00    -0.323 N 
HETATM   21  C10 UNL     1       7.686  61.176   2.217  1.00  0.00     0.323 C 
HETATM   22  O3  UNL     1       8.644  60.652   2.860  1.00  0.00    -0.247 OA
HETATM   23  N4  UNL     1       6.432  60.569   2.282  1.00  0.00    -0.307 N 
HETATM   24  C11 UNL     1       6.325  59.421   3.220  1.00  0.00     0.133 C 
HETATM   25  C15 UNL     1       5.282  60.871   1.474  1.00  0.00     0.001 C 
HETATM   26  C12 UNL     1       5.696  58.217   2.614  1.00  0.00     0.021 C 
HETATM   27  C13 UNL     1       4.610  58.425   1.633  1.00  0.00     0.007 C 
HETATM   28  C14 UNL     1       4.839  59.593   0.761  1.00  0.00     0.053 C 
ATOM     29  H3  UNL     1       7.167  62.734   0.991  1.00  0.00     0.165 HD
BRANCH  25  30
HETATM   30  C16 UNL     1       4.191  61.705   1.981  1.00  0.00    -0.012 C 
HETATM   31  C17 UNL     1       2.828  61.136   2.091  1.00  0.00     0.021 C 
HETATM   32  C18 UNL     1       4.448  62.423   3.302  1.00  0.00     0.021 C 
HETATM   33  C19 UNL     1       4.038  62.919   0.983  1.00  0.00     0.021 C 
ENDBRANCH  25  30
ENDBRANCH   1  20
BRANCH   1  34
HETATM   34  C20 UNL     1       9.636  63.386   0.021  1.00  0.00     0.222 C 
HETATM   35  O4  UNL     1       8.866  63.724  -0.866  1.00  0.00    -0.289 OA
BRANCH  34  36
HETATM   36  C21 UNL     1      11.095  63.361  -0.362  1.00  0.00     0.424 C 
HETATM   37  F1  UNL     1      11.668  64.590  -0.017  1.00  0.00    -0.206 F 
HETATM   38  F2  UNL     1      11.724  62.395   0.360  1.00  0.00    -0.206 F 
ENDBRANCH  34  36
ENDBRANCH   1  34
TORSDOF 8
ENDMDL
MODEL 2
REMARK VINA RESULT: -7.878408009      2.856      4.848
REMARK  8 active torsions:
REMARK  status: ('A' for Active; 'I' for Inactive)
REMARK       I    between atoms: C2_2  and  N1_4 
REMARK    1  A    between atoms: N1_4  and  C3_6 
REMARK    2  A    between atoms: C7_10  and  N2_11 
REMARK    3  A    between atoms: C7_10  and  C22_35 
REMARK       I    between atoms: N2_11  and  C8_13 
REMARK    4  A    between atoms: C8_13  and  C9_15 
REMARK    5  A    between atoms: C9_15  and  N3_16 
REMARK    6  A    between atoms: C9_15  and  C20_30 
REMARK       I    between atoms: N3_16  and  C10_18 
REMARK       I    between atoms: C10_18  and  N4_20 
REMARK    7  A    between atoms: C15_25  and  C16_26 
REMARK    8  A    between atoms: C20_30  and  C21_32 
ROOT
HETATM    1  C9  UNL     1       8.122  63.034   3.079  1.00  0.00     0.254 C 
ENDROOT
BRANCH   1   2
HETATM    2  C8  UNL     1       9.163  64.016   2.599  1.00  0.00     0.249 C 
HETATM    3  N2  UNL     1      10.507  63.724   2.505  1.00  0.00    -0.339 N 
ATOM      4  H2  UNL     1      10.767  62.767   2.747  1.00  0.00     0.163 HD
HETATM    5  O2  UNL     1       8.630  65.136   2.295  1.00  0.00    -0.271 OA
BRANCH   3   6
HETATM    6  C7  UNL     1      11.598  64.585   2.111  1.00  0.00     0.127 C 
HETATM    7  C6  UNL     1      12.834  64.275   2.929  1.00  0.00     0.043 C 
HETATM    8  C5  UNL     1      13.729  65.451   2.695  1.00  0.00     0.010 C 
HETATM    9  C4  UNL     1      12.765  66.580   2.455  1.00  0.00     0.018 A 
HETATM   10  C3  UNL     1      11.800  66.761   3.579  1.00  0.00     0.096 A 
HETATM   11  C23 UNL     1      11.389  66.032   2.384  1.00  0.00     0.054 A 
BRANCH  10  12
HETATM   12  N1  UNL     1      11.302  68.123   3.727  1.00  0.00    -0.356 N 
HETATM   13  C2  UNL     1      10.022  68.424   4.244  1.00  0.00     0.213 C 
HETATM   14  C1  UNL     1       9.527  69.803   4.382  1.00  0.00     0.117 C 
HETATM   15  O1  UNL     1       9.270  67.478   4.602  1.00  0.00    -0.274 OA
ATOM     16  H1  UNL     1      11.906  68.895   3.444  1.00  0.00     0.162 HD
ENDBRANCH  10  12
BRANCH   6  17
HETATM   17  C22 UNL     1      11.910  64.392   0.691  1.00  0.00     0.203 C 
HETATM   18  O5  UNL     1      11.185  64.956  -0.186  1.00  0.00    -0.646 OA
HETATM   19  O6  UNL     1      12.954  63.625   0.276  1.00  0.00    -0.646 OA
ENDBRANCH   6  17
ENDBRANCH   3   6
ENDBRANCH   1   2
BRANCH   1  20
HETATM   20  N3  UNL     1       6.947  63.727   3.548  1.00  0.00    -0.323 N 
HETATM   21  C10 UNL     1       6.199  63.477   4.691  1.00  0.00     0.323 C 
HETATM   22  O3  UNL     1       6.581  62.533   5.445  1.00  0.00    -0.247 OA
HETATM   23  N4  UNL     1       5.064  64.200   5.057  1.00  0.00    -0.307 N 
HETATM   24  C11 UNL     1       4.488  63.859   6.384  1.00  0.00     0.133 C 
HETATM   25  C15 UNL     1       4.350  65.154   4.253  1.00  0.00     0.001 C 
HETATM   26  C12 UNL     1       3.021  63.620   6.349  1.00  0.00     0.021 C 
HETATM   27  C13 UNL     1       2.210  64.436   5.422  1.00  0.00     0.007 C 
HETATM   28  C14 UNL     1       2.893  64.702   4.142  1.00  0.00     0.053 C 
ATOM     29  H3  UNL     1       6.623  64.498   2.966  1.00  0.00     0.165 HD
BRANCH  25  30
HETATM   30  C16 UNL     1       4.536  66.595   4.430  1.00  0.00    -0.012 C 
HETATM   31  C17 UNL     1       3.424  67.520   4.112  1.00  0.00     0.021 C 
HETATM   32  C18 UNL     1       5.074  67.043   5.786  1.00  0.00     0.021 C 
HETATM   33  C19 UNL     1       5.707  67.029   3.464  1.00  0.00     0.021 C 
ENDBRANCH  25  30
ENDBRANCH   1  20
BRANCH   1  34
HETATM   34  C20 UNL     1       7.932  61.932   2.167  1.00  0.00     0.222 C 
HETATM   35  O4  UNL     1       8.090  62.018   0.958  1.00  0.00    -0.289 OA
BRANCH  34  36
HETATM   36  C21 UNL     1       7.507  60.575   2.670  1.00  0.00     0.424 C 
HETATM   37  F1  UNL     1       6.552  60.053   1.791  1.00  0.00    -0.206 F 
HETATM   38  F2  UNL     1       8.582  59.742   2.653  1.00  0.00    -0.206 F 
ENDBRANCH  34  36
ENDBRANCH   1  34
TORSDOF 8
ENDMDL
MODEL 3
REMARK VINA RESULT: -7.777327654      2.322      4.064
REMARK  8 active torsions:
REMARK  status: ('A' for Active; 'I' for Inactive)
REMARK       I    between atoms: C2_2  and  N1_4 
REMARK    1  A    between atoms: N1_4  and  C3_6 
REMARK    2  A    between atoms: C7_10  and  N2_11 
REMARK    3  A    between atoms: C7_10  and  C22_35 
REMARK       I    between atoms: N2_11  and  C8_13 
REMARK    4  A    between atoms: C8_13  and  C9_15 
REMARK    5  A    between atoms: C9_15  and  N3_16 
REMARK    6  A    between atoms: C9_15  and  C20_30 
REMARK       I    between atoms: N3_16  and  C10_18 
REMARK       I    between atoms: C10_18  and  N4_20 
REMARK    7  A    between atoms: C15_25  and  C16_26 
REMARK    8  A    between atoms: C20_30  and  C21_32 
ROOT
HETATM    1  C9  UNL     1       7.995  64.481   0.397  1.00  0.00     0.254 C 
ENDROOT
BRANCH   1   2
HETATM    2  C8  UNL     1       9.171  64.873   1.258  1.00  0.00     0.249 C 
HETATM    3  N2  UNL     1      10.481  64.835   0.830  1.00  0.00    -0.339 N 
ATOM      4  H2  UNL     1      10.618  64.556  -0.142  1.00  0.00     0.163 HD
HETATM    5  O2  UNL     1       8.787  65.241   2.419  1.00  0.00    -0.271 OA
BRANCH   3   6
HETATM    6  C7  UNL     1      11.687  65.135   1.567  1.00  0.00     0.127 C 
HETATM    7  C6  UNL     1      11.777  64.264   2.802  1.00  0.00     0.043 C 
HETATM    8  C5  UNL     1      12.828  64.925   3.637  1.00  0.00     0.010 C 
HETATM    9  C4  UNL     1      12.709  66.376   3.263  1.00  0.00     0.018 A 
HETATM   10  C3  UNL     1      11.334  66.914   3.476  1.00  0.00     0.096 A 
HETATM   11  C23 UNL     1      11.751  66.507   2.139  1.00  0.00     0.054 A 
BRANCH  10  12
HETATM   12  N1  UNL     1      11.285  68.345   3.747  1.00  0.00    -0.356 N 
HETATM   13  C2  UNL     1      10.127  69.129   3.545  1.00  0.00     0.213 C 
HETATM   14  C1  UNL     1      10.092  70.576   3.814  1.00  0.00     0.117 C 
HETATM   15  O1  UNL     1       9.081  68.574   3.115  1.00  0.00    -0.274 OA
ATOM     16  H1  UNL     1      12.126  68.802   4.100  1.00  0.00     0.162 HD
ENDBRANCH  10  12
BRANCH   6  17
HETATM   17  C22 UNL     1      12.867  64.894   0.731  1.00  0.00     0.203 C 
HETATM   18  O5  UNL     1      13.095  63.722   0.301  1.00  0.00    -0.646 OA
HETATM   19  O6  UNL     1      13.732  65.889   0.397  1.00  0.00    -0.646 OA
ENDBRANCH   6  17
ENDBRANCH   3   6
ENDBRANCH   1   2
BRANCH   1  20
HETATM   20  N3  UNL     1       7.308  63.345   0.961  1.00  0.00    -0.323 N 
HETATM   21  C10 UNL     1       6.616  62.340   0.297  1.00  0.00     0.323 C 
HETATM   22  O3  UNL     1       6.576  62.397  -0.968  1.00  0.00    -0.247 OA
HETATM   23  N4  UNL     1       5.971  61.282   0.935  1.00  0.00    -0.307 N 
HETATM   24  C11 UNL     1       5.402  60.244   0.036  1.00  0.00     0.133 C 
HETATM   25  C15 UNL     1       5.717  61.145   2.344  1.00  0.00     0.001 C 
HETATM   26  C12 UNL     1       3.990  59.896   0.351  1.00  0.00     0.021 C 
HETATM   27  C13 UNL     1       3.579  59.895   1.770  1.00  0.00     0.007 C 
HETATM   28  C14 UNL     1       4.212  60.974   2.553  1.00  0.00     0.053 C 
ATOM     29  H3  UNL     1       7.333  63.269   1.978  1.00  0.00     0.165 HD
BRANCH  25  30
HETATM   30  C16 UNL     1       6.557  60.300   3.193  1.00  0.00    -0.012 C 
HETATM   31  C17 UNL     1       6.085  58.949   3.573  1.00  0.00     0.021 C 
HETATM   32  C18 UNL     1       8.005  60.123   2.748  1.00  0.00     0.021 C 
HETATM   33  C19 UNL     1       6.737  61.061   4.565  1.00  0.00     0.021 C 
ENDBRANCH  25  30
ENDBRANCH   1  20
BRANCH   1  34
HETATM   34  C20 UNL     1       7.198  65.614  -0.008  1.00  0.00     0.222 C 
HETATM   35  O4  UNL     1       6.073  65.837   0.414  1.00  0.00    -0.289 OA
BRANCH  34  36
HETATM   36  C21 UNL     1       7.724  66.610  -1.010  1.00  0.00     0.424 C 
HETATM   37  F1  UNL     1       8.406  67.619  -0.321  1.00  0.00    -0.206 F 
HETATM   38  F2  UNL     1       8.619  65.988  -1.823  1.00  0.00    -0.206 F 
ENDBRANCH  34  36
ENDBRANCH   1  34
TORSDOF 8
ENDMDL
MODEL 4
REMARK VINA RESULT: -7.701579053      1.737      3.537
REMARK  8 active torsions:
REMARK  status: ('A' for Active; 'I' for Inactive)
REMARK       I    between atoms: C2_2  and  N1_4 
REMARK    1  A    between atoms: N1_4  and  C3_6 
REMARK    2  A    between atoms: C7_10  and  N2_11 
REMARK    3  A    between atoms: C7_10  and  C22_35 
REMARK       I    between atoms: N2_11  and  C8_13 
REMARK    4  A    between atoms: C8_13  and  C9_15 
REMARK    5  A    between atoms: C9_15  and  N3_16 
REMARK    6  A    between atoms: C9_15  and  C20_30 
REMARK       I    between atoms: N3_16  and  C10_18 
REMARK       I    between atoms: C10_18  and  N4_20 
REMARK    7  A    between atoms: C15_25  and  C16_26 
REMARK    8  A    between atoms: C20_30  and  C21_32 
ROOT
HETATM    1  C9  UNL     1       9.933  62.931   1.250  1.00  0.00     0.254 C 
ENDROOT
BRANCH   1   2
HETATM    2  C8  UNL     1      10.634  63.868   2.203  1.00  0.00     0.249 C 
HETATM    3  N2  UNL     1      11.754  64.602   1.873  1.00  0.00    -0.339 N 
ATOM      4  H2  UNL     1      12.073  64.505   0.908  1.00  0.00     0.163 HD
HETATM    5  O2  UNL     1      10.050  63.888   3.339  1.00  0.00    -0.271 OA
BRANCH   3   6
HETATM    6  C7  UNL     1      12.537  65.487   2.703  1.00  0.00     0.127 C 
HETATM    7  C6  UNL     1      12.691  64.905   4.092  1.00  0.00     0.043 C 
HETATM    8  C5  UNL     1      13.170  66.057   4.918  1.00  0.00     0.010 C 
HETATM    9  C4  UNL     1      12.564  67.251   4.235  1.00  0.00     0.018 A 
HETATM   10  C3  UNL     1      11.078  67.157   4.123  1.00  0.00     0.096 A 
HETATM   11  C23 UNL     1      11.913  66.809   2.979  1.00  0.00     0.054 A 
BRANCH  10  12
HETATM   12  N1  UNL     1      10.398  68.445   4.079  1.00  0.00    -0.356 N 
HETATM   13  C2  UNL     1       9.003  68.586   4.252  1.00  0.00     0.213 C 
HETATM   14  C1  UNL     1       8.325  69.892   4.197  1.00  0.00     0.117 C 
HETATM   15  O1  UNL     1       8.306  67.558   4.461  1.00  0.00    -0.274 OA
ATOM     16  H1  UNL     1      10.955  69.284   3.916  1.00  0.00     0.162 HD
ENDBRANCH  10  12
BRANCH   6  17
HETATM   17  C22 UNL     1      13.869  65.683   2.122  1.00  0.00     0.203 C 
HETATM   18  O5  UNL     1      13.978  66.288   1.011  1.00  0.00    -0.646 OA
HETATM   19  O6  UNL     1      14.999  65.237   2.733  1.00  0.00    -0.646 OA
ENDBRANCH   6  17
ENDBRANCH   3   6
ENDBRANCH   1   2
BRANCH   1  20
HETATM   20  N3  UNL     1       8.598  62.638   1.713  1.00  0.00    -0.323 N 
HETATM   21  C10 UNL     1       8.112  61.450   2.241  1.00  0.00     0.323 C 
HETATM   22  O3  UNL     1       8.924  60.485   2.354  1.00  0.00    -0.247 OA
HETATM   23  N4  UNL     1       6.793  61.261   2.654  1.00  0.00    -0.307 N 
HETATM   24  C11 UNL     1       6.510  59.958   3.313  1.00  0.00     0.133 C 
HETATM   25  C15 UNL     1       5.678  62.139   2.422  1.00  0.00     0.001 C 
HETATM   26  C12 UNL     1       5.316  59.263   2.762  1.00  0.00     0.021 C 
HETATM   27  C13 UNL     1       4.172  60.093   2.331  1.00  0.00     0.007 C 
HETATM   28  C14 UNL     1       4.587  61.356   1.691  1.00  0.00     0.053 C 
ATOM     29  H3  UNL     1       7.926  63.402   1.643  1.00  0.00     0.165 HD
BRANCH  25  30
HETATM   30  C16 UNL     1       5.194  63.048   3.461  1.00  0.00    -0.012 C 
HETATM   31  C17 UNL     1       3.740  63.152   3.720  1.00  0.00     0.021 C 
HETATM   32  C18 UNL     1       5.851  62.918   4.832  1.00  0.00     0.021 C 
HETATM   33  C19 UNL     1       5.630  64.505   3.037  1.00  0.00     0.021 C 
ENDBRANCH  25  30
ENDBRANCH   1  20
BRANCH   1  34
HETATM   34  C20 UNL     1      10.095  63.317  -0.131  1.00  0.00     0.222 C 
HETATM   35  O4  UNL     1      11.015  62.934  -0.839  1.00  0.00    -0.289 OA
BRANCH  34  36
HETATM   36  C21 UNL     1       9.112  64.249  -0.794  1.00  0.00     0.424 C 
HETATM   37  F1  UNL     1       9.466  65.566  -0.481  1.00  0.00    -0.206 F 
HETATM   38  F2  UNL     1       9.208  64.105  -2.143  1.00  0.00    -0.206 F 
ENDBRANCH  34  36
ENDBRANCH   1  34
TORSDOF 8
ENDMDL
MODEL 5
REMARK VINA RESULT: -7.625586049      3.354      4.871
REMARK  8 active torsions:
REMARK  status: ('A' for Active; 'I' for Inactive)
REMARK       I    between atoms: C2_2  and  N1_4 
REMARK    1  A    between atoms: N1_4  and  C3_6 
REMARK    2  A    between atoms: C7_10  and  N2_11 
REMARK    3  A    between atoms: C7_10  and  C22_35 
REMARK       I    between atoms: N2_11  and  C8_13 
REMARK    4  A    between atoms: C8_13  and  C9_15 
REMARK    5  A    between atoms: C9_15  and  N3_16 
REMARK    6  A    between atoms: C9_15  and  C20_30 
REMARK       I    between atoms: N3_16  and  C10_18 
REMARK       I    between atoms: C10_18  and  N4_20 
REMARK    7  A    between atoms: C15_25  and  C16_26 
REMARK    8  A    between atoms: C20_30  and  C21_32 
ROOT
HETATM    1  C9  UNL     1       4.791  65.432   4.661  1.00  0.00     0.254 C 
ENDROOT
BRANCH   1   2
HETATM    2  C8  UNL     1       5.555  66.585   4.056  1.00  0.00     0.249 C 
HETATM    3  N2  UNL     1       6.900  66.806   4.261  1.00  0.00    -0.339 N 
ATOM      4  H2  UNL     1       7.378  66.106   4.829  1.00  0.00     0.163 HD
HETATM    5  O2  UNL     1       4.791  67.313   3.336  1.00  0.00    -0.271 OA
BRANCH   3   6
HETATM    6  C7  UNL     1       7.726  67.890   3.782  1.00  0.00     0.127 C 
HETATM    7  C6  UNL     1       7.923  67.778   2.285  1.00  0.00     0.043 C 
HETATM    8  C5  UNL     1       9.065  68.702   1.999  1.00  0.00     0.010 C 
HETATM    9  C4  UNL     1       9.870  68.664   3.269  1.00  0.00     0.018 A 
HETATM   10  C3  UNL     1      10.284  67.281   3.646  1.00  0.00     0.096 A 
HETATM   11  C23 UNL     1       9.124  67.889   4.289  1.00  0.00     0.054 A 
BRANCH  10  12
HETATM   12  N1  UNL     1      11.514  67.215   4.426  1.00  0.00    -0.356 N 
HETATM   13  C2  UNL     1      12.283  66.037   4.554  1.00  0.00     0.213 C 
HETATM   14  C1  UNL     1      13.519  65.980   5.351  1.00  0.00     0.117 C 
HETATM   15  O1  UNL     1      11.899  64.990   3.968  1.00  0.00    -0.274 OA
ATOM     16  H1  UNL     1      11.834  68.059   4.900  1.00  0.00     0.162 HD
ENDBRANCH  10  12
BRANCH   6  17
HETATM   17  C22 UNL     1       7.094  69.179   4.081  1.00  0.00     0.203 C 
HETATM   18  O5  UNL     1       6.984  69.551   5.290  1.00  0.00    -0.646 OA
HETATM   19  O6  UNL     1       6.619  69.997   3.104  1.00  0.00    -0.646 OA
ENDBRANCH   6  17
ENDBRANCH   3   6
ENDBRANCH   1   2
BRANCH   1  20
HETATM   20  N3  UNL     1       5.273  64.175   4.141  1.00  0.00    -0.323 N 
HETATM   21  C10 UNL     1       4.624  63.290   3.291  1.00  0.00     0.323 C 
HETATM   22  O3  UNL     1       3.463  63.606   2.894  1.00  0.00    -0.247 OA
HETATM   23  N4  UNL     1       5.172  62.086   2.849  1.00  0.00    -0.307 N 
HETATM   24  C11 UNL     1       4.367  61.349   1.839  1.00  0.00     0.133 C 
HETATM   25  C15 UNL     1       6.365  61.447   3.336  1.00  0.00     0.001 C 
HETATM   26  C12 UNL     1       4.175  59.912   2.169  1.00  0.00     0.021 C 
HETATM   27  C13 UNL     1       5.286  59.201   2.833  1.00  0.00     0.007 C 
HETATM   28  C14 UNL     1       6.002  60.040   3.813  1.00  0.00     0.053 C 
ATOM     29  H3  UNL     1       6.210  63.901   4.437  1.00  0.00     0.165 HD
BRANCH  25  30
HETATM   30  C16 UNL     1       7.634  61.546   2.614  1.00  0.00    -0.012 C 
HETATM   31  C17 UNL     1       8.532  60.371   2.553  1.00  0.00     0.021 C 
HETATM   32  C18 UNL     1       7.558  62.085   1.189  1.00  0.00     0.021 C 
HETATM   33  C19 UNL     1       8.486  62.665   3.332  1.00  0.00     0.021 C 
ENDBRANCH  25  30
ENDBRANCH   1  20
BRANCH   1  34
HETATM   34  C20 UNL     1       4.640  65.553   6.091  1.00  0.00     0.222 C 
HETATM   35  O4  UNL     1       5.187  66.417   6.760  1.00  0.00    -0.289 OA
BRANCH  34  36
HETATM   36  C21 UNL     1       3.778  64.584   6.862  1.00  0.00     0.424 C 
HETATM   37  F1  UNL     1       4.352  63.311   6.776  1.00  0.00    -0.206 F 
HETATM   38  F2  UNL     1       3.772  64.947   8.173  1.00  0.00    -0.206 F 
ENDBRANCH  34  36
ENDBRANCH   1  34
TORSDOF 8
ENDMDL
