MODEL 1
REMARK VINA RESULT: -8.259649578      0.000      0.000
REMARK  6 active torsions:
REMARK  status: ('A' for Active; 'I' for Inactive)
REMARK    1  A    between atoms: O1_2  and  C2_3 
REMARK    2  A    between atoms: C3_4  and  C4_5 
REMARK       I    between atoms: C4_5  and  N1_7 
REMARK    3  A    between atoms: N1_7  and  C5_9 
REMARK    4  A    between atoms: C5_9  and  C6_10 
REMARK       I    between atoms: C6_10  and  N2_12 
REMARK    5  A    between atoms: N2_12  and  C7_14 
REMARK    6  A    between atoms: C11_19  and  C12_20 
ROOT
HETATM    1  C7  UNL     1      13.084  65.103   3.945  1.00  0.00     0.122 A 
HETATM    2  C8  UNL     1      13.742  65.198   5.276  1.00  0.00     0.091 C 
HETATM    3  N3  UNL     1      14.250  65.270   6.310  1.00  0.00    -0.195 NA
HETATM    4  C9  UNL     1      13.622  63.991   3.072  1.00  0.00     0.050 A 
HETATM    5  C10 UNL     1      13.962  65.440   2.811  1.00  0.00     0.050 A 
ENDROOT
BRANCH   1   6
HETATM    6  N2  UNL     1      11.674  65.366   3.968  1.00  0.00    -0.338 N 
HETATM    7  C6  UNL     1      11.058  66.633   3.854  1.00  0.00     0.236 C 
HETATM    8  O3  UNL     1      11.776  67.650   3.720  1.00  0.00    -0.272 OA
ATOM      9  H2  UNL     1      11.057  64.562   4.077  1.00  0.00     0.164 HD
BRANCH   7  10
HETATM   10  C5  UNL     1       9.593  66.738   3.895  1.00  0.00     0.225 C 
BRANCH  10  11
HETATM   11  N1  UNL     1       8.877  65.608   3.410  1.00  0.00    -0.352 N 
HETATM   12  C4  UNL     1       7.602  65.186   3.891  1.00  0.00     0.227 C 
HETATM   13  O2  UNL     1       7.112  65.882   4.807  1.00  0.00    -0.273 OA
ATOM     14  H1  UNL     1       9.306  65.061   2.664  1.00  0.00     0.162 HD
BRANCH  12  15
HETATM   15  C3  UNL     1       6.961  63.987   3.288  1.00  0.00     0.140 C 
HETATM   16  C2  UNL     1       6.352  63.174   4.357  1.00  0.00     0.141 C 
HETATM   17  C20 UNL     1       6.067  61.757   4.051  1.00  0.00     0.027 C 
HETATM   18  C16 UNL     1       7.182  60.782   4.000  1.00  0.00     0.007 C 
HETATM   19  C19 UNL     1       5.344  61.460   2.790  1.00  0.00     0.016 C 
HETATM   20  C15 UNL     1       8.045  60.784   2.801  1.00  0.00     0.008 C 
HETATM   21  C17 UNL     1       6.311  59.512   3.907  1.00  0.00     0.062 C 
HETATM   22  C14 UNL     1       7.457  61.171   1.510  1.00  0.00     0.025 C 
HETATM   23  C13 UNL     1       6.107  61.832   1.541  1.00  0.00     0.082 C 
HETATM   24  N4  UNL     1       6.059  63.169   1.159  1.00  0.00    -0.403 N 
HETATM   25  C11 UNL     1       6.162  64.245   2.066  1.00  0.00     0.194 C 
ATOM     26  H4  UNL     1       5.943  63.383   0.168  1.00  0.00     0.154 HD
HETATM   27 BR1  UNL     1       7.284  57.939   3.573  1.00  0.00    -0.091 Br
HETATM   28  C18 UNL     1       5.349  59.919   2.816  1.00  0.00     0.023 C 
BRANCH  16  29
HETATM   29  O1  UNL     1       5.152  63.741   4.766  1.00  0.00    -0.389 OA
HETATM   30  C1  UNL     1       4.833  63.436   6.081  1.00  0.00     0.202 C 
ENDBRANCH  16  29
BRANCH  25  31
HETATM   31  C12 UNL     1       4.823  64.837   2.242  1.00  0.00     0.197 C 
HETATM   32  O4  UNL     1       3.742  64.210   1.972  1.00  0.00    -0.646 OA
HETATM   33  O5  UNL     1       4.602  66.117   2.712  1.00  0.00    -0.646 OA
ENDBRANCH  25  31
ENDBRANCH  12  15
ENDBRANCH  10  11
ENDBRANCH   7  10
ENDBRANCH   1   6
TORSDOF 6
ENDMDL
MODEL 2
REMARK VINA RESULT: -7.831422865      0.750      1.215
REMARK  6 active torsions:
REMARK  status: ('A' for Active; 'I' for Inactive)
REMARK    1  A    between atoms: O1_2  and  C2_3 
REMARK    2  A    between atoms: C3_4  and  C4_5 
REMARK       I    between atoms: C4_5  and  N1_7 
REMARK    3  A    between atoms: N1_7  and  C5_9 
REMARK    4  A    between atoms: C5_9  and  C6_10 
REMARK       I    between atoms: C6_10  and  N2_12 
REMARK    5  A    between atoms: N2_12  and  C7_14 
REMARK    6  A    between atoms: C11_19  and  C12_20 
ROOT
HETATM    1  C7  UNL     1      13.379  65.127   3.865  1.00  0.00     0.122 A 
HETATM    2  C8  UNL     1      13.888  65.408   2.496  1.00  0.00     0.091 C 
HETATM    3  N3  UNL     1      14.283  65.629   1.434  1.00  0.00    -0.195 NA
HETATM    4  C9  UNL     1      14.323  65.544   4.970  1.00  0.00     0.050 A 
HETATM    5  C10 UNL     1      14.136  64.094   4.592  1.00  0.00     0.050 A 
ENDROOT
BRANCH   1   6
HETATM    6  N2  UNL     1      11.968  65.340   4.021  1.00  0.00    -0.338 N 
HETATM    7  C6  UNL     1      11.293  66.577   3.914  1.00  0.00     0.236 C 
HETATM    8  O3  UNL     1      11.952  67.611   3.663  1.00  0.00    -0.272 OA
ATOM      9  H2  UNL     1      11.399  64.520   4.228  1.00  0.00     0.164 HD
BRANCH   7  10
HETATM   10  C5  UNL     1       9.836  66.630   4.100  1.00  0.00     0.225 C 
BRANCH  10  11
HETATM   11  N1  UNL     1       9.104  65.528   3.577  1.00  0.00    -0.352 N 
HETATM   12  C4  UNL     1       7.771  65.187   3.953  1.00  0.00     0.227 C 
HETATM   13  O2  UNL     1       7.243  65.932   4.809  1.00  0.00    -0.273 OA
ATOM     14  H1  UNL     1       9.565  64.940   2.883  1.00  0.00     0.162 HD
BRANCH  12  15
HETATM   15  C3  UNL     1       7.119  64.008   3.323  1.00  0.00     0.140 C 
HETATM   16  C2  UNL     1       6.435  63.217   4.363  1.00  0.00     0.141 C 
HETATM   17  C20 UNL     1       6.119  61.811   4.044  1.00  0.00     0.027 C 
HETATM   18  C16 UNL     1       7.203  60.799   4.044  1.00  0.00     0.007 C 
HETATM   19  C19 UNL     1       5.445  61.535   2.751  1.00  0.00     0.016 C 
HETATM   20  C15 UNL     1       8.119  60.771   2.886  1.00  0.00     0.008 C 
HETATM   21  C17 UNL     1       6.295  59.558   3.912  1.00  0.00     0.062 C 
HETATM   22  C14 UNL     1       7.604  61.175   1.569  1.00  0.00     0.025 C 
HETATM   23  C13 UNL     1       6.276  61.879   1.539  1.00  0.00     0.082 C 
HETATM   24  N4  UNL     1       6.290  63.217   1.154  1.00  0.00    -0.403 N 
HETATM   25  C11 UNL     1       6.386  64.290   2.065  1.00  0.00     0.194 C 
ATOM     26  H4  UNL     1       6.226  63.433   0.159  1.00  0.00     0.154 HD
HETATM   27 BR1  UNL     1       7.231  57.954   3.623  1.00  0.00    -0.091 Br
HETATM   28  C18 UNL     1       5.399  59.994   2.778  1.00  0.00     0.023 C 
BRANCH  16  29
HETATM   29  O1  UNL     1       5.238  63.825   4.716  1.00  0.00    -0.389 OA
HETATM   30  C1  UNL     1       4.771  63.413   5.955  1.00  0.00     0.202 C 
ENDBRANCH  16  29
BRANCH  25  31
HETATM   31  C12 UNL     1       5.061  64.926   2.180  1.00  0.00     0.197 C 
HETATM   32  O4  UNL     1       3.972  64.329   1.873  1.00  0.00    -0.646 OA
HETATM   33  O5  UNL     1       4.862  66.218   2.624  1.00  0.00    -0.646 OA
ENDBRANCH  25  31
ENDBRANCH  12  15
ENDBRANCH  10  11
ENDBRANCH   7  10
ENDBRANCH   1   6
TORSDOF 6
ENDMDL
MODEL 3
REMARK VINA RESULT: -7.467754641      1.478      1.853
REMARK  6 active torsions:
REMARK  status: ('A' for Active; 'I' for Inactive)
REMARK    1  A    between atoms: O1_2  and  C2_3 
REMARK    2  A    between atoms: C3_4  and  C4_5 
REMARK       I    between atoms: C4_5  and  N1_7 
REMARK    3  A    between atoms: N1_7  and  C5_9 
REMARK    4  A    between atoms: C5_9  and  C6_10 
REMARK       I    between atoms: C6_10  and  N2_12 
REMARK    5  A    between atoms: N2_12  and  C7_14 
REMARK    6  A    between atoms: C11_19  and  C12_20 
ROOT
HETATM    1  C7  UNL     1      14.214  64.750   5.123  1.00  0.00     0.122 A 
HETATM    2  C8  UNL     1      14.674  64.436   6.503  1.00  0.00     0.091 C 
HETATM    3  N3  UNL     1      15.028  64.192   7.574  1.00  0.00    -0.195 NA
HETATM    4  C9  UNL     1      14.631  63.728   4.089  1.00  0.00     0.050 A 
HETATM    5  C10 UNL     1      15.299  65.080   4.184  1.00  0.00     0.050 A 
ENDROOT
BRANCH   1   6
HETATM    6  N2  UNL     1      12.901  65.326   5.060  1.00  0.00    -0.338 N 
HETATM    7  C6  UNL     1      12.367  66.074   3.986  1.00  0.00     0.236 C 
HETATM    8  O3  UNL     1      13.075  66.278   2.974  1.00  0.00    -0.272 OA
ATOM      9  H2  UNL     1      12.295  65.181   5.867  1.00  0.00     0.164 HD
BRANCH   7  10
HETATM   10  C5  UNL     1      10.997  66.598   4.073  1.00  0.00     0.225 C 
BRANCH  10  11
HETATM   11  N1  UNL     1       9.959  65.679   3.753  1.00  0.00    -0.352 N 
HETATM   12  C4  UNL     1       9.351  65.555   2.469  1.00  0.00     0.227 C 
HETATM   13  O2  UNL     1       9.786  66.330   1.588  1.00  0.00    -0.273 OA
ATOM     14  H1  UNL     1       9.626  65.064   4.496  1.00  0.00     0.162 HD
BRANCH  12  15
HETATM   15  C3  UNL     1       8.277  64.546   2.269  1.00  0.00     0.140 C 
HETATM   16  C2  UNL     1       7.723  64.161   3.581  1.00  0.00     0.141 C 
HETATM   17  C20 UNL     1       6.987  62.883   3.656  1.00  0.00     0.027 C 
HETATM   18  C16 UNL     1       7.739  61.605   3.643  1.00  0.00     0.007 C 
HETATM   19  C19 UNL     1       5.942  62.632   2.633  1.00  0.00     0.016 C 
HETATM   20  C15 UNL     1       8.270  61.130   2.349  1.00  0.00     0.008 C 
HETATM   21  C17 UNL     1       6.546  60.688   3.987  1.00  0.00     0.062 C 
HETATM   22  C14 UNL     1       7.538  61.468   1.120  1.00  0.00     0.025 C 
HETATM   23  C13 UNL     1       6.474  62.526   1.224  1.00  0.00     0.082 C 
HETATM   24  N4  UNL     1       6.721  63.724   0.561  1.00  0.00    -0.403 N 
HETATM   25  C11 UNL     1       7.327  64.843   1.170  1.00  0.00     0.194 C 
ATOM     26  H4  UNL     1       6.447  63.798  -0.419  1.00  0.00     0.154 HD
HETATM   27 BR1  UNL     1       6.932  58.853   3.863  1.00  0.00    -0.091 Br
HETATM   28  C18 UNL     1       5.517  61.198   3.007  1.00  0.00     0.023 C 
BRANCH  16  29
HETATM   29  O1  UNL     1       6.859  65.145   4.043  1.00  0.00    -0.389 OA
HETATM   30  C1  UNL     1       6.224  64.792   5.224  1.00  0.00     0.202 C 
ENDBRANCH  16  29
BRANCH  25  31
HETATM   31  C12 UNL     1       6.288  65.857   1.427  1.00  0.00     0.197 C 
HETATM   32  O4  UNL     1       6.554  67.090   1.632  1.00  0.00    -0.646 OA
HETATM   33  O5  UNL     1       4.936  65.580   1.473  1.00  0.00    -0.646 OA
ENDBRANCH  25  31
ENDBRANCH  12  15
ENDBRANCH  10  11
ENDBRANCH   7  10
ENDBRANCH   1   6
TORSDOF 6
ENDMDL
MODEL 4
REMARK VINA RESULT: -7.276428845      3.180      3.755
REMARK  6 active torsions:
REMARK  status: ('A' for Active; 'I' for Inactive)
REMARK    1  A    between atoms: O1_2  and  C2_3 
REMARK    2  A    between atoms: C3_4  and  C4_5 
REMARK       I    between atoms: C4_5  and  N1_7 
REMARK    3  A    between atoms: N1_7  and  C5_9 
REMARK    4  A    between atoms: C5_9  and  C6_10 
REMARK       I    between atoms: C6_10  and  N2_12 
REMARK    5  A    between atoms: N2_12  and  C7_14 
REMARK    6  A    between atoms: C11_19  and  C12_20 
ROOT
HETATM    1  C7  UNL     1       9.274  70.470   3.351  1.00  0.00     0.122 A 
HETATM    2  C8  UNL     1       8.379  71.656   3.279  1.00  0.00     0.091 C 
HETATM    3  N3  UNL     1       7.685  72.577   3.226  1.00  0.00    -0.195 NA
HETATM    4  C9  UNL     1      10.727  70.809   3.596  1.00  0.00     0.050 A 
HETATM    5  C10 UNL     1      10.234  70.367   2.239  1.00  0.00     0.050 A 
ENDROOT
BRANCH   1   6
HETATM    6  N2  UNL     1       8.690  69.335   4.008  1.00  0.00    -0.338 N 
HETATM    7  C6  UNL     1       7.723  68.459   3.463  1.00  0.00     0.236 C 
HETATM    8  O3  UNL     1       7.308  68.657   2.299  1.00  0.00    -0.272 OA
ATOM      9  H2  UNL     1       9.003  69.142   4.959  1.00  0.00     0.164 HD
BRANCH   7  10
HETATM   10  C5  UNL     1       7.223  67.336   4.267  1.00  0.00     0.225 C 
BRANCH  10  11
HETATM   11  N1  UNL     1       7.091  66.094   3.585  1.00  0.00    -0.352 N 
HETATM   12  C4  UNL     1       6.708  64.865   4.200  1.00  0.00     0.227 C 
HETATM   13  O2  UNL     1       6.483  64.923   5.429  1.00  0.00    -0.273 OA
ATOM     14  H1  UNL     1       7.285  66.082   2.584  1.00  0.00     0.162 HD
BRANCH  12  15
HETATM   15  C3  UNL     1       6.604  63.639   3.365  1.00  0.00     0.140 C 
HETATM   16  C2  UNL     1       5.583  62.745   3.941  1.00  0.00     0.141 C 
HETATM   17  C20 UNL     1       5.632  61.321   3.553  1.00  0.00     0.027 C 
HETATM   18  C16 UNL     1       6.674  60.441   4.135  1.00  0.00     0.007 C 
HETATM   19  C19 UNL     1       5.742  61.009   2.106  1.00  0.00     0.016 C 
HETATM   20  C15 UNL     1       8.047  60.551   3.601  1.00  0.00     0.008 C 
HETATM   21  C17 UNL     1       6.105  59.109   3.602  1.00  0.00     0.062 C 
HETATM   22  C14 UNL     1       8.227  60.932   2.192  1.00  0.00     0.025 C 
HETATM   23  C13 UNL     1       7.027  61.481   1.471  1.00  0.00     0.082 C 
HETATM   24  N4  UNL     1       7.082  62.822   1.102  1.00  0.00    -0.403 N 
HETATM   25  C11 UNL     1       6.582  63.872   1.901  1.00  0.00     0.194 C 
ATOM     26  H4  UNL     1       7.507  63.058   0.205  1.00  0.00     0.154 HD
HETATM   27 BR1  UNL     1       7.234  57.631   3.879  1.00  0.00    -0.091 Br
HETATM   28  C18 UNL     1       5.863  59.472   2.157  1.00  0.00     0.023 C 
BRANCH  16  29
HETATM   29  O1  UNL     1       4.311  63.201   3.620  1.00  0.00    -0.389 OA
HETATM   30  C1  UNL     1       3.482  63.308   4.727  1.00  0.00     0.202 C 
ENDBRANCH  16  29
BRANCH  25  31
HETATM   31  C12 UNL     1       5.319  64.349   1.308  1.00  0.00     0.197 C 
HETATM   32  O4  UNL     1       4.826  65.503   1.554  1.00  0.00    -0.646 OA
HETATM   33  O5  UNL     1       4.546  63.605   0.439  1.00  0.00    -0.646 OA
ENDBRANCH  25  31
ENDBRANCH  12  15
ENDBRANCH  10  11
ENDBRANCH   7  10
ENDBRANCH   1   6
TORSDOF 6
ENDMDL
MODEL 5
REMARK VINA RESULT: -7.219562419      2.389      3.741
REMARK  6 active torsions:
REMARK  status: ('A' for Active; 'I' for Inactive)
REMARK    1  A    between atoms: O1_2  and  C2_3 
REMARK    2  A    between atoms: C3_4  and  C4_5 
REMARK       I    between atoms: C4_5  and  N1_7 
REMARK    3  A    between atoms: N1_7  and  C5_9 
REMARK    4  A    between atoms: C5_9  and  C6_10 
REMARK       I    between atoms: C6_10  and  N2_12 
REMARK    5  A    between atoms: N2_12  and  C7_14 
REMARK    6  A    between atoms: C11_19  and  C12_20 
ROOT
HETATM    1  C7  UNL     1       8.380  69.891   2.275  1.00  0.00     0.122 A 
HETATM    2  C8  UNL     1       9.405  70.621   1.482  1.00  0.00     0.091 C 
HETATM    3  N3  UNL     1      10.201  71.186   0.864  1.00  0.00    -0.195 NA
HETATM    4  C9  UNL     1       6.968  70.065   1.764  1.00  0.00     0.050 A 
HETATM    5  C10 UNL     1       7.452  70.763   3.013  1.00  0.00     0.050 A 
ENDROOT
BRANCH   1   6
HETATM    6  N2  UNL     1       8.810  68.604   2.744  1.00  0.00    -0.338 N 
HETATM    7  C6  UNL     1       9.571  68.351   3.908  1.00  0.00     0.236 C 
HETATM    8  O3  UNL     1       9.928  69.312   4.625  1.00  0.00    -0.272 OA
ATOM      9  H2  UNL     1       8.539  67.796   2.185  1.00  0.00     0.164 HD
BRANCH   7  10
HETATM   10  C5  UNL     1       9.932  66.969   4.255  1.00  0.00     0.225 C 
BRANCH  10  11
HETATM   11  N1  UNL     1       8.983  65.971   3.897  1.00  0.00    -0.352 N 
HETATM   12  C4  UNL     1       9.130  65.065   2.805  1.00  0.00     0.227 C 
HETATM   13  O2  UNL     1      10.180  65.189   2.137  1.00  0.00    -0.273 OA
ATOM     14  H1  UNL     1       8.137  65.898   4.462  1.00  0.00     0.162 HD
BRANCH  12  15
HETATM   15  C3  UNL     1       8.061  64.064   2.545  1.00  0.00     0.140 C 
HETATM   16  C2  UNL     1       7.552  63.552   3.830  1.00  0.00     0.141 C 
HETATM   17  C20 UNL     1       6.832  62.263   3.808  1.00  0.00     0.027 C 
HETATM   18  C16 UNL     1       7.596  61.001   3.653  1.00  0.00     0.007 C 
HETATM   19  C19 UNL     1       5.758  62.094   2.798  1.00  0.00     0.016 C 
HETATM   20  C15 UNL     1       8.091  60.656   2.305  1.00  0.00     0.008 C 
HETATM   21  C17 UNL     1       6.424  60.041   3.946  1.00  0.00     0.062 C 
HETATM   22  C14 UNL     1       7.318  61.098   1.135  1.00  0.00     0.025 C 
HETATM   23  C13 UNL     1       6.247  62.127   1.370  1.00  0.00     0.082 C 
HETATM   24  N4  UNL     1       6.460  63.385   0.815  1.00  0.00    -0.403 N 
HETATM   25  C11 UNL     1       7.074  64.450   1.507  1.00  0.00     0.194 C 
ATOM     26  H4  UNL     1       6.156  63.547  -0.146  1.00  0.00     0.154 HD
HETATM   27 BR1  UNL     1       6.825  58.230   3.638  1.00  0.00    -0.091 Br
HETATM   28  C18 UNL     1       5.360  60.627   3.049  1.00  0.00     0.023 C 
BRANCH  16  29
HETATM   29  O1  UNL     1       6.693  64.477   4.408  1.00  0.00    -0.389 OA
HETATM   30  C1  UNL     1       6.029  63.975   5.518  1.00  0.00     0.202 C 
ENDBRANCH  16  29
BRANCH  25  31
HETATM   31  C12 UNL     1       6.033  65.422   1.889  1.00  0.00     0.197 C 
HETATM   32  O4  UNL     1       4.783  65.161   1.835  1.00  0.00    -0.646 OA
HETATM   33  O5  UNL     1       6.300  66.700   2.338  1.00  0.00    -0.646 OA
ENDBRANCH  25  31
ENDBRANCH  12  15
ENDBRANCH  10  11
ENDBRANCH   7  10
ENDBRANCH   1   6
TORSDOF 6
ENDMDL
