MODEL 1
REMARK VINA RESULT: -7.327057950      0.000      0.000
REMARK  8 active torsions:
REMARK  status: ('A' for Active; 'I' for Inactive)
REMARK    1  A    between atoms: C3_3  and  C4_4 
REMARK    2  A    between atoms: C4_4  and  N1_5 
REMARK    3  A    between atoms: C5_9  and  N2_10 
REMARK    4  A    between atoms: C11_20  and  N5_21 
REMARK    5  A    between atoms: N5_21  and  C12_23 
REMARK    6  A    between atoms: C12_23  and  C13_24 
REMARK       I    between atoms: C13_24  and  N6_26 
REMARK    7  A    between atoms: N6_26  and  C14_28 
REMARK    8  A    between atoms: C14_28  and  C15_29 
ROOT
HETATM    1  C1  UNL     1       9.246  63.122   1.213  1.00  0.00     0.053 C 
HETATM    2  C2  UNL     1       9.686  64.027   2.272  1.00  0.00    -0.005 A 
HETATM    3  C3  UNL     1      11.074  64.151   2.527  1.00  0.00     0.022 A 
HETATM    4  C5  UNL     1      11.444  65.000   3.509  1.00  0.00     0.126 A 
HETATM    5  N3  UNL     1      10.459  65.691   4.206  1.00  0.00    -0.283 N 
ATOM      6  H3  UNL     1      10.736  66.332   4.949  1.00  0.00     0.188 HD
HETATM    7  N4  UNL     1       9.181  65.544   3.934  1.00  0.00    -0.284 N 
ATOM      8  H4  UNL     1       8.498  66.075   4.476  1.00  0.00     0.188 HD
HETATM    9  C11 UNL     1       8.742  64.719   2.970  1.00  0.00     0.122 A 
ENDROOT
BRANCH   9  10
HETATM   10  N5  UNL     1       7.519  64.594   2.726  1.00  0.00    -0.366 N 
ATOM     11  H5  UNL     1       7.280  64.469   1.743  1.00  0.00     0.161 HD
BRANCH  10  12
HETATM   12  C12 UNL     1       6.424  64.602   3.622  1.00  0.00     0.224 C 
BRANCH  12  13
HETATM   13  C13 UNL     1       6.285  63.267   4.255  1.00  0.00     0.235 C 
HETATM   14  O1  UNL     1       6.124  63.164   5.497  1.00  0.00    -0.272 OA
HETATM   15  N6  UNL     1       6.326  62.066   3.501  1.00  0.00    -0.356 N 
ATOM     16  H6  UNL     1       6.455  62.123   2.491  1.00  0.00     0.162 HD
BRANCH  15  17
HETATM   17  C14 UNL     1       6.193  60.775   4.108  1.00  0.00     0.172 C 
BRANCH  17  18
HETATM   18  C15 UNL     1       6.680  59.660   3.231  1.00  0.00     0.167 C 
HETATM   19 CL1  UNL     1       8.283  60.040   2.558  1.00  0.00    -0.092 Cl
HETATM   20 BR1  UNL     1       5.389  59.468   1.782  1.00  0.00    -0.053 Br
HETATM   21 BR2  UNL     1       6.790  57.981   4.142  1.00  0.00    -0.053 Br
ENDBRANCH  17  18
ENDBRANCH  15  17
ENDBRANCH  12  13
ENDBRANCH  10  12
ENDBRANCH   9  10
BRANCH   3  22
HETATM   22  C4  UNL     1      11.990  63.324   1.718  1.00  0.00     0.272 C 
BRANCH  22  23
HETATM   23  N1  UNL     1      12.350  63.871   0.458  1.00  0.00    -0.075 N 
ATOM     24  H13 UNL     1      11.527  64.255  -0.005  1.00  0.00     0.274 HD
ATOM     25  H12 UNL     1      12.897  64.722   0.590  1.00  0.00     0.274 HD
ATOM     26  H11 UNL     1      12.840  63.234  -0.170  1.00  0.00     0.274 HD
ENDBRANCH  22  23
ENDBRANCH   3  22
BRANCH   4  27
HETATM   27  N2  UNL     1      12.735  65.352   3.925  1.00  0.00    -0.366 N 
HETATM   28  C6  UNL     1      12.986  65.804   5.283  1.00  0.00     0.124 C 
HETATM   29  C7  UNL     1      13.878  64.680   5.872  1.00  0.00     0.020 C 
HETATM   30  C8  UNL     1      15.186  64.799   5.090  1.00  0.00     0.003 C 
HETATM   31  C9  UNL     1      14.993  64.469   3.649  1.00  0.00     0.020 C 
HETATM   32  C10 UNL     1      13.842  65.216   2.995  1.00  0.00     0.124 C 
ENDBRANCH   4  27
TORSDOF 8
ENDMDL
MODEL 2
REMARK VINA RESULT: -7.325062086      1.374      1.403
REMARK  8 active torsions:
REMARK  status: ('A' for Active; 'I' for Inactive)
REMARK    1  A    between atoms: C3_3  and  C4_4 
REMARK    2  A    between atoms: C4_4  and  N1_5 
REMARK    3  A    between atoms: C5_9  and  N2_10 
REMARK    4  A    between atoms: C11_20  and  N5_21 
REMARK    5  A    between atoms: N5_21  and  C12_23 
REMARK    6  A    between atoms: C12_23  and  C13_24 
REMARK       I    between atoms: C13_24  and  N6_26 
REMARK    7  A    between atoms: N6_26  and  C14_28 
REMARK    8  A    between atoms: C14_28  and  C15_29 
ROOT
HETATM    1  C1  UNL     1       9.487  65.000   1.153  1.00  0.00     0.053 C 
HETATM    2  C2  UNL     1      10.041  65.329   2.465  1.00  0.00    -0.005 A 
HETATM    3  C3  UNL     1      11.422  65.114   2.693  1.00  0.00     0.022 A 
HETATM    4  C5  UNL     1      11.899  65.434   3.915  1.00  0.00     0.126 A 
HETATM    5  N3  UNL     1      11.022  65.944   4.866  1.00  0.00    -0.283 N 
ATOM      6  H3  UNL     1      11.380  66.185   5.790  1.00  0.00     0.188 HD
HETATM    7  N4  UNL     1       9.745  66.126   4.609  1.00  0.00    -0.284 N 
ATOM      8  H4  UNL     1       9.145  66.504   5.342  1.00  0.00     0.188 HD
HETATM    9  C11 UNL     1       9.205  65.833   3.416  1.00  0.00     0.122 A 
ENDROOT
BRANCH   9  10
HETATM   10  N5  UNL     1       7.985  66.016   3.191  1.00  0.00    -0.366 N 
ATOM     11  H5  UNL     1       7.763  66.407   2.276  1.00  0.00     0.161 HD
BRANCH  10  12
HETATM   12  C12 UNL     1       6.873  65.755   4.027  1.00  0.00     0.224 C 
BRANCH  12  13
HETATM   13  C13 UNL     1       6.323  64.411   3.723  1.00  0.00     0.235 C 
HETATM   14  O1  UNL     1       5.251  64.292   3.077  1.00  0.00    -0.272 OA
HETATM   15  N6  UNL     1       6.969  63.218   4.139  1.00  0.00    -0.356 N 
ATOM     16  H6  UNL     1       7.840  63.288   4.664  1.00  0.00     0.162 HD
BRANCH  15  17
HETATM   17  C14 UNL     1       6.440  61.919   3.848  1.00  0.00     0.172 C 
BRANCH  17  18
HETATM   18  C15 UNL     1       7.260  61.162   2.846  1.00  0.00     0.167 C 
HETATM   19 CL1  UNL     1       8.890  61.861   2.706  1.00  0.00    -0.092 Cl
HETATM   20 BR1  UNL     1       6.337  61.301   1.133  1.00  0.00    -0.053 Br
HETATM   21 BR2  UNL     1       7.433  59.304   3.266  1.00  0.00    -0.053 Br
ENDBRANCH  17  18
ENDBRANCH  15  17
ENDBRANCH  12  13
ENDBRANCH  10  12
ENDBRANCH   9  10
BRANCH   3  22
HETATM   22  C4  UNL     1      12.212  64.537   1.589  1.00  0.00     0.272 C 
BRANCH  22  23
HETATM   23  N1  UNL     1      12.275  63.119   1.563  1.00  0.00    -0.075 N 
ATOM     24  H13 UNL     1      11.741  62.730   2.340  1.00  0.00     0.274 HD
ATOM     25  H12 UNL     1      11.736  62.759   0.776  1.00  0.00     0.274 HD
ATOM     26  H11 UNL     1      13.215  62.724   1.553  1.00  0.00     0.274 HD
ENDBRANCH  22  23
ENDBRANCH   3  22
BRANCH   4  27
HETATM   27  N2  UNL     1      13.218  65.378   4.385  1.00  0.00    -0.366 N 
HETATM   28  C6  UNL     1      13.566  65.894   5.699  1.00  0.00     0.124 C 
HETATM   29  C7  UNL     1      13.994  64.621   6.477  1.00  0.00     0.020 C 
HETATM   30  C8  UNL     1      15.286  64.185   5.787  1.00  0.00     0.003 C 
HETATM   31  C9  UNL     1      15.037  63.752   4.383  1.00  0.00     0.020 C 
HETATM   32  C10 UNL     1      14.238  64.752   3.563  1.00  0.00     0.124 C 
ENDBRANCH   4  27
TORSDOF 8
ENDMDL
MODEL 3
REMARK VINA RESULT: -7.266070149      1.985      2.741
REMARK  8 active torsions:
REMARK  status: ('A' for Active; 'I' for Inactive)
REMARK    1  A    between atoms: C3_3  and  C4_4 
REMARK    2  A    between atoms: C4_4  and  N1_5 
REMARK    3  A    between atoms: C5_9  and  N2_10 
REMARK    4  A    between atoms: C11_20  and  N5_21 
REMARK    5  A    between atoms: N5_21  and  C12_23 
REMARK    6  A    between atoms: C12_23  and  C13_24 
REMARK       I    between atoms: C13_24  and  N6_26 
REMARK    7  A    between atoms: N6_26  and  C14_28 
REMARK    8  A    between atoms: C14_28  and  C15_29 
ROOT
HETATM    1  C1  UNL     1       7.977  66.418   3.406  1.00  0.00     0.053 C 
HETATM    2  C2  UNL     1       9.169  65.584   3.270  1.00  0.00    -0.005 A 
HETATM    3  C3  UNL     1      10.410  66.094   3.722  1.00  0.00     0.022 A 
HETATM    4  C5  UNL     1      11.489  65.293   3.584  1.00  0.00     0.126 A 
HETATM    5  N3  UNL     1      11.324  64.036   3.013  1.00  0.00    -0.283 N 
ATOM      6  H3  UNL     1      12.138  63.430   2.907  1.00  0.00     0.188 HD
HETATM    7  N4  UNL     1      10.150  63.605   2.606  1.00  0.00    -0.284 N 
ATOM      8  H4  UNL     1      10.083  62.674   2.194  1.00  0.00     0.188 HD
HETATM    9  C11 UNL     1       9.036  64.346   2.715  1.00  0.00     0.122 A 
ENDROOT
BRANCH   9  10
HETATM   10  N5  UNL     1       7.926  63.916   2.323  1.00  0.00    -0.366 N 
ATOM     11  H5  UNL     1       7.170  63.972   3.004  1.00  0.00     0.161 HD
BRANCH  10  12
HETATM   12  C12 UNL     1       7.575  63.363   1.069  1.00  0.00     0.224 C 
BRANCH  12  13
HETATM   13  C13 UNL     1       7.353  61.902   1.210  1.00  0.00     0.235 C 
HETATM   14  O1  UNL     1       6.750  61.260   0.313  1.00  0.00    -0.272 OA
HETATM   15  N6  UNL     1       7.803  61.175   2.341  1.00  0.00    -0.356 N 
ATOM     16  H6  UNL     1       8.296  61.674   3.082  1.00  0.00     0.162 HD
BRANCH  15  17
HETATM   17  C14 UNL     1       7.591  59.765   2.481  1.00  0.00     0.172 C 
BRANCH  17  18
HETATM   18  C15 UNL     1       6.536  59.428   3.493  1.00  0.00     0.167 C 
HETATM   19 CL1  UNL     1       6.565  60.583   4.846  1.00  0.00    -0.092 Cl
HETATM   20 BR1  UNL     1       6.931  57.635   4.152  1.00  0.00    -0.053 Br
HETATM   21 BR2  UNL     1       4.770  59.404   2.757  1.00  0.00    -0.053 Br
ENDBRANCH  17  18
ENDBRANCH  15  17
ENDBRANCH  12  13
ENDBRANCH  10  12
ENDBRANCH   9  10
BRANCH   3  22
HETATM   22  C4  UNL     1      10.423  67.460   4.278  1.00  0.00     0.272 C 
BRANCH  22  23
HETATM   23  N1  UNL     1      10.876  68.473   3.392  1.00  0.00    -0.075 N 
ATOM     24  H13 UNL     1      11.816  68.771   3.652  1.00  0.00     0.274 HD
ATOM     25  H12 UNL     1      11.062  68.075   2.471  1.00  0.00     0.274 HD
ATOM     26  H11 UNL     1      10.263  69.284   3.305  1.00  0.00     0.274 HD
ENDBRANCH  22  23
ENDBRANCH   3  22
BRANCH   4  27
HETATM   27  N2  UNL     1      12.810  65.520   3.995  1.00  0.00    -0.366 N 
HETATM   28  C6  UNL     1      13.109  65.924   5.359  1.00  0.00     0.124 C 
HETATM   29  C7  UNL     1      13.900  64.714   5.922  1.00  0.00     0.020 C 
HETATM   30  C8  UNL     1      15.208  64.728   5.131  1.00  0.00     0.003 C 
HETATM   31  C9  UNL     1      14.976  64.441   3.687  1.00  0.00     0.020 C 
HETATM   32  C10 UNL     1      13.893  65.300   3.055  1.00  0.00     0.124 C 
ENDBRANCH   4  27
TORSDOF 8
ENDMDL
MODEL 4
REMARK VINA RESULT: -7.243878099      3.744      6.852
REMARK  8 active torsions:
REMARK  status: ('A' for Active; 'I' for Inactive)
REMARK    1  A    between atoms: C3_3  and  C4_4 
REMARK    2  A    between atoms: C4_4  and  N1_5 
REMARK    3  A    between atoms: C5_9  and  N2_10 
REMARK    4  A    between atoms: C11_20  and  N5_21 
REMARK    5  A    between atoms: N5_21  and  C12_23 
REMARK    6  A    between atoms: C12_23  and  C13_24 
REMARK       I    between atoms: C13_24  and  N6_26 
REMARK    7  A    between atoms: N6_26  and  C14_28 
REMARK    8  A    between atoms: C14_28  and  C15_29 
ROOT
HETATM    1  C1  UNL     1       8.789  65.092   1.242  1.00  0.00     0.053 C 
HETATM    2  C2  UNL     1       8.008  64.725   2.421  1.00  0.00    -0.005 A 
HETATM    3  C3  UNL     1       7.469  63.418   2.498  1.00  0.00     0.022 A 
HETATM    4  C5  UNL     1       6.756  63.112   3.604  1.00  0.00     0.126 A 
HETATM    5  N3  UNL     1       6.592  64.083   4.586  1.00  0.00    -0.283 N 
ATOM      6  H3  UNL     1       6.053  63.855   5.421  1.00  0.00     0.188 HD
HETATM    7  N4  UNL     1       7.111  65.286   4.470  1.00  0.00    -0.284 N 
ATOM      8  H4  UNL     1       6.961  65.961   5.220  1.00  0.00     0.188 HD
HETATM    9  C11 UNL     1       7.832  65.656   3.400  1.00  0.00     0.122 A 
ENDROOT
BRANCH   9  10
HETATM   10  N5  UNL     1       8.320  66.807   3.310  1.00  0.00    -0.366 N 
ATOM     11  H5  UNL     1       8.159  67.282   2.423  1.00  0.00     0.161 HD
BRANCH  10  12
HETATM   12  C12 UNL     1       9.062  67.540   4.267  1.00  0.00     0.224 C 
BRANCH  12  13
HETATM   13  C13 UNL     1      10.513  67.301   4.065  1.00  0.00     0.235 C 
HETATM   14  O1  UNL     1      11.180  68.041   3.298  1.00  0.00    -0.272 OA
HETATM   15  N6  UNL     1      11.203  66.246   4.716  1.00  0.00    -0.356 N 
ATOM     16  H6  UNL     1      10.683  65.633   5.344  1.00  0.00     0.162 HD
BRANCH  15  17
HETATM   17  C14 UNL     1      12.603  66.013   4.524  1.00  0.00     0.172 C 
BRANCH  17  18
HETATM   18  C15 UNL     1      12.886  64.939   3.515  1.00  0.00     0.167 C 
HETATM   19 CL1  UNL     1      11.490  63.849   3.343  1.00  0.00    -0.092 Cl
HETATM   20 BR1  UNL     1      14.426  63.936   4.168  1.00  0.00    -0.053 Br
HETATM   21 BR2  UNL     1      13.330  65.631   1.787  1.00  0.00    -0.053 Br
ENDBRANCH  17  18
ENDBRANCH  15  17
ENDBRANCH  12  13
ENDBRANCH  10  12
ENDBRANCH   9  10
BRANCH   3  22
HETATM   22  C4  UNL     1       7.709  62.514   1.357  1.00  0.00     0.272 C 
BRANCH  22  23
HETATM   23  N1  UNL     1       8.722  61.539   1.555  1.00  0.00    -0.075 N 
ATOM     24  H13 UNL     1       9.574  61.984   1.896  1.00  0.00     0.274 HD
ATOM     25  H12 UNL     1       8.491  60.954   2.357  1.00  0.00     0.274 HD
ATOM     26  H11 UNL     1       8.932  60.956   0.745  1.00  0.00     0.274 HD
ENDBRANCH  22  23
ENDBRANCH   3  22
BRANCH   4  27
HETATM   27  N2  UNL     1       6.169  61.891   3.961  1.00  0.00    -0.366 N 
HETATM   28  C6  UNL     1       4.825  61.552   3.524  1.00  0.00     0.124 C 
HETATM   29  C7  UNL     1       5.054  60.345   2.575  1.00  0.00     0.020 C 
HETATM   30  C8  UNL     1       5.539  59.233   3.504  1.00  0.00     0.003 C 
HETATM   31  C9  UNL     1       6.868  59.557   4.097  1.00  0.00     0.020 C 
HETATM   32  C10 UNL     1       6.938  60.934   4.736  1.00  0.00     0.124 C 
ENDBRANCH   4  27
TORSDOF 8
ENDMDL
MODEL 5
REMARK VINA RESULT: -7.216926005      3.814      7.110
REMARK  8 active torsions:
REMARK  status: ('A' for Active; 'I' for Inactive)
REMARK    1  A    between atoms: C3_3  and  C4_4 
REMARK    2  A    between atoms: C4_4  and  N1_5 
REMARK    3  A    between atoms: C5_9  and  N2_10 
REMARK    4  A    between atoms: C11_20  and  N5_21 
REMARK    5  A    between atoms: N5_21  and  C12_23 
REMARK    6  A    between atoms: C12_23  and  C13_24 
REMARK       I    between atoms: C13_24  and  N6_26 
REMARK    7  A    between atoms: N6_26  and  C14_28 
REMARK    8  A    between atoms: C14_28  and  C15_29 
ROOT
HETATM    1  C1  UNL     1       8.383  66.102   1.127  1.00  0.00     0.053 C 
HETATM    2  C2  UNL     1       8.354  64.641   1.124  1.00  0.00    -0.005 A 
HETATM    3  C3  UNL     1       7.557  63.975   2.086  1.00  0.00     0.022 A 
HETATM    4  C5  UNL     1       7.551  62.625   2.050  1.00  0.00     0.126 A 
HETATM    5  N3  UNL     1       8.317  61.976   1.089  1.00  0.00    -0.283 N 
ATOM      6  H3  UNL     1       8.315  60.956   1.061  1.00  0.00     0.188 HD
HETATM    7  N4  UNL     1       9.043  62.637   0.214  1.00  0.00    -0.284 N 
ATOM      8  H4  UNL     1       9.588  62.112  -0.470  1.00  0.00     0.188 HD
HETATM    9  C11 UNL     1       9.094  63.978   0.191  1.00  0.00     0.122 A 
ENDROOT
BRANCH   9  10
HETATM   10  N5  UNL     1       9.792  64.589  -0.652  1.00  0.00    -0.366 N 
ATOM     11  H5  UNL     1       9.313  65.332  -1.161  1.00  0.00     0.161 HD
BRANCH  10  12
HETATM   12  C12 UNL     1      11.150  64.394  -0.997  1.00  0.00     0.224 C 
BRANCH  12  13
HETATM   13  C13 UNL     1      11.967  64.270   0.236  1.00  0.00     0.235 C 
HETATM   14  O1  UNL     1      12.412  63.151   0.596  1.00  0.00    -0.272 OA
HETATM   15  N6  UNL     1      12.279  65.388   1.052  1.00  0.00    -0.356 N 
ATOM     16  H6  UNL     1      11.930  66.307   0.781  1.00  0.00     0.162 HD
BRANCH  15  17
HETATM   17  C14 UNL     1      13.067  65.272   2.243  1.00  0.00     0.172 C 
BRANCH  17  18
HETATM   18  C15 UNL     1      12.249  65.346   3.498  1.00  0.00     0.167 C 
HETATM   19 CL1  UNL     1      11.044  64.038   3.545  1.00  0.00    -0.092 Cl
HETATM   20 BR1  UNL     1      11.343  67.074   3.486  1.00  0.00    -0.053 Br
HETATM   21 BR2  UNL     1      13.307  65.252   5.090  1.00  0.00    -0.053 Br
ENDBRANCH  17  18
ENDBRANCH  15  17
ENDBRANCH  12  13
ENDBRANCH  10  12
ENDBRANCH   9  10
BRANCH   3  22
HETATM   22  C4  UNL     1       6.825  64.810   3.058  1.00  0.00     0.272 C 
BRANCH  22  23
HETATM   23  N1  UNL     1       7.381  64.851   4.364  1.00  0.00    -0.075 N 
ATOM     24  H13 UNL     1       6.660  65.094   5.044  1.00  0.00     0.274 HD
ATOM     25  H12 UNL     1       7.612  63.908   4.676  1.00  0.00     0.274 HD
ATOM     26  H11 UNL     1       8.189  65.464   4.477  1.00  0.00     0.274 HD
ENDBRANCH  22  23
ENDBRANCH   3  22
BRANCH   4  27
HETATM   27  N2  UNL     1       6.814  61.729   2.837  1.00  0.00    -0.366 N 
HETATM   28  C6  UNL     1       5.412  61.469   2.559  1.00  0.00     0.124 C 
HETATM   29  C7  UNL     1       5.407  59.978   2.128  1.00  0.00     0.020 C 
HETATM   30  C8  UNL     1       5.779  59.224   3.404  1.00  0.00     0.003 C 
HETATM   31  C9  UNL     1       7.173  59.531   3.833  1.00  0.00     0.020 C 
HETATM   32  C10 UNL     1       7.480  61.017   3.913  1.00  0.00     0.124 C 
ENDBRANCH   4  27
TORSDOF 8
ENDMDL
