MODEL 1
REMARK VINA RESULT: -6.049757012      0.000      0.000
REMARK  6 active torsions:
REMARK  status: ('A' for Active; 'I' for Inactive)
REMARK       I    between atoms: C1_4  and  N2_5 
REMARK       I    between atoms: C1_4  and  N4_10 
REMARK    1  A    between atoms: N2_5  and  N3_7 
REMARK    2  A    between atoms: N4_10  and  S1_12 
REMARK    3  A    between atoms: S1_12  and  C2_14 
REMARK    4  A    between atoms: C2_14  and  C3_15 
REMARK    5  A    between atoms: C4_19  and  N6_20 
REMARK    6  A    between atoms: C8_31  and  N11_32 
ROOT
HETATM    1  C3  UNL     1       0.857  10.945   7.933  1.00  0.00     0.343 C 
HETATM    2  N5  UNL     1       1.771  11.207   6.844  1.00  0.00    -0.002 N 
ATOM      3  H51 UNL     1       2.558  10.592   6.640  1.00  0.00     0.285 HD
ATOM      4  H52 UNL     1       2.435  11.981   6.872  1.00  0.00     0.285 HD
HETATM    5  C4  UNL     1       0.587  11.243   6.006  1.00  0.00     0.455 C 
HETATM    6  O4  UNL     1      -0.229  11.361   7.130  1.00  0.00    -0.308 OA
ENDROOT
BRANCH   5   7
HETATM    7  N6  UNL     1       0.581  12.391   5.126  1.00  0.00    -0.204 N 
HETATM    8  N7  UNL     1       0.910  13.707   5.464  1.00  0.00    -0.014 NA
HETATM    9  N8  UNL     1       1.408  14.246   4.273  1.00  0.00    -0.277 N 
HETATM   10  C5  UNL     1       0.757  13.590   3.191  1.00  0.00     0.135 A 
ATOM     11  H8  UNL     1       2.112  14.980   4.194  1.00  0.00     0.184 HD
HETATM   12  C6  UNL     1       0.242  12.430   3.736  1.00  0.00     0.158 A 
HETATM   13  C8  UNL     1       0.594  13.911   1.863  1.00  0.00     0.132 A 
HETATM   14  N9  UNL     1      -0.439  11.584   2.950  1.00  0.00    -0.335 N 
HETATM   15  C7  UNL     1      -0.600  11.896   1.651  1.00  0.00     0.183 A 
ATOM     16  H9  UNL     1      -0.828  10.721   3.329  1.00  0.00     0.168 HD
HETATM   17  N10 UNL     1      -0.094  13.040   1.106  1.00  0.00    -0.337 N 
ATOM     18  H10 UNL     1      -0.238  13.236   0.115  1.00  0.00     0.168 HD
BRANCH  13  19
HETATM   19  N11 UNL     1       1.067  14.988   1.340  1.00  0.00    -0.383 N 
ATOM     20 2H11 UNL     1       2.041  15.247   1.496  1.00  0.00     0.157 HD
ATOM     21 1H11 UNL     1       0.507  15.615   0.763  1.00  0.00     0.157 HD
ENDBRANCH  13  19
ENDBRANCH   5   7
BRANCH   1  22
HETATM   22  C2  UNL     1       0.986  11.882   9.118  1.00  0.00     0.194 C 
BRANCH  22  23
HETATM   23  S1  UNL     1      -0.506  12.839   9.216  1.00  0.00     0.132 S 
HETATM   24  O3  UNL     1      -0.692  13.312  10.832  1.00  0.00    -0.235 OA
BRANCH  23  25
HETATM   25  N4  UNL     1      -0.294  14.236   8.227  1.00  0.00    -0.137 N 
HETATM   26  C1  UNL     1       0.649  15.247   8.563  1.00  0.00     0.703 C 
HETATM   27  N1  UNL     1       0.868  15.472   9.827  1.00  0.00    -0.233 N 
HETATM   28  N2  UNL     1       1.339  15.996   7.574  1.00  0.00    -0.072 N 
ATOM     29  H12 UNL     1       1.543  16.197  10.068  1.00  0.00     0.174 HD
ATOM     30  H11 UNL     1       0.372  14.934  10.537  1.00  0.00     0.174 HD
ATOM     31  H2  UNL     1       1.932  15.515   6.898  1.00  0.00     0.212 HD
ATOM     32  H4  UNL     1      -0.858  14.340   7.382  1.00  0.00     0.195 HD
BRANCH  28  33
HETATM   33  N3  UNL     1       1.215  17.385   7.518  1.00  0.00    -0.024 N 
HETATM   34  O1  UNL     1       2.246  18.045   7.196  1.00  0.00    -0.516 OA
HETATM   35  O2  UNL     1       0.038  18.014   7.798  1.00  0.00    -0.516 OA
ENDBRANCH  28  33
ENDBRANCH  23  25
ENDBRANCH  22  23
ENDBRANCH   1  22
TORSDOF 6
ENDMDL
MODEL 2
REMARK VINA RESULT: -5.613366648      2.781      5.539
REMARK  6 active torsions:
REMARK  status: ('A' for Active; 'I' for Inactive)
REMARK       I    between atoms: C1_4  and  N2_5 
REMARK       I    between atoms: C1_4  and  N4_10 
REMARK    1  A    between atoms: N2_5  and  N3_7 
REMARK    2  A    between atoms: N4_10  and  S1_12 
REMARK    3  A    between atoms: S1_12  and  C2_14 
REMARK    4  A    between atoms: C2_14  and  C3_15 
REMARK    5  A    between atoms: C4_19  and  N6_20 
REMARK    6  A    between atoms: C8_31  and  N11_32 
ROOT
HETATM    1  C3  UNL     1       0.855  11.032   7.975  1.00  0.00     0.343 C 
HETATM    2  N5  UNL     1      -0.392  11.602   8.435  1.00  0.00    -0.002 N 
ATOM      3  H51 UNL     1      -0.900  11.216   9.230  1.00  0.00     0.285 HD
ATOM      4  H52 UNL     1      -1.254  11.519   7.896  1.00  0.00     0.285 HD
HETATM    5  C4  UNL     1       0.340  12.851   8.525  1.00  0.00     0.455 C 
HETATM    6  O4  UNL     1       1.367  12.329   7.741  1.00  0.00    -0.308 OA
ENDROOT
BRANCH   5   7
HETATM    7  N6  UNL     1      -0.386  13.948   7.924  1.00  0.00    -0.204 N 
HETATM    8  N7  UNL     1      -1.677  13.906   7.391  1.00  0.00    -0.014 NA
HETATM    9  N8  UNL     1      -2.163  15.204   7.579  1.00  0.00    -0.277 N 
HETATM   10  C5  UNL     1      -1.055  16.095   7.530  1.00  0.00     0.135 A 
ATOM     11  H8  UNL     1      -3.137  15.466   7.725  1.00  0.00     0.184 HD
HETATM   12  C6  UNL     1       0.053  15.299   7.747  1.00  0.00     0.158 A 
HETATM   13  C8  UNL     1      -0.952  17.453   7.324  1.00  0.00     0.132 A 
HETATM   14  N9  UNL     1       1.270  15.861   7.759  1.00  0.00    -0.335 N 
HETATM   15  C7  UNL     1       1.372  17.187   7.558  1.00  0.00     0.183 A 
ATOM     16  H9  UNL     1       2.103  15.293   7.917  1.00  0.00     0.168 HD
HETATM   17  N10 UNL     1       0.282  17.980   7.344  1.00  0.00    -0.337 N 
ATOM     18  H10 UNL     1       0.406  18.982   7.197  1.00  0.00     0.168 HD
BRANCH  13  19
HETATM   19  N11 UNL     1      -1.974  18.208   7.121  1.00  0.00    -0.383 N 
ATOM     20 2H11 UNL     1      -2.003  18.823   6.308  1.00  0.00     0.157 HD
ATOM     21 1H11 UNL     1      -2.781  18.228   7.745  1.00  0.00     0.157 HD
ENDBRANCH  13  19
ENDBRANCH   5   7
BRANCH   1  22
HETATM   22  C2  UNL     1       0.772  10.286   6.658  1.00  0.00     0.194 C 
BRANCH  22  23
HETATM   23  S1  UNL     1       2.188  10.739   5.690  1.00  0.00     0.132 S 
HETATM   24  O3  UNL     1       3.084   9.325   5.420  1.00  0.00    -0.235 OA
BRANCH  23  25
HETATM   25  N4  UNL     1       1.615  11.354   4.184  1.00  0.00    -0.137 N 
HETATM   26  C1  UNL     1       1.523  12.754   3.942  1.00  0.00     0.703 C 
HETATM   27  N1  UNL     1       1.245  13.525   4.953  1.00  0.00    -0.233 N 
HETATM   28  N2  UNL     1       1.723  13.312   2.652  1.00  0.00    -0.072 N 
ATOM     29  H12 UNL     1       1.179  14.528   4.780  1.00  0.00     0.174 HD
ATOM     30  H11 UNL     1       1.101  13.124   5.880  1.00  0.00     0.174 HD
ATOM     31  H2  UNL     1       2.615  13.177   2.176  1.00  0.00     0.212 HD
ATOM     32  H4  UNL     1       1.335  10.701   3.452  1.00  0.00     0.195 HD
BRANCH  28  33
HETATM   33  N3  UNL     1       0.711  14.044   2.028  1.00  0.00    -0.024 N 
HETATM   34  O1  UNL     1       1.015  14.660   0.965  1.00  0.00    -0.516 OA
HETATM   35  O2  UNL     1      -0.553  14.100   2.536  1.00  0.00    -0.516 OA
ENDBRANCH  28  33
ENDBRANCH  23  25
ENDBRANCH  22  23
ENDBRANCH   1  22
TORSDOF 6
ENDMDL
MODEL 3
REMARK VINA RESULT: -5.549110330      3.875      6.023
REMARK  6 active torsions:
REMARK  status: ('A' for Active; 'I' for Inactive)
REMARK       I    between atoms: C1_4  and  N2_5 
REMARK       I    between atoms: C1_4  and  N4_10 
REMARK    1  A    between atoms: N2_5  and  N3_7 
REMARK    2  A    between atoms: N4_10  and  S1_12 
REMARK    3  A    between atoms: S1_12  and  C2_14 
REMARK    4  A    between atoms: C2_14  and  C3_15 
REMARK    5  A    between atoms: C4_19  and  N6_20 
REMARK    6  A    between atoms: C8_31  and  N11_32 
ROOT
HETATM    1  C3  UNL     1      -0.559  14.689  12.844  1.00  0.00     0.343 C 
HETATM    2  N5  UNL     1      -1.722  14.006  12.322  1.00  0.00    -0.002 N 
ATOM      3  H51 UNL     1      -2.326  13.439  12.917  1.00  0.00     0.285 HD
ATOM      4  H52 UNL     1      -1.641  13.199  11.704  1.00  0.00     0.285 HD
HETATM    5  C4  UNL     1      -2.131  15.310  11.834  1.00  0.00     0.455 C 
HETATM    6  O4  UNL     1      -0.844  15.808  12.030  1.00  0.00    -0.308 OA
ENDROOT
BRANCH   5   7
HETATM    7  N6  UNL     1      -2.561  15.260  10.454  1.00  0.00    -0.204 N 
HETATM    8  N7  UNL     1      -3.245  14.215   9.827  1.00  0.00    -0.014 NA
HETATM    9  N8  UNL     1      -3.995  14.851   8.832  1.00  0.00    -0.277 N 
HETATM   10  C5  UNL     1      -3.279  16.010   8.421  1.00  0.00     0.135 A 
ATOM     11  H8  UNL     1      -4.894  14.539   8.466  1.00  0.00     0.184 HD
HETATM   12  C6  UNL     1      -2.383  16.258   9.443  1.00  0.00     0.158 A 
HETATM   13  C8  UNL     1      -3.348  16.804   7.299  1.00  0.00     0.132 A 
HETATM   14  N9  UNL     1      -1.553  17.305   9.345  1.00  0.00    -0.335 N 
HETATM   15  C7  UNL     1      -1.619  18.083   8.250  1.00  0.00     0.183 A 
ATOM     16  H9  UNL     1      -0.883  17.508  10.087  1.00  0.00     0.168 HD
HETATM   17  N10 UNL     1      -2.502  17.845   7.236  1.00  0.00    -0.337 N 
ATOM     18  H10 UNL     1      -2.519  18.462   6.424  1.00  0.00     0.168 HD
BRANCH  13  19
HETATM   19  N11 UNL     1      -4.177  16.587   6.338  1.00  0.00    -0.383 N 
ATOM     20 2H11 UNL     1      -3.841  16.228   5.444  1.00  0.00     0.157 HD
ATOM     21 1H11 UNL     1      -5.179  16.759   6.421  1.00  0.00     0.157 HD
ENDBRANCH  13  19
ENDBRANCH   5   7
BRANCH   1  22
HETATM   22  C2  UNL     1       0.773  14.097  12.426  1.00  0.00     0.194 C 
BRANCH  22  23
HETATM   23  S1  UNL     1       1.397  15.069  11.079  1.00  0.00     0.132 S 
HETATM   24  O3  UNL     1       3.062  14.772  10.976  1.00  0.00    -0.235 OA
BRANCH  23  25
HETATM   25  N4  UNL     1       0.624  14.519   9.638  1.00  0.00    -0.137 N 
HETATM   26  C1  UNL     1       1.076  14.926   8.352  1.00  0.00     0.703 C 
HETATM   27  N1  UNL     1       1.583  16.120   8.240  1.00  0.00    -0.233 N 
HETATM   28  N2  UNL     1       0.986  14.079   7.216  1.00  0.00    -0.072 N 
ATOM     29  H12 UNL     1       1.907  16.412   7.318  1.00  0.00     0.174 HD
ATOM     30  H11 UNL     1       1.647  16.728   9.057  1.00  0.00     0.174 HD
ATOM     31  H2  UNL     1       1.464  13.178   7.220  1.00  0.00     0.212 HD
ATOM     32  H4  UNL     1      -0.175  13.887   9.710  1.00  0.00     0.195 HD
BRANCH  28  33
HETATM   33  N3  UNL     1       0.251  14.467   6.095  1.00  0.00    -0.024 N 
HETATM   34  O1  UNL     1      -0.750  15.215   6.291  1.00  0.00    -0.516 OA
HETATM   35  O2  UNL     1       0.590  14.062   4.838  1.00  0.00    -0.516 OA
ENDBRANCH  28  33
ENDBRANCH  23  25
ENDBRANCH  22  23
ENDBRANCH   1  22
TORSDOF 6
ENDMDL
MODEL 4
REMARK VINA RESULT: -5.540165170      2.789      3.490
REMARK  6 active torsions:
REMARK  status: ('A' for Active; 'I' for Inactive)
REMARK       I    between atoms: C1_4  and  N2_5 
REMARK       I    between atoms: C1_4  and  N4_10 
REMARK    1  A    between atoms: N2_5  and  N3_7 
REMARK    2  A    between atoms: N4_10  and  S1_12 
REMARK    3  A    between atoms: S1_12  and  C2_14 
REMARK    4  A    between atoms: C2_14  and  C3_15 
REMARK    5  A    between atoms: C4_19  and  N6_20 
REMARK    6  A    between atoms: C8_31  and  N11_32 
ROOT
HETATM    1  C3  UNL     1      -3.868  14.623   6.485  1.00  0.00     0.343 C 
HETATM    2  N5  UNL     1      -3.360  13.290   6.249  1.00  0.00    -0.002 N 
ATOM      3  H51 UNL     1      -3.981  12.494   6.104  1.00  0.00     0.285 HD
ATOM      4  H52 UNL     1      -2.904  12.749   6.983  1.00  0.00     0.285 HD
HETATM    5  C4  UNL     1      -2.612  13.888   5.159  1.00  0.00     0.455 C 
HETATM    6  O4  UNL     1      -2.845  15.162   5.673  1.00  0.00    -0.308 OA
ENDROOT
BRANCH   5   7
HETATM    7  N6  UNL     1      -1.226  13.474   5.164  1.00  0.00    -0.204 N 
HETATM    8  N7  UNL     1      -0.381  13.386   6.274  1.00  0.00    -0.014 NA
HETATM    9  N8  UNL     1       0.516  12.368   5.935  1.00  0.00    -0.277 N 
HETATM   10  C5  UNL     1       0.668  12.374   4.520  1.00  0.00     0.135 A 
ATOM     11  H8  UNL     1       0.980  11.735   6.586  1.00  0.00     0.184 HD
HETATM   12  C6  UNL     1      -0.427  13.069   4.046  1.00  0.00     0.158 A 
HETATM   13  C8  UNL     1       1.626  11.855   3.679  1.00  0.00     0.132 A 
HETATM   14  N9  UNL     1      -0.568  13.247   2.725  1.00  0.00    -0.335 N 
HETATM   15  C7  UNL     1       0.366  12.739   1.901  1.00  0.00     0.183 A 
ATOM     16  H9  UNL     1      -1.369  13.756   2.352  1.00  0.00     0.168 HD
HETATM   17  N10 UNL     1       1.451  12.051   2.362  1.00  0.00    -0.337 N 
ATOM     18  H10 UNL     1       2.134  11.682   1.700  1.00  0.00     0.168 HD
BRANCH  13  19
HETATM   19  N11 UNL     1       2.652  11.205   4.104  1.00  0.00    -0.383 N 
ATOM     20 2H11 UNL     1       2.535  10.440   4.768  1.00  0.00     0.157 HD
ATOM     21 1H11 UNL     1       3.604  11.417   3.807  1.00  0.00     0.157 HD
ENDBRANCH  13  19
ENDBRANCH   5   7
BRANCH   1  22
HETATM   22  C2  UNL     1      -3.696  15.133   7.903  1.00  0.00     0.194 C 
BRANCH  22  23
HETATM   23  S1  UNL     1      -3.433  16.886   7.819  1.00  0.00     0.132 S 
HETATM   24  O3  UNL     1      -3.677  17.504   9.378  1.00  0.00    -0.235 OA
BRANCH  23  25
HETATM   25  N4  UNL     1      -1.794  17.144   7.346  1.00  0.00    -0.137 N 
HETATM   26  C1  UNL     1      -0.712  16.609   8.100  1.00  0.00     0.703 C 
HETATM   27  N1  UNL     1      -0.866  16.507   9.389  1.00  0.00    -0.233 N 
HETATM   28  N2  UNL     1       0.503  16.197   7.491  1.00  0.00    -0.072 N 
ATOM     29  H12 UNL     1      -0.091  16.124   9.930  1.00  0.00     0.174 HD
ATOM     30  H11 UNL     1      -1.739  16.803   9.826  1.00  0.00     0.174 HD
ATOM     31  H2  UNL     1       0.488  15.461   6.784  1.00  0.00     0.212 HD
ATOM     32  H4  UNL     1      -1.597  17.692   6.508  1.00  0.00     0.195 HD
BRANCH  28  33
HETATM   33  N3  UNL     1       1.716  16.787   7.851  1.00  0.00    -0.024 N 
HETATM   34  O1  UNL     1       2.373  16.234   8.780  1.00  0.00    -0.516 OA
HETATM   35  O2  UNL     1       2.180  17.910   7.233  1.00  0.00    -0.516 OA
ENDBRANCH  28  33
ENDBRANCH  23  25
ENDBRANCH  22  23
ENDBRANCH   1  22
TORSDOF 6
ENDMDL
MODEL 5
REMARK VINA RESULT: -5.423043739      2.976      5.600
REMARK  6 active torsions:
REMARK  status: ('A' for Active; 'I' for Inactive)
REMARK       I    between atoms: C1_4  and  N2_5 
REMARK       I    between atoms: C1_4  and  N4_10 
REMARK    1  A    between atoms: N2_5  and  N3_7 
REMARK    2  A    between atoms: N4_10  and  S1_12 
REMARK    3  A    between atoms: S1_12  and  C2_14 
REMARK    4  A    between atoms: C2_14  and  C3_15 
REMARK    5  A    between atoms: C4_19  and  N6_20 
REMARK    6  A    between atoms: C8_31  and  N11_32 
ROOT
HETATM    1  C3  UNL     1      -1.767  11.982   4.814  1.00  0.00     0.343 C 
HETATM    2  N5  UNL     1      -2.819  12.974   4.792  1.00  0.00    -0.002 N 
ATOM      3  H51 UNL     1      -3.716  12.799   4.341  1.00  0.00     0.285 HD
ATOM      4  H52 UNL     1      -2.748  13.823   4.231  1.00  0.00     0.285 HD
HETATM    5  C4  UNL     1      -2.677  12.995   6.236  1.00  0.00     0.455 C 
HETATM    6  O4  UNL     1      -1.452  12.338   6.145  1.00  0.00    -0.308 OA
ENDROOT
BRANCH   5   7
HETATM    7  N6  UNL     1      -2.608  14.343   6.754  1.00  0.00    -0.204 N 
HETATM    8  N7  UNL     1      -2.557  15.525   6.009  1.00  0.00    -0.014 NA
HETATM    9  N8  UNL     1      -3.169  16.473   6.836  1.00  0.00    -0.277 N 
HETATM   10  C5  UNL     1      -2.929  16.092   8.186  1.00  0.00     0.135 A 
ATOM     11  H8  UNL     1      -3.693  17.291   6.527  1.00  0.00     0.184 HD
HETATM   12  C6  UNL     1      -2.578  14.758   8.124  1.00  0.00     0.158 A 
HETATM   13  C8  UNL     1      -2.989  16.779   9.378  1.00  0.00     0.132 A 
HETATM   14  N9  UNL     1      -2.286  14.104   9.257  1.00  0.00    -0.335 N 
HETATM   15  C7  UNL     1      -2.345  14.773  10.423  1.00  0.00     0.183 A 
ATOM     16  H9  UNL     1      -2.025  13.119   9.236  1.00  0.00     0.168 HD
HETATM   17  N10 UNL     1      -2.692  16.092  10.492  1.00  0.00    -0.337 N 
ATOM     18  H10 UNL     1      -2.725  16.559  11.399  1.00  0.00     0.168 HD
BRANCH  13  19
HETATM   19  N11 UNL     1      -3.314  18.022   9.453  1.00  0.00    -0.383 N 
ATOM     20 2H11 UNL     1      -2.700  18.684   9.927  1.00  0.00     0.157 HD
ATOM     21 1H11 UNL     1      -4.176  18.394   9.054  1.00  0.00     0.157 HD
ENDBRANCH  13  19
ENDBRANCH   5   7
BRANCH   1  22
HETATM   22  C2  UNL     1      -0.579  12.287   3.923  1.00  0.00     0.194 C 
BRANCH  22  23
HETATM   23  S1  UNL     1       0.781  12.735   4.971  1.00  0.00     0.132 S 
HETATM   24  O3  UNL     1       2.185  12.674   4.023  1.00  0.00    -0.235 OA
BRANCH  23  25
HETATM   25  N4  UNL     1       0.516  14.354   5.505  1.00  0.00    -0.137 N 
HETATM   26  C1  UNL     1       0.849  14.762   6.826  1.00  0.00     0.703 C 
HETATM   27  N1  UNL     1       0.735  13.881   7.778  1.00  0.00    -0.233 N 
HETATM   28  N2  UNL     1       1.292  16.079   7.122  1.00  0.00    -0.072 N 
ATOM     29  H12 UNL     1       0.974  14.174   8.726  1.00  0.00     0.174 HD
ATOM     30  H11 UNL     1       0.418  12.935   7.566  1.00  0.00     0.174 HD
ATOM     31  H2  UNL     1       2.138  16.438   6.680  1.00  0.00     0.212 HD
ATOM     32  H4  UNL     1       0.112  15.033   4.859  1.00  0.00     0.195 HD
BRANCH  28  33
HETATM   33  N3  UNL     1       0.581  16.886   8.011  1.00  0.00    -0.024 N 
HETATM   34  O1  UNL     1       0.406  16.441   9.182  1.00  0.00    -0.516 OA
HETATM   35  O2  UNL     1       0.092  18.104   7.642  1.00  0.00    -0.516 OA
ENDBRANCH  28  33
ENDBRANCH  23  25
ENDBRANCH  22  23
ENDBRANCH   1  22
TORSDOF 6
ENDMDL
