MODEL 1
REMARK VINA RESULT: -7.180794230      0.000      0.000
REMARK  5 active torsions:
REMARK  status: ('A' for Active; 'I' for Inactive)
REMARK    1  A    between atoms: N1_1  and  N2_4 
REMARK       I    between atoms: C1_6  and  N4_8 
REMARK    2  A    between atoms: N4_8  and  N5_10 
REMARK    3  A    between atoms: N5_10  and  C2_12 
REMARK    4  A    between atoms: C4_19  and  N8_20 
REMARK    5  A    between atoms: N8_20  and  C5_22 
ROOT
HETATM    1  C2  UNL     1       6.787 -13.511   2.949  1.00  0.00     0.715 A 
HETATM    2  N6  UNL     1       7.351 -14.498   2.229  1.00  0.00    -0.139 N 
ATOM      3  H6  UNL     1       8.191 -14.960   2.579  1.00  0.00     0.189 HD
HETATM    4  C3  UNL     1       6.816 -14.886   1.041  1.00  0.00     0.352 A 
HETATM    5  O1  UNL     1       7.344 -15.811   0.363  1.00  0.00    -0.246 OA
HETATM    6  N7  UNL     1       5.712 -14.308   0.537  1.00  0.00    -0.140 N 
ATOM      7  H7  UNL     1       5.315 -14.604  -0.355  1.00  0.00     0.189 HD
HETATM    8  C4  UNL     1       5.154 -13.322   1.261  1.00  0.00     0.703 A 
HETATM    9  N9  UNL     1       5.682 -12.940   2.433  1.00  0.00    -0.020 N 
ATOM     10  H9  UNL     1       5.230 -12.188   2.954  1.00  0.00     0.203 HD
ENDROOT
BRANCH   1  11
HETATM   11  N5  UNL     1       7.298 -13.160   4.057  1.00  0.00    -0.129 N 
ATOM     12  H5  UNL     1       8.296 -13.331   4.176  1.00  0.00     0.205 HD
BRANCH  11  13
HETATM   13  N4  UNL     1       6.642 -12.571   5.113  1.00  0.00    -0.258 N 
HETATM   14  C1  UNL     1       6.831 -11.235   5.561  1.00  0.00     0.222 C 
HETATM   15  N2  UNL     1       7.703 -11.000   6.488  1.00  0.00    -0.279 N 
HETATM   16  N3  UNL     1       6.044 -10.198   4.968  1.00  0.00    -0.061 NA
ATOM     17  H2  UNL     1       8.257 -11.752   6.901  1.00  0.00     0.189 HD
ATOM     18  H4  UNL     1       5.962 -13.140   5.616  1.00  0.00     0.190 HD
BRANCH  15  19
HETATM   19  N1  UNL     1       7.855  -9.672   6.898  1.00  0.00    -0.343 N 
ATOM     20  H12 UNL     1       7.499  -9.365   7.803  1.00  0.00     0.176 HD
ATOM     21  H11 UNL     1       8.331  -9.039   6.255  1.00  0.00     0.176 HD
ENDBRANCH  15  19
ENDBRANCH  11  13
ENDBRANCH   1  11
BRANCH   8  22
HETATM   22  N8  UNL     1       4.084 -12.748   0.795  1.00  0.00    -0.167 N 
ATOM     23  H8  UNL     1       3.510 -13.253   0.119  1.00  0.00     0.186 HD
BRANCH  22  24
HETATM   24  C5  UNL     1       3.690 -11.461   1.186  1.00  0.00     0.368 C 
HETATM   25  O2  UNL     1       4.551 -10.571   1.337  1.00  0.00    -0.283 OA
ENDBRANCH  22  24
ENDBRANCH   8  22
TORSDOF 5
ENDMDL
MODEL 2
REMARK VINA RESULT: -7.122629164      1.422      1.676
REMARK  5 active torsions:
REMARK  status: ('A' for Active; 'I' for Inactive)
REMARK    1  A    between atoms: N1_1  and  N2_4 
REMARK       I    between atoms: C1_6  and  N4_8 
REMARK    2  A    between atoms: N4_8  and  N5_10 
REMARK    3  A    between atoms: N5_10  and  C2_12 
REMARK    4  A    between atoms: C4_19  and  N8_20 
REMARK    5  A    between atoms: N8_20  and  C5_22 
ROOT
HETATM    1  C2  UNL     1       6.310 -14.396   2.783  1.00  0.00     0.715 A 
HETATM    2  N6  UNL     1       6.415 -15.443   1.945  1.00  0.00    -0.139 N 
ATOM      3  H6  UNL     1       7.055 -16.205   2.169  1.00  0.00     0.189 HD
HETATM    4  C3  UNL     1       5.679 -15.498   0.802  1.00  0.00     0.352 A 
HETATM    5  O1  UNL     1       5.777 -16.478   0.014  1.00  0.00    -0.246 OA
HETATM    6  N7  UNL     1       4.823 -14.519   0.463  1.00  0.00    -0.140 N 
ATOM      7  H7  UNL     1       4.274 -14.565  -0.396  1.00  0.00     0.189 HD
HETATM    8  C4  UNL     1       4.723 -13.475   1.305  1.00  0.00     0.703 A 
HETATM    9  N9  UNL     1       5.449 -13.422   2.431  1.00  0.00    -0.020 N 
ATOM     10  H9  UNL     1       5.346 -12.613   3.044  1.00  0.00     0.203 HD
ENDROOT
BRANCH   1  11
HETATM   11  N5  UNL     1       7.003 -14.359   3.846  1.00  0.00    -0.129 N 
ATOM     12  H5  UNL     1       7.187 -15.252   4.305  1.00  0.00     0.205 HD
BRANCH  11  13
HETATM   13  N4  UNL     1       7.531 -13.238   4.442  1.00  0.00    -0.258 N 
HETATM   14  C1  UNL     1       7.269 -11.895   4.055  1.00  0.00     0.222 C 
HETATM   15  N2  UNL     1       8.052 -11.323   3.197  1.00  0.00    -0.279 N 
HETATM   16  N3  UNL     1       6.144 -11.226   4.632  1.00  0.00    -0.061 NA
ATOM     17  H2  UNL     1       8.850 -11.815   2.795  1.00  0.00     0.189 HD
ATOM     18  H4  UNL     1       8.165 -13.381   5.228  1.00  0.00     0.190 HD
BRANCH  15  19
HETATM   19  N1  UNL     1       7.755 -10.003   2.846  1.00  0.00    -0.343 N 
ATOM     20  H12 UNL     1       7.057  -9.473   3.366  1.00  0.00     0.176 HD
ATOM     21  H11 UNL     1       8.265  -9.607   2.056  1.00  0.00     0.176 HD
ENDBRANCH  15  19
ENDBRANCH  11  13
ENDBRANCH   1  11
BRANCH   8  22
HETATM   22  N8  UNL     1       3.901 -12.515   0.998  1.00  0.00    -0.167 N 
ATOM     23  H8  UNL     1       3.054 -12.742   0.476  1.00  0.00     0.186 HD
BRANCH  22  24
HETATM   24  C5  UNL     1       4.134 -11.181   1.357  1.00  0.00     0.368 C 
HETATM   25  O2  UNL     1       5.299 -10.735   1.352  1.00  0.00    -0.283 OA
ENDBRANCH  22  24
ENDBRANCH   8  22
TORSDOF 5
ENDMDL
MODEL 3
REMARK VINA RESULT: -7.113068259      1.559      2.825
REMARK  5 active torsions:
REMARK  status: ('A' for Active; 'I' for Inactive)
REMARK    1  A    between atoms: N1_1  and  N2_4 
REMARK       I    between atoms: C1_6  and  N4_8 
REMARK    2  A    between atoms: N4_8  and  N5_10 
REMARK    3  A    between atoms: N5_10  and  C2_12 
REMARK    4  A    between atoms: C4_19  and  N8_20 
REMARK    5  A    between atoms: N8_20  and  C5_22 
ROOT
HETATM    1  C2  UNL     1       7.334 -12.084   2.977  1.00  0.00     0.715 A 
HETATM    2  N6  UNL     1       6.487 -11.123   2.566  1.00  0.00    -0.139 N 
ATOM      3  H6  UNL     1       6.478 -10.222   3.044  1.00  0.00     0.189 HD
HETATM    4  C3  UNL     1       5.641 -11.340   1.524  1.00  0.00     0.352 A 
HETATM    5  O1  UNL     1       4.844 -10.441   1.137  1.00  0.00    -0.246 OA
HETATM    6  N7  UNL     1       5.614 -12.510   0.863  1.00  0.00    -0.140 N 
ATOM      7  H7  UNL     1       4.977 -12.667   0.081  1.00  0.00     0.189 HD
HETATM    8  C4  UNL     1       6.463 -13.466   1.279  1.00  0.00     0.703 A 
HETATM    9  N9  UNL     1       7.297 -13.252   2.308  1.00  0.00    -0.020 N 
ATOM     10  H9  UNL     1       7.926 -14.002   2.595  1.00  0.00     0.203 HD
ENDROOT
BRANCH   1  11
HETATM   11  N5  UNL     1       8.118 -11.867   3.952  1.00  0.00    -0.129 N 
ATOM     12  H5  UNL     1       9.057 -11.544   3.722  1.00  0.00     0.205 HD
BRANCH  11  13
HETATM   13  N4  UNL     1       7.827 -12.024   5.288  1.00  0.00    -0.258 N 
HETATM   14  C1  UNL     1       7.161 -11.070   6.105  1.00  0.00     0.222 C 
HETATM   15  N2  UNL     1       7.865 -10.208   6.767  1.00  0.00    -0.279 N 
HETATM   16  N3  UNL     1       5.732 -11.102   6.166  1.00  0.00    -0.061 NA
ATOM     17  H2  UNL     1       8.884 -10.199   6.713  1.00  0.00     0.189 HD
ATOM     18  H4  UNL     1       8.114 -12.897   5.729  1.00  0.00     0.190 HD
BRANCH  15  19
HETATM   19  N1  UNL     1       7.168  -9.290   7.558  1.00  0.00    -0.343 N 
ATOM     20  H12 UNL     1       7.325  -9.248   8.565  1.00  0.00     0.176 HD
ATOM     21  H11 UNL     1       6.506  -8.676   7.083  1.00  0.00     0.176 HD
ENDBRANCH  15  19
ENDBRANCH  11  13
ENDBRANCH   1  11
BRANCH   8  22
HETATM   22  N8  UNL     1       6.457 -14.608   0.656  1.00  0.00    -0.167 N 
ATOM     23  H8  UNL     1       7.324 -15.143   0.604  1.00  0.00     0.186 HD
BRANCH  22  24
HETATM   24  C5  UNL     1       5.304 -15.130   0.054  1.00  0.00     0.368 C 
HETATM   25  O2  UNL     1       4.201 -15.011   0.626  1.00  0.00    -0.283 OA
ENDBRANCH  22  24
ENDBRANCH   8  22
TORSDOF 5
ENDMDL
MODEL 4
REMARK VINA RESULT: -7.051518000      2.342      6.172
REMARK  5 active torsions:
REMARK  status: ('A' for Active; 'I' for Inactive)
REMARK    1  A    between atoms: N1_1  and  N2_4 
REMARK       I    between atoms: C1_6  and  N4_8 
REMARK    2  A    between atoms: N4_8  and  N5_10 
REMARK    3  A    between atoms: N5_10  and  C2_12 
REMARK    4  A    between atoms: C4_19  and  N8_20 
REMARK    5  A    between atoms: N8_20  and  C5_22 
ROOT
HETATM    1  C2  UNL     1       6.055 -13.627   1.427  1.00  0.00     0.715 A 
HETATM    2  N6  UNL     1       5.488 -12.516   0.923  1.00  0.00    -0.139 N 
ATOM      3  H6  UNL     1       5.158 -12.513  -0.042  1.00  0.00     0.189 HD
HETATM    4  C3  UNL     1       5.350 -11.397   1.684  1.00  0.00     0.352 A 
HETATM    5  O1  UNL     1       4.819 -10.353   1.214  1.00  0.00    -0.246 OA
HETATM    6  N7  UNL     1       5.770 -11.351   2.960  1.00  0.00    -0.140 N 
ATOM      7  H7  UNL     1       5.664 -10.510   3.526  1.00  0.00     0.189 HD
HETATM    8  C4  UNL     1       6.337 -12.465   3.457  1.00  0.00     0.703 A 
HETATM    9  N9  UNL     1       6.472 -13.568   2.706  1.00  0.00    -0.020 N 
ATOM     10  H9  UNL     1       6.907 -14.393   3.118  1.00  0.00     0.203 HD
ENDROOT
BRANCH   1  11
HETATM   11  N5  UNL     1       6.177 -14.663   0.704  1.00  0.00    -0.129 N 
ATOM     12  H5  UNL     1       6.753 -15.418   1.077  1.00  0.00     0.205 HD
BRANCH  11  13
HETATM   13  N4  UNL     1       5.611 -14.872  -0.533  1.00  0.00    -0.258 N 
HETATM   14  C1  UNL     1       6.263 -15.461  -1.650  1.00  0.00     0.222 C 
HETATM   15  N2  UNL     1       6.873 -14.696  -2.498  1.00  0.00    -0.279 N 
HETATM   16  N3  UNL     1       6.218 -16.884  -1.795  1.00  0.00    -0.061 NA
ATOM     17  H2  UNL     1       6.896 -13.683  -2.380  1.00  0.00     0.189 HD
ATOM     18  H4  UNL     1       4.643 -14.579  -0.659  1.00  0.00     0.190 HD
BRANCH  15  19
HETATM   19  N1  UNL     1       7.500 -15.320  -3.581  1.00  0.00    -0.343 N 
ATOM     20  H12 UNL     1       7.837 -16.279  -3.504  1.00  0.00     0.176 HD
ATOM     21  H11 UNL     1       7.600 -14.773  -4.437  1.00  0.00     0.176 HD
ENDBRANCH  15  19
ENDBRANCH  11  13
ENDBRANCH   1  11
BRANCH   8  22
HETATM   22  N8  UNL     1       6.751 -12.446   4.690  1.00  0.00    -0.167 N 
ATOM     23  H8  UNL     1       6.965 -13.332   5.150  1.00  0.00     0.186 HD
BRANCH  22  24
HETATM   24  C5  UNL     1       6.913 -11.256   5.412  1.00  0.00     0.368 C 
HETATM   25  O2  UNL     1       5.908 -10.644   5.827  1.00  0.00    -0.283 OA
ENDBRANCH  22  24
ENDBRANCH   8  22
TORSDOF 5
ENDMDL
MODEL 5
REMARK VINA RESULT: -7.009750831      2.092      5.709
REMARK  5 active torsions:
REMARK  status: ('A' for Active; 'I' for Inactive)
REMARK    1  A    between atoms: N1_1  and  N2_4 
REMARK       I    between atoms: C1_6  and  N4_8 
REMARK    2  A    between atoms: N4_8  and  N5_10 
REMARK    3  A    between atoms: N5_10  and  C2_12 
REMARK    4  A    between atoms: C4_19  and  N8_20 
REMARK    5  A    between atoms: N8_20  and  C5_22 
ROOT
HETATM    1  C2  UNL     1       6.965 -13.203   2.539  1.00  0.00     0.715 A 
HETATM    2  N6  UNL     1       6.110 -12.477   1.796  1.00  0.00    -0.139 N 
ATOM      3  H6  UNL     1       5.682 -12.894   0.970  1.00  0.00     0.189 HD
HETATM    4  C3  UNL     1       5.811 -11.193   2.132  1.00  0.00     0.352 A 
HETATM    5  O1  UNL     1       5.011 -10.509   1.436  1.00  0.00    -0.246 OA
HETATM    6  N7  UNL     1       6.350 -10.598   3.210  1.00  0.00    -0.140 N 
ATOM      7  H7  UNL     1       6.122  -9.635   3.458  1.00  0.00     0.189 HD
HETATM    8  C4  UNL     1       7.204 -11.330   3.949  1.00  0.00     0.703 A 
HETATM    9  N9  UNL     1       7.498 -12.595   3.616  1.00  0.00    -0.020 N 
ATOM     10  H9  UNL     1       8.151 -13.118   4.201  1.00  0.00     0.203 HD
ENDROOT
BRANCH   1  11
HETATM   11  N5  UNL     1       7.234 -14.399   2.212  1.00  0.00    -0.129 N 
ATOM     12  H5  UNL     1       8.096 -14.794   2.588  1.00  0.00     0.205 HD
BRANCH  11  13
HETATM   13  N4  UNL     1       6.480 -15.218   1.403  1.00  0.00    -0.258 N 
HETATM   14  C1  UNL     1       6.722 -15.464   0.024  1.00  0.00     0.222 C 
HETATM   15  N2  UNL     1       6.140 -14.719  -0.860  1.00  0.00    -0.279 N 
HETATM   16  N3  UNL     1       7.603 -16.534  -0.334  1.00  0.00    -0.061 NA
ATOM     17  H2  UNL     1       5.514 -13.960  -0.588  1.00  0.00     0.189 HD
ATOM     18  H4  UNL     1       5.681 -15.687   1.828  1.00  0.00     0.190 HD
BRANCH  15  19
HETATM   19  N1  UNL     1       6.407 -14.998  -2.204  1.00  0.00    -0.343 N 
ATOM     20  H12 UNL     1       7.342 -14.860  -2.586  1.00  0.00     0.176 HD
ATOM     21  H11 UNL     1       5.631 -15.341  -2.770  1.00  0.00     0.176 HD
ENDBRANCH  15  19
ENDBRANCH  11  13
ENDBRANCH   1  11
BRANCH   8  22
HETATM   22  N8  UNL     1       7.739 -10.777   4.998  1.00  0.00    -0.167 N 
ATOM     23  H8  UNL     1       8.742 -10.590   4.997  1.00  0.00     0.186 HD
BRANCH  22  24
HETATM   24  C5  UNL     1       6.989 -10.428   6.129  1.00  0.00     0.368 C 
HETATM   25  O2  UNL     1       5.811 -10.038   5.993  1.00  0.00    -0.283 OA
ENDBRANCH  22  24
ENDBRANCH   8  22
TORSDOF 5
ENDMDL
