MODEL 1
REMARK VINA RESULT: -8.068673573      0.000      0.000
REMARK  1 active torsions:
REMARK  status: ('A' for Active; 'I' for Inactive)
REMARK    1  A    between atoms: N2_4  and  N3_6 
ROOT
HETATM    1  N3  UNL     1     -15.953   7.549  -1.341  1.00  0.00    -0.257 N 
ATOM      2  H3  UNL     1     -16.676   8.083  -0.857  1.00  0.00     0.191 HD
HETATM    3  C1  UNL     1     -15.930   6.272  -1.198  1.00  0.00     0.201 C 
HETATM    4  N4  UNL     1     -16.816   5.481  -0.423  1.00  0.00    -0.293 N 
ATOM      5  H4  UNL     1     -17.596   5.839   0.127  1.00  0.00     0.172 HD
HETATM    6  C2  UNL     1     -16.449   4.110  -0.531  1.00  0.00     0.284 C 
HETATM    7  O1  UNL     1     -16.883   3.176   0.180  1.00  0.00    -0.268 OA
HETATM    8  C3  UNL     1     -15.478   4.007  -1.620  1.00  0.00     0.276 C 
HETATM    9  N5  UNL     1     -16.166   3.530  -2.806  1.00  0.00    -0.300 N 
ATOM     10  H5  UNL     1     -17.112   3.779  -3.093  1.00  0.00     0.167 HD
HETATM   11  C4  UNL     1     -15.296   2.665  -3.487  1.00  0.00     0.325 C 
HETATM   12  O2  UNL     1     -15.491   2.255  -4.683  1.00  0.00    -0.247 OA
HETATM   13  N6  UNL     1     -14.212   2.349  -2.635  1.00  0.00    -0.275 N 
ATOM     14  H6  UNL     1     -13.424   1.742  -2.861  1.00  0.00     0.173 HD
HETATM   15  C5  UNL     1     -14.420   3.031  -1.410  1.00  0.00     0.285 C 
HETATM   16  O3  UNL     1     -13.777   2.793  -0.369  1.00  0.00    -0.268 OA
HETATM   17  N7  UNL     1     -15.011   5.367  -1.785  1.00  0.00    -0.318 N 
ATOM     18  H7  UNL     1     -14.146   5.635  -2.256  1.00  0.00     0.166 HD
ENDROOT
BRANCH   1  19
HETATM   19  N2  UNL     1     -15.028   8.236  -2.133  1.00  0.00    -0.247 N 
HETATM   20  N1  UNL     1     -14.290   9.080  -1.529  1.00  0.00    -0.331 N 
ATOM     21  H12 UNL     1     -14.381   9.234  -0.525  1.00  0.00     0.178 HD
ATOM     22  H11 UNL     1     -13.615   9.582  -2.107  1.00  0.00     0.178 HD
ATOM     23  H2  UNL     1     -14.949   8.071  -3.137  1.00  0.00     0.207 HD
ENDBRANCH   1  19
TORSDOF 1
ENDMDL
MODEL 2
REMARK VINA RESULT: -7.527285925      2.720      3.752
REMARK  1 active torsions:
REMARK  status: ('A' for Active; 'I' for Inactive)
REMARK    1  A    between atoms: N2_4  and  N3_6 
ROOT
HETATM    1  N3  UNL     1     -15.433   7.595   2.384  1.00  0.00    -0.257 N 
ATOM      2  H3  UNL     1     -15.212   8.591   2.387  1.00  0.00     0.191 HD
HETATM    3  C1  UNL     1     -15.644   7.013   1.257  1.00  0.00     0.201 C 
HETATM    4  N4  UNL     1     -15.605   7.605  -0.032  1.00  0.00    -0.293 N 
ATOM      5  H4  UNL     1     -15.402   8.586  -0.224  1.00  0.00     0.172 HD
HETATM    6  C2  UNL     1     -15.895   6.619  -1.017  1.00  0.00     0.284 C 
HETATM    7  O1  UNL     1     -16.147   6.839  -2.223  1.00  0.00    -0.268 OA
HETATM    8  C3  UNL     1     -15.841   5.317  -0.354  1.00  0.00     0.276 C 
HETATM    9  N5  UNL     1     -14.561   4.701  -0.651  1.00  0.00    -0.300 N 
ATOM     10  H5  UNL     1     -13.666   5.183  -0.728  1.00  0.00     0.167 HD
HETATM   11  C4  UNL     1     -14.775   3.324  -0.813  1.00  0.00     0.325 C 
HETATM   12  O2  UNL     1     -13.837   2.456  -0.850  1.00  0.00    -0.247 OA
HETATM   13  N6  UNL     1     -16.166   3.091  -0.922  1.00  0.00    -0.275 N 
ATOM     14  H6  UNL     1     -16.619   2.185  -1.046  1.00  0.00     0.173 HD
HETATM   15  C5  UNL     1     -16.817   4.346  -0.826  1.00  0.00     0.285 C 
HETATM   16  O3  UNL     1     -18.018   4.526  -1.109  1.00  0.00    -0.268 OA
HETATM   17  N7  UNL     1     -15.961   5.648   1.050  1.00  0.00    -0.318 N 
ATOM     18  H7  UNL     1     -16.234   4.993   1.784  1.00  0.00     0.166 HD
ENDROOT
BRANCH   1  19
HETATM   19  N2  UNL     1     -15.495   6.916   3.605  1.00  0.00    -0.247 N 
HETATM   20  N1  UNL     1     -14.692   7.317   4.509  1.00  0.00    -0.331 N 
ATOM     21  H12 UNL     1     -14.049   8.089   4.337  1.00  0.00     0.178 HD
ATOM     22  H11 UNL     1     -14.737   6.822   5.401  1.00  0.00     0.178 HD
ATOM     23  H2  UNL     1     -16.144   6.146   3.763  1.00  0.00     0.207 HD
ENDBRANCH   1  19
TORSDOF 1
ENDMDL
MODEL 3
REMARK VINA RESULT: -7.401828998      2.275      4.635
REMARK  1 active torsions:
REMARK  status: ('A' for Active; 'I' for Inactive)
REMARK    1  A    between atoms: N2_4  and  N3_6 
ROOT
HETATM    1  N3  UNL     1     -14.465   2.260  -3.552  1.00  0.00    -0.257 N 
ATOM      2  H3  UNL     1     -13.572   1.772  -3.621  1.00  0.00     0.191 HD
HETATM    3  C1  UNL     1     -14.845   2.692  -2.402  1.00  0.00     0.201 C 
HETATM    4  N4  UNL     1     -14.152   2.570  -1.170  1.00  0.00    -0.293 N 
ATOM      5  H4  UNL     1     -13.248   2.115  -1.046  1.00  0.00     0.172 HD
HETATM    6  C2  UNL     1     -14.911   3.182  -0.134  1.00  0.00     0.284 C 
HETATM    7  O1  UNL     1     -14.697   3.075   1.094  1.00  0.00    -0.268 OA
HETATM    8  C3  UNL     1     -15.978   3.950  -0.776  1.00  0.00     0.276 C 
HETATM    9  N5  UNL     1     -15.587   5.348  -0.803  1.00  0.00    -0.300 N 
ATOM     10  H5  UNL     1     -14.644   5.705  -0.958  1.00  0.00     0.167 HD
HETATM   11  C4  UNL     1     -16.737   6.119  -0.579  1.00  0.00     0.325 C 
HETATM   12  O2  UNL     1     -16.796   7.382  -0.769  1.00  0.00    -0.247 OA
HETATM   13  N6  UNL     1     -17.771   5.269  -0.121  1.00  0.00    -0.275 N 
ATOM     14  H6  UNL     1     -18.721   5.551   0.122  1.00  0.00     0.173 HD
HETATM   15  C5  UNL     1     -17.247   3.953  -0.064  1.00  0.00     0.285 C 
HETATM   16  O3  UNL     1     -17.819   3.006   0.510  1.00  0.00    -0.268 OA
HETATM   17  N7  UNL     1     -16.044   3.389  -2.108  1.00  0.00    -0.318 N 
ATOM     18  H7  UNL     1     -16.837   3.481  -2.743  1.00  0.00     0.166 HD
ENDROOT
BRANCH   1  19
HETATM   19  N2  UNL     1     -15.227   2.434  -4.712  1.00  0.00    -0.247 N 
HETATM   20  N1  UNL     1     -14.855   1.768  -5.731  1.00  0.00    -0.331 N 
ATOM     21  H12 UNL     1     -14.046   1.148  -5.688  1.00  0.00     0.178 HD
ATOM     22  H11 UNL     1     -15.411   1.895  -6.578  1.00  0.00     0.178 HD
ATOM     23  H2  UNL     1     -16.034   3.058  -4.739  1.00  0.00     0.207 HD
ENDBRANCH   1  19
TORSDOF 1
ENDMDL
MODEL 4
REMARK VINA RESULT: -7.036648771      3.240      4.523
REMARK  1 active torsions:
REMARK  status: ('A' for Active; 'I' for Inactive)
REMARK    1  A    between atoms: N2_4  and  N3_6 
ROOT
HETATM    1  N3  UNL     1     -14.835   8.196   2.884  1.00  0.00    -0.257 N 
ATOM      2  H3  UNL     1     -14.174   8.965   2.775  1.00  0.00     0.191 HD
HETATM    3  C1  UNL     1     -15.262   7.594   1.831  1.00  0.00     0.201 C 
HETATM    4  N4  UNL     1     -14.914   7.877   0.485  1.00  0.00    -0.293 N 
ATOM      5  H4  UNL     1     -14.270   8.607   0.184  1.00  0.00     0.172 HD
HETATM    6  C2  UNL     1     -15.603   6.982  -0.382  1.00  0.00     0.284 C 
HETATM    7  O1  UNL     1     -15.688   7.087  -1.626  1.00  0.00    -0.268 OA
HETATM    8  C3  UNL     1     -16.184   5.933   0.454  1.00  0.00     0.276 C 
HETATM    9  N5  UNL     1     -15.334   4.759   0.378  1.00  0.00    -0.300 N 
ATOM     10  H5  UNL     1     -14.315   4.757   0.329  1.00  0.00     0.167 HD
HETATM   11  C4  UNL     1     -16.163   3.628   0.383  1.00  0.00     0.325 C 
HETATM   12  O2  UNL     1     -15.740   2.434   0.562  1.00  0.00    -0.247 OA
HETATM   13  N6  UNL     1     -17.498   4.043   0.162  1.00  0.00    -0.275 N 
ATOM     14  H6  UNL     1     -18.318   3.438   0.116  1.00  0.00     0.173 HD
HETATM   15  C5  UNL     1     -17.487   5.452   0.019  1.00  0.00     0.285 C 
HETATM   16  O3  UNL     1     -18.456   6.111  -0.409  1.00  0.00    -0.268 OA
HETATM   17  N7  UNL     1     -16.176   6.513   1.780  1.00  0.00    -0.318 N 
ATOM     18  H7  UNL     1     -16.744   6.190   2.563  1.00  0.00     0.166 HD
ENDROOT
BRANCH   1  19
HETATM   19  N2  UNL     1     -15.243   7.837   4.173  1.00  0.00    -0.247 N 
HETATM   20  N1  UNL     1     -14.337   7.367   4.936  1.00  0.00    -0.331 N 
ATOM     21  H12 UNL     1     -13.376   7.264   4.610  1.00  0.00     0.178 HD
ATOM     22  H11 UNL     1     -14.634   7.105   5.876  1.00  0.00     0.178 HD
ATOM     23  H2  UNL     1     -16.208   7.946   4.485  1.00  0.00     0.207 HD
ENDBRANCH   1  19
TORSDOF 1
ENDMDL
MODEL 5
REMARK VINA RESULT: -7.023924124      2.150      4.656
REMARK  1 active torsions:
REMARK  status: ('A' for Active; 'I' for Inactive)
REMARK    1  A    between atoms: N2_4  and  N3_6 
ROOT
HETATM    1  N3  UNL     1     -14.659   2.205  -3.596  1.00  0.00    -0.257 N 
ATOM      2  H3  UNL     1     -13.981   1.458  -3.448  1.00  0.00     0.191 HD
HETATM    3  C1  UNL     1     -14.988   2.947  -2.598  1.00  0.00     0.201 C 
HETATM    4  N4  UNL     1     -14.507   2.852  -1.267  1.00  0.00    -0.293 N 
ATOM      5  H4  UNL     1     -13.827   2.169  -0.934  1.00  0.00     0.172 HD
HETATM    6  C2  UNL     1     -15.119   3.858  -0.467  1.00  0.00     0.284 C 
HETATM    7  O1  UNL     1     -15.081   3.926   0.782  1.00  0.00    -0.268 OA
HETATM    8  C3  UNL     1     -15.793   4.783  -1.377  1.00  0.00     0.276 C 
HETATM    9  N5  UNL     1     -14.954   5.955  -1.547  1.00  0.00    -0.300 N 
ATOM     10  H5  UNL     1     -13.935   5.963  -1.600  1.00  0.00     0.167 HD
HETATM   11  C4  UNL     1     -15.794   7.076  -1.626  1.00  0.00     0.325 C 
HETATM   12  O2  UNL     1     -15.404   8.233  -2.007  1.00  0.00    -0.247 OA
HETATM   13  N6  UNL     1     -17.095   6.697  -1.220  1.00  0.00    -0.275 N 
ATOM     14  H6  UNL     1     -17.914   7.303  -1.176  1.00  0.00     0.173 HD
HETATM   15  C5  UNL     1     -17.053   5.320  -0.887  1.00  0.00     0.285 C 
HETATM   16  O3  UNL     1     -17.966   4.728  -0.279  1.00  0.00    -0.268 OA
HETATM   17  N7  UNL     1     -15.906   4.026  -2.606  1.00  0.00    -0.318 N 
ATOM     18  H7  UNL     1     -16.552   4.239  -3.366  1.00  0.00     0.166 HD
ENDROOT
BRANCH   1  19
HETATM   19  N2  UNL     1     -15.195   2.383  -4.876  1.00  0.00    -0.247 N 
HETATM   20  N1  UNL     1     -14.676   1.681  -5.803  1.00  0.00    -0.331 N 
ATOM     21  H12 UNL     1     -13.914   1.032  -5.607  1.00  0.00     0.178 HD
ATOM     22  H11 UNL     1     -15.066   1.811  -6.736  1.00  0.00     0.178 HD
ATOM     23  H2  UNL     1     -15.956   3.037  -5.056  1.00  0.00     0.207 HD
ENDBRANCH   1  19
TORSDOF 1
ENDMDL
