MODEL 1
REMARK VINA RESULT: -6.565484237      0.000      0.000
REMARK  10 active torsions:
REMARK  status: ('A' for Active; 'I' for Inactive)
REMARK    1  A    between atoms: C2_2  and  C4_4 
REMARK    2  A    between atoms: C4_4  and  C5_5 
REMARK    3  A    between atoms: C5_5  and  O1_6 
REMARK    4  A    between atoms: C5_5  and  C17_30 
REMARK    5  A    between atoms: O1_6  and  C6_7 
REMARK    6  A    between atoms: C9_10  and  N1_11 
REMARK       I    between atoms: N1_11  and  C10_13 
REMARK       I    between atoms: C10_13  and  N2_15 
REMARK    7  A    between atoms: N2_15  and  C11_17 
REMARK    8  A    between atoms: C11_17  and  O3_18 
REMARK    9  A    between atoms: C11_17  and  C12_20 
REMARK   10  A    between atoms: C12_20  and  N3_21 
ROOT
HETATM    1  C6  UNL     1      28.207  41.903  19.824  1.00  0.00     0.124 C 
HETATM    2  C7  UNL     1      28.759  42.674  20.992  1.00  0.00     0.034 C 
HETATM    3  C8  UNL     1      30.146  42.377  21.382  1.00  0.00     0.029 C 
HETATM    4  C9  UNL     1      31.063  41.984  20.257  1.00  0.00     0.108 C 
HETATM    5  C13 UNL     1      30.470  40.892  19.431  1.00  0.00     0.068 C 
HETATM    6  C14 UNL     1      30.060  39.689  20.216  1.00  0.00     0.033 C 
HETATM    7  C15 UNL     1      31.361  40.556  18.321  1.00  0.00     0.071 C 
HETATM    8  N4  UNL     1      32.077  40.278  17.454  1.00  0.00    -0.196 NA
HETATM    9  C16 UNL     1      29.213  41.516  18.811  1.00  0.00     0.058 C 
ENDROOT
BRANCH   4  10
HETATM   10  N1  UNL     1      32.375  41.644  20.808  1.00  0.00    -0.337 N 
HETATM   11  C10 UNL     1      33.264  42.612  21.289  1.00  0.00     0.322 C 
HETATM   12  O2  UNL     1      32.828  43.823  21.203  1.00  0.00    -0.247 OA
HETATM   13  N2  UNL     1      34.521  42.415  21.828  1.00  0.00    -0.291 N 
ATOM     14  H2  UNL     1      34.984  43.279  22.110  1.00  0.00     0.172 HD
ATOM     15  H1  UNL     1      32.653  40.663  20.844  1.00  0.00     0.164 HD
BRANCH  13  16
HETATM   16  C11 UNL     1      35.284  41.272  22.064  1.00  0.00     0.145 C 
BRANCH  16  17
HETATM   17  O3  UNL     1      34.684  40.118  22.080  1.00  0.00    -0.348 OA
ATOM     18  H3  UNL     1      35.191  39.347  22.304  1.00  0.00     0.219 HD
ENDBRANCH  16  17
BRANCH  16  19
HETATM   19  C12 UNL     1      36.731  41.177  22.310  1.00  0.00     0.313 C 
BRANCH  19  20
HETATM   20  N3  UNL     1      37.397  42.484  22.219  1.00  0.00    -0.072 N 
ATOM     21  H33 UNL     1      37.087  43.108  22.964  1.00  0.00     0.274 HD
ATOM     22  H32 UNL     1      38.383  42.413  22.466  1.00  0.00     0.274 HD
ATOM     23  H31 UNL     1      37.276  42.914  21.302  1.00  0.00     0.274 HD
ENDBRANCH  19  20
ENDBRANCH  16  19
ENDBRANCH  13  16
ENDBRANCH   4  10
BRANCH   1  24
HETATM   24  O1  UNL     1      27.211  42.658  19.205  1.00  0.00    -0.371 OA
BRANCH  24  25
HETATM   25  C5  UNL     1      26.930  42.248  17.917  1.00  0.00     0.211 C 
BRANCH  25  26
HETATM   26  C4  UNL     1      26.970  43.361  16.937  1.00  0.00     0.045 C 
BRANCH  26  27
HETATM   27  C2  UNL     1      27.569  44.649  17.412  1.00  0.00    -0.020 C 
HETATM   28  C1  UNL     1      28.401  45.282  16.299  1.00  0.00     0.009 C 
HETATM   29  C3  UNL     1      26.478  45.658  17.758  1.00  0.00     0.009 C 
ENDBRANCH  26  27
ENDBRANCH  25  26
BRANCH  25  30
HETATM   30  C17 UNL     1      25.497  41.760  17.927  1.00  0.00     0.260 C 
HETATM   31  N5  UNL     1      24.477  42.535  18.521  1.00  0.00    -0.060 NA
HETATM   32  O4  UNL     1      25.315  40.643  17.377  1.00  0.00    -0.274 OA
ENDBRANCH  25  30
ENDBRANCH  24  25
ENDBRANCH   1  24
TORSDOF 10
ENDMDL
MODEL 2
REMARK VINA RESULT: -6.303811571      1.495      1.745
REMARK  10 active torsions:
REMARK  status: ('A' for Active; 'I' for Inactive)
REMARK    1  A    between atoms: C2_2  and  C4_4 
REMARK    2  A    between atoms: C4_4  and  C5_5 
REMARK    3  A    between atoms: C5_5  and  O1_6 
REMARK    4  A    between atoms: C5_5  and  C17_30 
REMARK    5  A    between atoms: O1_6  and  C6_7 
REMARK    6  A    between atoms: C9_10  and  N1_11 
REMARK       I    between atoms: N1_11  and  C10_13 
REMARK       I    between atoms: C10_13  and  N2_15 
REMARK    7  A    between atoms: N2_15  and  C11_17 
REMARK    8  A    between atoms: C11_17  and  O3_18 
REMARK    9  A    between atoms: C11_17  and  C12_20 
REMARK   10  A    between atoms: C12_20  and  N3_21 
ROOT
HETATM    1  C6  UNL     1      28.211  41.913  19.576  1.00  0.00     0.124 C 
HETATM    2  C7  UNL     1      28.730  42.689  20.755  1.00  0.00     0.034 C 
HETATM    3  C8  UNL     1      30.105  42.392  21.187  1.00  0.00     0.029 C 
HETATM    4  C9  UNL     1      31.053  41.991  20.091  1.00  0.00     0.108 C 
HETATM    5  C13 UNL     1      30.483  40.896  19.255  1.00  0.00     0.068 C 
HETATM    6  C14 UNL     1      30.048  39.697  20.034  1.00  0.00     0.033 C 
HETATM    7  C15 UNL     1      31.405  40.552  18.173  1.00  0.00     0.071 C 
HETATM    8  N4  UNL     1      32.146  40.269  17.329  1.00  0.00    -0.196 NA
HETATM    9  C16 UNL     1      29.246  41.518  18.595  1.00  0.00     0.058 C 
ENDROOT
BRANCH   4  10
HETATM   10  N1  UNL     1      32.348  41.652  20.683  1.00  0.00    -0.337 N 
HETATM   11  C10 UNL     1      33.212  42.620  21.208  1.00  0.00     0.322 C 
HETATM   12  O2  UNL     1      32.769  43.828  21.126  1.00  0.00    -0.247 OA
HETATM   13  N2  UNL     1      34.451  42.423  21.788  1.00  0.00    -0.291 N 
ATOM     14  H2  UNL     1      34.897  43.286  22.099  1.00  0.00     0.172 HD
ATOM     15  H1  UNL     1      32.632  40.673  20.713  1.00  0.00     0.164 HD
BRANCH  13  16
HETATM   16  C11 UNL     1      35.214  41.282  22.033  1.00  0.00     0.145 C 
BRANCH  16  17
HETATM   17  O3  UNL     1      34.618  40.126  22.035  1.00  0.00    -0.348 OA
ATOM     18  H3  UNL     1      33.775  40.052  22.466  1.00  0.00     0.219 HD
ENDBRANCH  16  17
BRANCH  16  19
HETATM   19  C12 UNL     1      36.658  41.192  22.303  1.00  0.00     0.313 C 
BRANCH  19  20
HETATM   20  N3  UNL     1      37.321  42.500  22.220  1.00  0.00    -0.072 N 
ATOM     21  H33 UNL     1      37.013  43.018  21.396  1.00  0.00     0.274 HD
ATOM     22  H32 UNL     1      36.982  43.132  22.944  1.00  0.00     0.274 HD
ATOM     23  H31 UNL     1      38.337  42.419  22.247  1.00  0.00     0.274 HD
ENDBRANCH  19  20
ENDBRANCH  16  19
ENDBRANCH  13  16
ENDBRANCH   4  10
BRANCH   1  24
HETATM   24  O1  UNL     1      27.235  42.665  18.924  1.00  0.00    -0.371 OA
BRANCH  24  25
HETATM   25  C5  UNL     1      25.966  42.130  19.027  1.00  0.00     0.211 C 
BRANCH  25  26
HETATM   26  C4  UNL     1      25.498  41.508  17.765  1.00  0.00     0.045 C 
BRANCH  26  27
HETATM   27  C2  UNL     1      26.093  42.039  16.498  1.00  0.00    -0.020 C 
HETATM   28  C1  UNL     1      26.874  40.938  15.784  1.00  0.00     0.009 C 
HETATM   29  C3  UNL     1      24.999  42.483  15.531  1.00  0.00     0.009 C 
ENDBRANCH  26  27
ENDBRANCH  25  26
BRANCH  25  30
HETATM   30  C17 UNL     1      25.032  43.294  19.283  1.00  0.00     0.260 C 
HETATM   31  N5  UNL     1      25.495  44.461  19.928  1.00  0.00    -0.060 NA
HETATM   32  O4  UNL     1      23.852  43.124  18.880  1.00  0.00    -0.274 OA
ENDBRANCH  25  30
ENDBRANCH  24  25
ENDBRANCH   1  24
TORSDOF 10
ENDMDL
MODEL 3
REMARK VINA RESULT: -6.253193623      3.499      5.424
REMARK  10 active torsions:
REMARK  status: ('A' for Active; 'I' for Inactive)
REMARK    1  A    between atoms: C2_2  and  C4_4 
REMARK    2  A    between atoms: C4_4  and  C5_5 
REMARK    3  A    between atoms: C5_5  and  O1_6 
REMARK    4  A    between atoms: C5_5  and  C17_30 
REMARK    5  A    between atoms: O1_6  and  C6_7 
REMARK    6  A    between atoms: C9_10  and  N1_11 
REMARK       I    between atoms: N1_11  and  C10_13 
REMARK       I    between atoms: C10_13  and  N2_15 
REMARK    7  A    between atoms: N2_15  and  C11_17 
REMARK    8  A    between atoms: C11_17  and  O3_18 
REMARK    9  A    between atoms: C11_17  and  C12_20 
REMARK   10  A    between atoms: C12_20  and  N3_21 
ROOT
HETATM    1  C6  UNL     1      29.458  40.353  16.128  1.00  0.00     0.124 C 
HETATM    2  C7  UNL     1      30.570  39.719  16.919  1.00  0.00     0.034 C 
HETATM    3  C8  UNL     1      30.892  40.335  18.216  1.00  0.00     0.029 C 
HETATM    4  C9  UNL     1      29.731  40.955  18.941  1.00  0.00     0.108 C 
HETATM    5  C13 UNL     1      28.972  41.886  18.056  1.00  0.00     0.068 C 
HETATM    6  C14 UNL     1      29.814  42.942  17.418  1.00  0.00     0.033 C 
HETATM    7  C15 UNL     1      27.825  42.445  18.772  1.00  0.00     0.071 C 
HETATM    8  N4  UNL     1      26.930  42.900  19.347  1.00  0.00    -0.196 NA
HETATM    9  C16 UNL     1      28.404  40.987  16.950  1.00  0.00     0.058 C 
ENDROOT
BRANCH   4  10
HETATM   10  N1  UNL     1      30.219  41.592  20.165  1.00  0.00    -0.337 N 
HETATM   11  C10 UNL     1      29.807  41.188  21.440  1.00  0.00     0.322 C 
HETATM   12  O2  UNL     1      28.965  40.212  21.442  1.00  0.00    -0.247 OA
HETATM   13  N2  UNL     1      30.196  41.709  22.660  1.00  0.00    -0.291 N 
ATOM     14  H2  UNL     1      29.758  41.249  23.458  1.00  0.00     0.172 HD
ATOM     15  H1  UNL     1      30.886  42.360  20.085  1.00  0.00     0.164 HD
BRANCH  13  16
HETATM   16  C11 UNL     1      31.066  42.738  23.019  1.00  0.00     0.145 C 
BRANCH  16  17
HETATM   17  O3  UNL     1      30.604  43.719  23.738  1.00  0.00    -0.348 OA
ATOM     18  H3  UNL     1      31.101  43.998  24.498  1.00  0.00     0.219 HD
ENDBRANCH  16  17
BRANCH  16  19
HETATM   19  C12 UNL     1      32.492  42.882  22.689  1.00  0.00     0.313 C 
BRANCH  19  20
HETATM   20  N3  UNL     1      33.206  41.599  22.743  1.00  0.00    -0.072 N 
ATOM     21  H33 UNL     1      32.720  40.931  23.341  1.00  0.00     0.274 HD
ATOM     22  H32 UNL     1      33.139  41.102  21.855  1.00  0.00     0.274 HD
ATOM     23  H31 UNL     1      34.178  41.711  23.029  1.00  0.00     0.274 HD
ENDBRANCH  19  20
ENDBRANCH  16  19
ENDBRANCH  13  16
ENDBRANCH   4  10
BRANCH   1  24
HETATM   24  O1  UNL     1      28.872  39.391  15.307  1.00  0.00    -0.371 OA
BRANCH  24  25
HETATM   25  C5  UNL     1      29.782  38.705  14.526  1.00  0.00     0.211 C 
BRANCH  25  26
HETATM   26  C4  UNL     1      30.148  39.437  13.289  1.00  0.00     0.045 C 
BRANCH  26  27
HETATM   27  C2  UNL     1      31.606  39.710  13.082  1.00  0.00    -0.020 C 
HETATM   28  C1  UNL     1      31.949  41.116  13.570  1.00  0.00     0.009 C 
HETATM   29  C3  UNL     1      32.458  38.750  13.907  1.00  0.00     0.009 C 
ENDBRANCH  26  27
ENDBRANCH  25  26
BRANCH  25  30
HETATM   30  C17 UNL     1      29.083  37.443  14.067  1.00  0.00     0.260 C 
HETATM   31  N5  UNL     1      29.762  36.205  14.060  1.00  0.00    -0.060 NA
HETATM   32  O4  UNL     1      27.887  37.601  13.707  1.00  0.00    -0.274 OA
ENDBRANCH  25  30
ENDBRANCH  24  25
ENDBRANCH   1  24
TORSDOF 10
ENDMDL
MODEL 4
REMARK VINA RESULT: -6.234711183      3.687      5.126
REMARK  10 active torsions:
REMARK  status: ('A' for Active; 'I' for Inactive)
REMARK    1  A    between atoms: C2_2  and  C4_4 
REMARK    2  A    between atoms: C4_4  and  C5_5 
REMARK    3  A    between atoms: C5_5  and  O1_6 
REMARK    4  A    between atoms: C5_5  and  C17_30 
REMARK    5  A    between atoms: O1_6  and  C6_7 
REMARK    6  A    between atoms: C9_10  and  N1_11 
REMARK       I    between atoms: N1_11  and  C10_13 
REMARK       I    between atoms: C10_13  and  N2_15 
REMARK    7  A    between atoms: N2_15  and  C11_17 
REMARK    8  A    between atoms: C11_17  and  O3_18 
REMARK    9  A    between atoms: C11_17  and  C12_20 
REMARK   10  A    between atoms: C12_20  and  N3_21 
ROOT
HETATM    1  C6  UNL     1      29.067  40.562  16.003  1.00  0.00     0.124 C 
HETATM    2  C7  UNL     1      30.286  39.800  16.446  1.00  0.00     0.034 C 
HETATM    3  C8  UNL     1      30.897  40.214  17.719  1.00  0.00     0.029 C 
HETATM    4  C9  UNL     1      29.939  40.742  18.752  1.00  0.00     0.108 C 
HETATM    5  C13 UNL     1      29.060  41.804  18.184  1.00  0.00     0.068 C 
HETATM    6  C14 UNL     1      29.802  42.928  17.537  1.00  0.00     0.033 C 
HETATM    7  C15 UNL     1      28.112  42.272  19.195  1.00  0.00     0.071 C 
HETATM    8  N4  UNL     1      27.377  42.654  20.003  1.00  0.00    -0.196 NA
HETATM    9  C16 UNL     1      28.235  41.087  17.107  1.00  0.00     0.058 C 
ENDROOT
BRANCH   4  10
HETATM   10  N1  UNL     1      30.699  41.184  19.923  1.00  0.00    -0.337 N 
HETATM   11  C10 UNL     1      30.551  40.594  21.183  1.00  0.00     0.322 C 
HETATM   12  O2  UNL     1      29.694  39.631  21.222  1.00  0.00    -0.247 OA
HETATM   13  N2  UNL     1      31.207  40.922  22.354  1.00  0.00    -0.291 N 
ATOM     14  H2  UNL     1      30.932  40.348  23.150  1.00  0.00     0.172 HD
ATOM     15  H1  UNL     1      31.360  41.953  19.815  1.00  0.00     0.164 HD
BRANCH  13  16
HETATM   16  C11 UNL     1      32.170  41.882  22.665  1.00  0.00     0.145 C 
BRANCH  16  17
HETATM   17  O3  UNL     1      33.341  41.480  23.062  1.00  0.00    -0.348 OA
ATOM     18  H3  UNL     1      34.052  42.110  23.089  1.00  0.00     0.219 HD
ENDBRANCH  16  17
BRANCH  16  19
HETATM   19  C12 UNL     1      32.047  43.347  22.608  1.00  0.00     0.313 C 
BRANCH  19  20
HETATM   20  N3  UNL     1      30.767  43.819  23.154  1.00  0.00    -0.072 N 
ATOM     21  H33 UNL     1      30.094  43.056  23.225  1.00  0.00     0.274 HD
ATOM     22  H32 UNL     1      30.852  44.054  24.142  1.00  0.00     0.274 HD
ATOM     23  H31 UNL     1      30.386  44.600  22.620  1.00  0.00     0.274 HD
ENDBRANCH  19  20
ENDBRANCH  16  19
ENDBRANCH  13  16
ENDBRANCH   4  10
BRANCH   1  24
HETATM   24  O1  UNL     1      28.280  39.740  15.197  1.00  0.00    -0.371 OA
BRANCH  24  25
HETATM   25  C5  UNL     1      28.975  39.168  14.150  1.00  0.00     0.211 C 
BRANCH  25  26
HETATM   26  C4  UNL     1      29.066  40.054  12.964  1.00  0.00     0.045 C 
BRANCH  26  27
HETATM   27  C2  UNL     1      30.445  40.401  12.494  1.00  0.00    -0.020 C 
HETATM   28  C1  UNL     1      30.880  41.739  13.089  1.00  0.00     0.009 C 
HETATM   29  C3  UNL     1      31.458  39.368  12.979  1.00  0.00     0.009 C 
ENDBRANCH  26  27
ENDBRANCH  25  26
BRANCH  25  30
HETATM   30  C17 UNL     1      28.164  37.969  13.706  1.00  0.00     0.260 C 
HETATM   31  N5  UNL     1      28.799  36.747  13.390  1.00  0.00    -0.060 NA
HETATM   32  O4  UNL     1      26.922  38.161  13.649  1.00  0.00    -0.274 OA
ENDBRANCH  25  30
ENDBRANCH  24  25
ENDBRANCH   1  24
TORSDOF 10
ENDMDL
MODEL 5
REMARK VINA RESULT: -6.230583915      2.044      3.140
REMARK  10 active torsions:
REMARK  status: ('A' for Active; 'I' for Inactive)
REMARK    1  A    between atoms: C2_2  and  C4_4 
REMARK    2  A    between atoms: C4_4  and  C5_5 
REMARK    3  A    between atoms: C5_5  and  O1_6 
REMARK    4  A    between atoms: C5_5  and  C17_30 
REMARK    5  A    between atoms: O1_6  and  C6_7 
REMARK    6  A    between atoms: C9_10  and  N1_11 
REMARK       I    between atoms: N1_11  and  C10_13 
REMARK       I    between atoms: C10_13  and  N2_15 
REMARK    7  A    between atoms: N2_15  and  C11_17 
REMARK    8  A    between atoms: C11_17  and  O3_18 
REMARK    9  A    between atoms: C11_17  and  C12_20 
REMARK   10  A    between atoms: C12_20  and  N3_21 
ROOT
HETATM    1  C6  UNL     1      26.920  42.101  17.777  1.00  0.00     0.124 C 
HETATM    2  C7  UNL     1      28.094  42.706  17.057  1.00  0.00     0.034 C 
HETATM    3  C8  UNL     1      29.347  42.823  17.819  1.00  0.00     0.029 C 
HETATM    4  C9  UNL     1      29.583  41.746  18.841  1.00  0.00     0.108 C 
HETATM    5  C13 UNL     1      28.401  41.578  19.735  1.00  0.00     0.068 C 
HETATM    6  C14 UNL     1      27.955  42.840  20.399  1.00  0.00     0.033 C 
HETATM    7  C15 UNL     1      28.639  40.499  20.694  1.00  0.00     0.071 C 
HETATM    8  N4  UNL     1      28.838  39.658  21.464  1.00  0.00    -0.196 NA
HETATM    9  C16 UNL     1      27.278  41.100  18.805  1.00  0.00     0.058 C 
ENDROOT
BRANCH   4  10
HETATM   10  N1  UNL     1      30.819  42.041  19.567  1.00  0.00    -0.337 N 
HETATM   11  C10 UNL     1      32.008  41.336  19.347  1.00  0.00     0.322 C 
HETATM   12  O2  UNL     1      31.919  40.411  18.454  1.00  0.00    -0.247 OA
HETATM   13  N2  UNL     1      33.230  41.522  19.966  1.00  0.00    -0.291 N 
ATOM     14  H2  UNL     1      33.954  40.883  19.638  1.00  0.00     0.172 HD
ATOM     15  H1  UNL     1      30.814  42.789  20.261  1.00  0.00     0.164 HD
BRANCH  13  16
HETATM   16  C11 UNL     1      33.671  42.407  20.950  1.00  0.00     0.145 C 
BRANCH  16  17
HETATM   17  O3  UNL     1      33.293  43.649  20.880  1.00  0.00    -0.348 OA
ATOM     18  H3  UNL     1      33.487  44.223  21.612  1.00  0.00     0.219 HD
ENDBRANCH  16  17
BRANCH  16  19
HETATM   19  C12 UNL     1      34.538  42.127  22.104  1.00  0.00     0.313 C 
BRANCH  19  20
HETATM   20  N3  UNL     1      35.950  41.991  21.718  1.00  0.00    -0.072 N 
ATOM     21  H33 UNL     1      36.042  41.791  20.722  1.00  0.00     0.274 HD
ATOM     22  H32 UNL     1      36.428  42.891  21.748  1.00  0.00     0.274 HD
ATOM     23  H31 UNL     1      36.438  41.295  22.281  1.00  0.00     0.274 HD
ENDBRANCH  19  20
ENDBRANCH  16  19
ENDBRANCH  13  16
ENDBRANCH   4  10
BRANCH   1  24
HETATM   24  O1  UNL     1      26.066  41.508  16.848  1.00  0.00    -0.371 OA
BRANCH  24  25
HETATM   25  C5  UNL     1      24.755  41.924  16.961  1.00  0.00     0.211 C 
BRANCH  25  26
HETATM   26  C4  UNL     1      24.476  42.613  18.245  1.00  0.00     0.045 C 
BRANCH  26  27
HETATM   27  C2  UNL     1      24.074  44.053  18.157  1.00  0.00    -0.020 C 
HETATM   28  C1  UNL     1      24.962  44.901  19.065  1.00  0.00     0.009 C 
HETATM   29  C3  UNL     1      24.278  44.586  16.741  1.00  0.00     0.009 C 
ENDBRANCH  26  27
ENDBRANCH  25  26
BRANCH  25  30
HETATM   30  C17 UNL     1      23.909  40.669  16.975  1.00  0.00     0.260 C 
HETATM   31  N5  UNL     1      24.329  39.510  16.287  1.00  0.00    -0.060 NA
HETATM   32  O4  UNL     1      22.840  40.758  17.632  1.00  0.00    -0.274 OA
ENDBRANCH  25  30
ENDBRANCH  24  25
ENDBRANCH   1  24
TORSDOF 10
ENDMDL
