MODEL 1
REMARK VINA RESULT: -7.141463674      0.000      0.000
REMARK  7 active torsions:
REMARK  status: ('A' for Active; 'I' for Inactive)
REMARK    1  A    between atoms: C3_4  and  N2_6 
REMARK    2  A    between atoms: N2_6  and  S1_8 
REMARK    3  A    between atoms: S1_8  and  C5_11 
REMARK    4  A    between atoms: C10_18  and  C11_19 
REMARK    5  A    between atoms: C11_19  and  C12_21 
REMARK    6  A    between atoms: C12_21  and  O4_22 
REMARK    7  A    between atoms: O4_22  and  C13_23 
ROOT
HETATM    1  C5  UNL     1      29.884  42.010  19.542  1.00  0.00     0.117 A 
HETATM    2  C6  UNL     1      28.660  42.190  20.198  1.00  0.00     0.030 A 
HETATM    3  C7  UNL     1      27.316  42.390  19.555  1.00  0.00     0.070 C 
HETATM    4  N3  UNL     1      28.907  42.153  21.504  1.00  0.00    -0.361 N 
ATOM      5  H3  UNL     1      28.198  42.257  22.231  1.00  0.00     0.165 HD
HETATM    6  C8  UNL     1      30.230  41.957  21.741  1.00  0.00     0.021 A 
HETATM    7  C9  UNL     1      30.782  41.866  23.092  1.00  0.00     0.069 C 
HETATM    8  C10 UNL     1      30.857  41.864  20.492  1.00  0.00     0.059 A 
ENDROOT
BRANCH   1   9
HETATM    9  S1  UNL     1      29.990  41.986  17.808  1.00  0.00     0.266 S 
HETATM   10  O1  UNL     1      29.710  43.299  17.177  1.00  0.00    -0.200 OA
HETATM   11  O2  UNL     1      28.934  41.038  17.232  1.00  0.00    -0.200 OA
BRANCH   9  12
HETATM   12  N2  UNL     1      31.488  41.380  17.236  1.00  0.00    -0.283 N 
ATOM     13  H2  UNL     1      32.345  41.761  17.635  1.00  0.00     0.178 HD
BRANCH  12  14
HETATM   14  C3  UNL     1      31.602  40.382  16.240  1.00  0.00     0.036 C 
HETATM   15  C2  UNL     1      31.762  40.746  14.996  1.00  0.00     0.043 C 
HETATM   16  C1  UNL     1      31.882  39.693  13.956  1.00  0.00     0.067 C 
HETATM   17  N1  UNL     1      31.827  42.107  14.596  1.00  0.00    -0.105 NA
HETATM   18  C4  UNL     1      31.540  38.963  16.614  1.00  0.00     0.070 C 
ENDBRANCH  12  14
ENDBRANCH   9  12
ENDBRANCH   1   9
BRANCH   8  19
HETATM   19  C11 UNL     1      32.269  41.611  20.276  1.00  0.00     0.187 C 
HETATM   20  O3  UNL     1      32.661  40.578  19.646  1.00  0.00    -0.290 OA
BRANCH  19  21
HETATM   21  C12 UNL     1      33.369  42.485  20.742  1.00  0.00     0.261 C 
BRANCH  21  22
HETATM   22  O4  UNL     1      34.642  41.885  20.578  1.00  0.00    -0.322 OA
BRANCH  22  23
HETATM   23  C13 UNL     1      35.273  41.440  21.732  1.00  0.00     0.223 C 
HETATM   24  N4  UNL     1      34.586  40.694  22.736  1.00  0.00    -0.063 NA
HETATM   25  S2  UNL     1      36.846  41.759  21.987  1.00  0.00    -0.037 SA
ENDBRANCH  22  23
ENDBRANCH  21  22
ENDBRANCH  19  21
ENDBRANCH   8  19
TORSDOF 7
ENDMDL
MODEL 2
REMARK VINA RESULT: -6.946814566      0.739      1.174
REMARK  7 active torsions:
REMARK  status: ('A' for Active; 'I' for Inactive)
REMARK    1  A    between atoms: C3_4  and  N2_6 
REMARK    2  A    between atoms: N2_6  and  S1_8 
REMARK    3  A    between atoms: S1_8  and  C5_11 
REMARK    4  A    between atoms: C10_18  and  C11_19 
REMARK    5  A    between atoms: C11_19  and  C12_21 
REMARK    6  A    between atoms: C12_21  and  O4_22 
REMARK    7  A    between atoms: O4_22  and  C13_23 
ROOT
HETATM    1  C5  UNL     1      29.698  41.903  19.373  1.00  0.00     0.117 A 
HETATM    2  C6  UNL     1      28.454  41.909  20.017  1.00  0.00     0.030 A 
HETATM    3  C7  UNL     1      27.108  42.088  19.372  1.00  0.00     0.070 C 
HETATM    4  N3  UNL     1      28.685  41.727  21.314  1.00  0.00    -0.361 N 
ATOM      5  H3  UNL     1      27.959  41.688  22.031  1.00  0.00     0.165 HD
HETATM    6  C8  UNL     1      30.015  41.601  21.557  1.00  0.00     0.021 A 
HETATM    7  C9  UNL     1      30.553  41.384  22.899  1.00  0.00     0.069 C 
HETATM    8  C10 UNL     1      30.666  41.711  20.321  1.00  0.00     0.059 A 
ENDROOT
BRANCH   1   9
HETATM    9  S1  UNL     1      29.831  42.102  17.653  1.00  0.00     0.266 S 
HETATM   10  O1  UNL     1      29.508  43.473  17.187  1.00  0.00    -0.200 OA
HETATM   11  O2  UNL     1      28.821  41.196  16.941  1.00  0.00    -0.200 OA
BRANCH   9  12
HETATM   12  N2  UNL     1      31.359  41.629  17.038  1.00  0.00    -0.283 N 
ATOM     13  H2  UNL     1      32.161  41.661  17.667  1.00  0.00     0.178 HD
BRANCH  12  14
HETATM   14  C3  UNL     1      31.571  41.197  15.708  1.00  0.00     0.036 C 
HETATM   15  C2  UNL     1      31.903  39.952  15.494  1.00  0.00     0.043 C 
HETATM   16  C1  UNL     1      32.124  39.505  14.096  1.00  0.00     0.067 C 
HETATM   17  N1  UNL     1      32.061  39.008  16.543  1.00  0.00    -0.105 NA
HETATM   18  C4  UNL     1      31.417  42.145  14.596  1.00  0.00     0.070 C 
ENDBRANCH  12  14
ENDBRANCH   9  12
ENDBRANCH   1   9
BRANCH   8  19
HETATM   19  C11 UNL     1      32.095  41.592  20.109  1.00  0.00     0.187 C 
HETATM   20  O3  UNL     1      32.575  40.672  19.373  1.00  0.00    -0.290 OA
BRANCH  19  21
HETATM   21  C12 UNL     1      33.118  42.485  20.698  1.00  0.00     0.261 C 
BRANCH  21  22
HETATM   22  O4  UNL     1      34.432  41.977  20.544  1.00  0.00    -0.322 OA
BRANCH  22  23
HETATM   23  C13 UNL     1      35.055  41.508  21.693  1.00  0.00     0.223 C 
HETATM   24  N4  UNL     1      34.340  40.828  22.724  1.00  0.00    -0.063 NA
HETATM   25  S2  UNL     1      36.652  41.722  21.911  1.00  0.00    -0.037 SA
ENDBRANCH  22  23
ENDBRANCH  21  22
ENDBRANCH  19  21
ENDBRANCH   8  19
TORSDOF 7
ENDMDL
MODEL 3
REMARK VINA RESULT: -6.557231764      2.019      2.266
REMARK  7 active torsions:
REMARK  status: ('A' for Active; 'I' for Inactive)
REMARK    1  A    between atoms: C3_4  and  N2_6 
REMARK    2  A    between atoms: N2_6  and  S1_8 
REMARK    3  A    between atoms: S1_8  and  C5_11 
REMARK    4  A    between atoms: C10_18  and  C11_19 
REMARK    5  A    between atoms: C11_19  and  C12_21 
REMARK    6  A    between atoms: C12_21  and  O4_22 
REMARK    7  A    between atoms: O4_22  and  C13_23 
ROOT
HETATM    1  C5  UNL     1      28.928  41.811  18.977  1.00  0.00     0.117 A 
HETATM    2  C6  UNL     1      27.742  41.670  19.708  1.00  0.00     0.030 A 
HETATM    3  C7  UNL     1      26.383  42.187  19.325  1.00  0.00     0.070 C 
HETATM    4  N3  UNL     1      28.040  40.991  20.812  1.00  0.00    -0.361 N 
ATOM      5  H3  UNL     1      27.368  40.740  21.537  1.00  0.00     0.165 HD
HETATM    6  C8  UNL     1      29.362  40.677  20.844  1.00  0.00     0.021 A 
HETATM    7  C9  UNL     1      29.964  39.924  21.943  1.00  0.00     0.069 C 
HETATM    8  C10 UNL     1      29.932  41.197  19.675  1.00  0.00     0.059 A 
ENDROOT
BRANCH   1   9
HETATM    9  S1  UNL     1      28.961  42.639  17.450  1.00  0.00     0.266 S 
HETATM   10  O1  UNL     1      28.269  43.951  17.470  1.00  0.00    -0.200 OA
HETATM   11  O2  UNL     1      28.217  41.817  16.392  1.00  0.00    -0.200 OA
BRANCH   9  12
HETATM   12  N2  UNL     1      30.545  42.833  16.826  1.00  0.00    -0.283 N 
ATOM     13  H2  UNL     1      31.314  42.928  17.488  1.00  0.00     0.178 HD
BRANCH  12  14
HETATM   14  C3  UNL     1      30.846  42.869  15.444  1.00  0.00     0.036 C 
HETATM   15  C2  UNL     1      30.852  44.021  14.829  1.00  0.00     0.043 C 
HETATM   16  C1  UNL     1      31.168  44.052  13.379  1.00  0.00     0.067 C 
HETATM   17  N1  UNL     1      30.568  45.246  15.489  1.00  0.00    -0.105 NA
HETATM   18  C4  UNL     1      31.145  41.623  14.726  1.00  0.00     0.070 C 
ENDBRANCH  12  14
ENDBRANCH   9  12
ENDBRANCH   1   9
BRANCH   8  19
HETATM   19  C11 UNL     1      31.320  41.054  19.280  1.00  0.00     0.187 C 
HETATM   20  O3  UNL     1      31.649  40.325  18.290  1.00  0.00    -0.290 OA
BRANCH  19  21
HETATM   21  C12 UNL     1      32.465  41.709  19.951  1.00  0.00     0.261 C 
BRANCH  21  22
HETATM   22  O4  UNL     1      33.257  40.792  20.685  1.00  0.00    -0.322 OA
BRANCH  22  23
HETATM   23  C13 UNL     1      33.690  41.208  21.937  1.00  0.00     0.223 C 
HETATM   24  N4  UNL     1      34.875  40.694  22.544  1.00  0.00    -0.063 NA
HETATM   25  S2  UNL     1      32.846  42.315  22.775  1.00  0.00    -0.037 SA
ENDBRANCH  22  23
ENDBRANCH  21  22
ENDBRANCH  19  21
ENDBRANCH   8  19
TORSDOF 7
ENDMDL
MODEL 4
REMARK VINA RESULT: -6.547713018      1.278      1.401
REMARK  7 active torsions:
REMARK  status: ('A' for Active; 'I' for Inactive)
REMARK    1  A    between atoms: C3_4  and  N2_6 
REMARK    2  A    between atoms: N2_6  and  S1_8 
REMARK    3  A    between atoms: S1_8  and  C5_11 
REMARK    4  A    between atoms: C10_18  and  C11_19 
REMARK    5  A    between atoms: C11_19  and  C12_21 
REMARK    6  A    between atoms: C12_21  and  O4_22 
REMARK    7  A    between atoms: O4_22  and  C13_23 
ROOT
HETATM    1  C5  UNL     1      29.133  41.752  18.939  1.00  0.00     0.117 A 
HETATM    2  C6  UNL     1      27.872  41.543  19.512  1.00  0.00     0.030 A 
HETATM    3  C7  UNL     1      26.539  41.856  18.892  1.00  0.00     0.070 C 
HETATM    4  N3  UNL     1      28.072  41.013  20.715  1.00  0.00    -0.361 N 
ATOM      5  H3  UNL     1      27.329  40.755  21.365  1.00  0.00     0.165 HD
HETATM    6  C8  UNL     1      29.400  40.863  20.963  1.00  0.00     0.021 A 
HETATM    7  C9  UNL     1      29.907  40.296  22.211  1.00  0.00     0.069 C 
HETATM    8  C10 UNL     1      30.080  41.331  19.832  1.00  0.00     0.059 A 
ENDROOT
BRANCH   1   9
HETATM    9  S1  UNL     1      29.306  42.427  17.348  1.00  0.00     0.266 S 
HETATM   10  O1  UNL     1      28.860  43.838  17.248  1.00  0.00    -0.200 OA
HETATM   11  O2  UNL     1      28.422  41.663  16.356  1.00  0.00    -0.200 OA
BRANCH   9  12
HETATM   12  N2  UNL     1      30.896  42.281  16.726  1.00  0.00    -0.283 N 
ATOM     13  H2  UNL     1      31.669  42.616  17.300  1.00  0.00     0.178 HD
BRANCH  12  14
HETATM   14  C3  UNL     1      31.198  41.722  15.462  1.00  0.00     0.036 C 
HETATM   15  C2  UNL     1      31.356  42.520  14.440  1.00  0.00     0.043 C 
HETATM   16  C1  UNL     1      31.672  41.927  13.117  1.00  0.00     0.067 C 
HETATM   17  N1  UNL     1      31.238  43.932  14.542  1.00  0.00    -0.105 NA
HETATM   18  C4  UNL     1      31.327  40.266  15.316  1.00  0.00     0.070 C 
ENDBRANCH  12  14
ENDBRANCH   9  12
ENDBRANCH   1   9
BRANCH   8  19
HETATM   19  C11 UNL     1      31.518  41.316  19.649  1.00  0.00     0.187 C 
HETATM   20  O3  UNL     1      32.064  40.538  18.803  1.00  0.00    -0.290 OA
BRANCH  19  21
HETATM   21  C12 UNL     1      32.477  42.165  20.391  1.00  0.00     0.261 C 
BRANCH  21  22
HETATM   22  O4  UNL     1      33.773  41.596  20.445  1.00  0.00    -0.322 OA
BRANCH  22  23
HETATM   23  C13 UNL     1      34.361  41.509  21.700  1.00  0.00     0.223 C 
HETATM   24  N4  UNL     1      33.592  41.372  22.894  1.00  0.00    -0.063 NA
HETATM   25  S2  UNL     1      35.978  41.560  21.858  1.00  0.00    -0.037 SA
ENDBRANCH  22  23
ENDBRANCH  21  22
ENDBRANCH  19  21
ENDBRANCH   8  19
TORSDOF 7
ENDMDL
MODEL 5
REMARK VINA RESULT: -6.505686045      1.441      1.748
REMARK  7 active torsions:
REMARK  status: ('A' for Active; 'I' for Inactive)
REMARK    1  A    between atoms: C3_4  and  N2_6 
REMARK    2  A    between atoms: N2_6  and  S1_8 
REMARK    3  A    between atoms: S1_8  and  C5_11 
REMARK    4  A    between atoms: C10_18  and  C11_19 
REMARK    5  A    between atoms: C11_19  and  C12_21 
REMARK    6  A    between atoms: C12_21  and  O4_22 
REMARK    7  A    between atoms: O4_22  and  C13_23 
ROOT
HETATM    1  C5  UNL     1      29.912  41.688  19.598  1.00  0.00     0.117 A 
HETATM    2  C6  UNL     1      28.709  41.955  20.263  1.00  0.00     0.030 A 
HETATM    3  C7  UNL     1      27.323  41.867  19.687  1.00  0.00     0.070 C 
HETATM    4  N3  UNL     1      29.019  42.305  21.508  1.00  0.00    -0.361 N 
ATOM      5  H3  UNL     1      28.339  42.557  22.226  1.00  0.00     0.165 HD
HETATM    6  C8  UNL     1      30.365  42.281  21.696  1.00  0.00     0.021 A 
HETATM    7  C9  UNL     1      30.986  42.615  22.976  1.00  0.00     0.069 C 
HETATM    8  C10 UNL     1      30.938  41.887  20.480  1.00  0.00     0.059 A 
ENDROOT
BRANCH   1   9
HETATM    9  S1  UNL     1      29.937  41.184  17.935  1.00  0.00     0.266 S 
HETATM   10  O1  UNL     1      28.598  41.173  17.297  1.00  0.00    -0.200 OA
HETATM   11  O2  UNL     1      30.435  39.739  17.833  1.00  0.00    -0.200 OA
BRANCH   9  12
HETATM   12  N2  UNL     1      31.025  42.095  16.975  1.00  0.00    -0.283 N 
ATOM     13  H2  UNL     1      31.873  42.452  17.416  1.00  0.00     0.178 HD
BRANCH  12  14
HETATM   14  C3  UNL     1      30.815  42.381  15.606  1.00  0.00     0.036 C 
HETATM   15  C2  UNL     1      30.328  43.546  15.271  1.00  0.00     0.043 C 
HETATM   16  C1  UNL     1      30.109  43.840  13.833  1.00  0.00     0.067 C 
HETATM   17  N1  UNL     1      29.999  44.544  16.227  1.00  0.00    -0.105 NA
HETATM   18  C4  UNL     1      31.142  41.374  14.588  1.00  0.00     0.070 C 
ENDBRANCH  12  14
ENDBRANCH   9  12
ENDBRANCH   1   9
BRANCH   8  19
HETATM   19  C11 UNL     1      32.354  41.688  20.243  1.00  0.00     0.187 C 
HETATM   20  O3  UNL     1      32.767  40.771  19.463  1.00  0.00    -0.290 OA
BRANCH  19  21
HETATM   21  C12 UNL     1      33.438  42.490  20.853  1.00  0.00     0.261 C 
BRANCH  21  22
HETATM   22  O4  UNL     1      34.719  41.925  20.632  1.00  0.00    -0.322 OA
BRANCH  22  23
HETATM   23  C13 UNL     1      35.376  41.420  21.745  1.00  0.00     0.223 C 
HETATM   24  N4  UNL     1      34.717  40.604  22.714  1.00  0.00    -0.063 NA
HETATM   25  S2  UNL     1      36.949  41.745  21.994  1.00  0.00    -0.037 SA
ENDBRANCH  22  23
ENDBRANCH  21  22
ENDBRANCH  19  21
ENDBRANCH   8  19
TORSDOF 7
ENDMDL
