MODEL 1
REMARK VINA RESULT: -7.493485067      0.000      0.000
REMARK  8 active torsions:
REMARK  status: ('A' for Active; 'I' for Inactive)
REMARK    1  A    between atoms: C2_5  and  N3_6 
REMARK    2  A    between atoms: C2_5  and  C12_25 
REMARK    3  A    between atoms: N3_6  and  C3_8 
REMARK    4  A    between atoms: C3_8  and  C4_9 
REMARK    5  A    between atoms: C3_8  and  C6_16 
REMARK    6  A    between atoms: C4_9  and  S1_10 
REMARK    7  A    between atoms: S1_10  and  C5_11 
REMARK       I    between atoms: C6_16  and  N6_18 
REMARK    8  A    between atoms: N6_18  and  C7_20 
ROOT
HETATM    1  N1  UNL     1      34.230  41.158  22.591  1.00  0.00    -0.172 NA
HETATM    2  C1  UNL     1      33.650  41.171  21.610  1.00  0.00     0.183 C 
HETATM    3  N2  UNL     1      33.013  41.187  20.441  1.00  0.00    -0.281 N 
ATOM      4  H2  UNL     1      33.709  41.289  19.702  1.00  0.00     0.179 HD
HETATM    5  C2  UNL     1      31.900  41.125  19.910  1.00  0.00     0.116 C 
ENDROOT
BRANCH   5   6
HETATM    6  N3  UNL     1      31.873  41.202  18.450  1.00  0.00    -0.363 N 
ATOM      7  H3  UNL     1      32.693  41.508  17.926  1.00  0.00     0.161 HD
BRANCH   6   8
HETATM    8  C3  UNL     1      30.641  40.830  17.767  1.00  0.00     0.184 C 
BRANCH   8   9
HETATM    9  C4  UNL     1      29.708  41.889  17.422  1.00  0.00     0.116 C 
BRANCH   9  10
HETATM   10  S1  UNL     1      28.025  41.517  17.890  1.00  0.00    -0.095 SA
BRANCH  10  11
HETATM   11  C5  UNL     1      27.227  42.821  18.829  1.00  0.00     0.147 C 
HETATM   12  N4  UNL     1      26.846  42.519  19.980  1.00  0.00    -0.382 N 
ATOM     13  H42 UNL     1      27.039  41.595  20.367  1.00  0.00     0.157 HD
ATOM     14  H41 UNL     1      26.392  43.260  20.514  1.00  0.00     0.157 HD
HETATM   15  N5  UNL     1      26.959  44.095  18.295  1.00  0.00    -0.075 NA
ENDBRANCH  10  11
ENDBRANCH   9  10
ENDBRANCH   8   9
BRANCH   8  16
HETATM   16  C6  UNL     1      31.057  39.923  16.685  1.00  0.00     0.241 C 
HETATM   17  O1  UNL     1      32.212  40.041  16.153  1.00  0.00    -0.271 OA
HETATM   18  N6  UNL     1      30.230  38.911  16.156  1.00  0.00    -0.355 N 
ATOM     19  H6  UNL     1      29.304  38.764  16.556  1.00  0.00     0.162 HD
BRANCH  18  20
HETATM   20  C7  UNL     1      30.671  38.069  15.049  1.00  0.00     0.084 C 
HETATM   21  C8  UNL     1      31.352  36.815  15.468  1.00  0.00     0.025 C 
HETATM   22  C9  UNL     1      30.610  35.638  14.833  1.00  0.00     0.002 C 
HETATM   23  C10 UNL     1      29.725  36.248  13.773  1.00  0.00     0.002 C 
HETATM   24  C11 UNL     1      29.364  37.615  14.359  1.00  0.00     0.025 C 
ENDBRANCH  18  20
ENDBRANCH   8  16
ENDBRANCH   6   8
ENDBRANCH   5   6
BRANCH   5  25
HETATM   25  C12 UNL     1      30.644  40.973  20.665  1.00  0.00     0.189 C 
HETATM   26  C13 UNL     1      30.134  42.263  21.279  1.00  0.00     0.040 C 
HETATM   27  C14 UNL     1      30.562  42.433  22.693  1.00  0.00     0.005 C 
HETATM   28  C15 UNL     1      30.213  41.219  23.542  1.00  0.00     0.026 C 
HETATM   29  C16 UNL     1      29.792  40.102  22.604  1.00  0.00     0.168 C 
HETATM   30  O2  UNL     1      30.723  39.952  21.564  1.00  0.00    -0.378 OA
ENDBRANCH   5  25
TORSDOF 8
ENDMDL
MODEL 2
REMARK VINA RESULT: -7.407161958      1.364      1.688
REMARK  8 active torsions:
REMARK  status: ('A' for Active; 'I' for Inactive)
REMARK    1  A    between atoms: C2_5  and  N3_6 
REMARK    2  A    between atoms: C2_5  and  C12_25 
REMARK    3  A    between atoms: N3_6  and  C3_8 
REMARK    4  A    between atoms: C3_8  and  C4_9 
REMARK    5  A    between atoms: C3_8  and  C6_16 
REMARK    6  A    between atoms: C4_9  and  S1_10 
REMARK    7  A    between atoms: S1_10  and  C5_11 
REMARK       I    between atoms: C6_16  and  N6_18 
REMARK    8  A    between atoms: N6_18  and  C7_20 
ROOT
HETATM    1  N1  UNL     1      34.240  41.182  22.547  1.00  0.00    -0.172 NA
HETATM    2  C1  UNL     1      33.652  41.169  21.571  1.00  0.00     0.183 C 
HETATM    3  N2  UNL     1      33.003  41.156  20.407  1.00  0.00    -0.281 N 
ATOM      4  H2  UNL     1      33.688  41.285  19.662  1.00  0.00     0.179 HD
HETATM    5  C2  UNL     1      31.889  41.048  19.888  1.00  0.00     0.116 C 
ENDROOT
BRANCH   5   6
HETATM    6  N3  UNL     1      31.846  41.121  18.428  1.00  0.00    -0.363 N 
ATOM      7  H3  UNL     1      32.638  41.482  17.897  1.00  0.00     0.161 HD
BRANCH   6   8
HETATM    8  C3  UNL     1      30.637  40.662  17.755  1.00  0.00     0.184 C 
BRANCH   8   9
HETATM    9  C4  UNL     1      29.660  41.662  17.356  1.00  0.00     0.116 C 
BRANCH   9  10
HETATM   10  S1  UNL     1      30.188  42.630  15.950  1.00  0.00    -0.095 SA
BRANCH  10  11
HETATM   11  C5  UNL     1      29.686  44.350  16.022  1.00  0.00     0.147 C 
HETATM   12  N4  UNL     1      30.584  45.197  15.829  1.00  0.00    -0.382 N 
ATOM     13  H42 UNL     1      31.531  44.905  15.588  1.00  0.00     0.157 HD
ATOM     14  H41 UNL     1      30.299  46.175  15.870  1.00  0.00     0.157 HD
HETATM   15  N5  UNL     1      28.379  44.753  16.355  1.00  0.00    -0.075 NA
ENDBRANCH  10  11
ENDBRANCH   9  10
ENDBRANCH   8   9
BRANCH   8  16
HETATM   16  C6  UNL     1      31.103  39.728  16.717  1.00  0.00     0.241 C 
HETATM   17  O1  UNL     1      32.304  39.787  16.287  1.00  0.00    -0.271 OA
HETATM   18  N6  UNL     1      30.278  38.750  16.122  1.00  0.00    -0.355 N 
ATOM     19  H6  UNL     1      29.315  38.651  16.440  1.00  0.00     0.162 HD
BRANCH  18  20
HETATM   20  C7  UNL     1      30.774  37.880  15.062  1.00  0.00     0.084 C 
HETATM   21  C8  UNL     1      31.431  36.638  15.548  1.00  0.00     0.025 C 
HETATM   22  C9  UNL     1      30.720  35.444  14.907  1.00  0.00     0.002 C 
HETATM   23  C10 UNL     1      29.892  36.026  13.788  1.00  0.00     0.002 C 
HETATM   24  C11 UNL     1      29.503  37.408  14.318  1.00  0.00     0.025 C 
ENDBRANCH  18  20
ENDBRANCH   8  16
ENDBRANCH   6   8
ENDBRANCH   5   6
BRANCH   5  25
HETATM   25  C12 UNL     1      30.648  40.845  20.654  1.00  0.00     0.189 C 
HETATM   26  C13 UNL     1      30.027  42.129  21.172  1.00  0.00     0.040 C 
HETATM   27  C14 UNL     1      30.433  42.440  22.568  1.00  0.00     0.005 C 
HETATM   28  C15 UNL     1      30.184  41.266  23.506  1.00  0.00     0.026 C 
HETATM   29  C16 UNL     1      29.864  40.051  22.654  1.00  0.00     0.168 C 
HETATM   30  O2  UNL     1      30.809  39.904  21.626  1.00  0.00    -0.378 OA
ENDBRANCH   5  25
TORSDOF 8
ENDMDL
MODEL 3
REMARK VINA RESULT: -7.402376842      2.506      3.289
REMARK  8 active torsions:
REMARK  status: ('A' for Active; 'I' for Inactive)
REMARK    1  A    between atoms: C2_5  and  N3_6 
REMARK    2  A    between atoms: C2_5  and  C12_25 
REMARK    3  A    between atoms: N3_6  and  C3_8 
REMARK    4  A    between atoms: C3_8  and  C4_9 
REMARK    5  A    between atoms: C3_8  and  C6_16 
REMARK    6  A    between atoms: C4_9  and  S1_10 
REMARK    7  A    between atoms: S1_10  and  C5_11 
REMARK       I    between atoms: C6_16  and  N6_18 
REMARK    8  A    between atoms: N6_18  and  C7_20 
ROOT
HETATM    1  N1  UNL     1      34.148  41.056  22.450  1.00  0.00    -0.172 NA
HETATM    2  C1  UNL     1      33.571  41.109  21.469  1.00  0.00     0.183 C 
HETATM    3  N2  UNL     1      32.937  41.173  20.300  1.00  0.00    -0.281 N 
ATOM      4  H2  UNL     1      33.633  41.322  19.569  1.00  0.00     0.179 HD
HETATM    5  C2  UNL     1      31.826  41.121  19.763  1.00  0.00     0.116 C 
ENDROOT
BRANCH   5   6
HETATM    6  N3  UNL     1      31.801  41.270  18.309  1.00  0.00    -0.363 N 
ATOM      7  H3  UNL     1      32.356  41.989  17.846  1.00  0.00     0.161 HD
BRANCH   6   8
HETATM    8  C3  UNL     1      30.961  40.360  17.541  1.00  0.00     0.184 C 
BRANCH   8   9
HETATM    9  C4  UNL     1      29.647  40.829  17.134  1.00  0.00     0.116 C 
BRANCH   9  10
HETATM   10  S1  UNL     1      29.473  42.603  17.251  1.00  0.00    -0.095 SA
BRANCH  10  11
HETATM   11  C5  UNL     1      30.266  43.502  15.917  1.00  0.00     0.147 C 
HETATM   12  N4  UNL     1      30.251  44.748  16.004  1.00  0.00    -0.382 N 
ATOM     13  H42 UNL     1      29.856  45.208  16.824  1.00  0.00     0.157 HD
ATOM     14  H41 UNL     1      30.702  45.259  15.245  1.00  0.00     0.157 HD
HETATM   15  N5  UNL     1      30.811  42.867  14.785  1.00  0.00    -0.075 NA
ENDBRANCH  10  11
ENDBRANCH   9  10
ENDBRANCH   8   9
BRANCH   8  16
HETATM   16  C6  UNL     1      31.836  39.819  16.489  1.00  0.00     0.241 C 
HETATM   17  O1  UNL     1      31.788  38.580  16.183  1.00  0.00    -0.271 OA
HETATM   18  N6  UNL     1      32.779  40.596  15.785  1.00  0.00    -0.355 N 
ATOM     19  H6  UNL     1      32.847  41.594  15.980  1.00  0.00     0.162 HD
BRANCH  18  20
HETATM   20  C7  UNL     1      33.659  40.003  14.784  1.00  0.00     0.084 C 
HETATM   21  C8  UNL     1      33.177  40.146  13.385  1.00  0.00     0.025 C 
HETATM   22  C9  UNL     1      34.276  40.837  12.575  1.00  0.00     0.002 C 
HETATM   23  C10 UNL     1      35.513  40.765  13.436  1.00  0.00     0.002 C 
HETATM   24  C11 UNL     1      34.957  40.839  14.860  1.00  0.00     0.025 C 
ENDBRANCH  18  20
ENDBRANCH   8  16
ENDBRANCH   6   8
ENDBRANCH   5   6
BRANCH   5  25
HETATM   25  C12 UNL     1      30.571  40.913  20.505  1.00  0.00     0.189 C 
HETATM   26  C13 UNL     1      30.018  42.171  21.148  1.00  0.00     0.040 C 
HETATM   27  C14 UNL     1      30.433  42.319  22.568  1.00  0.00     0.005 C 
HETATM   28  C15 UNL     1      30.115  41.074  23.385  1.00  0.00     0.026 C 
HETATM   29  C16 UNL     1      29.734  39.969  22.417  1.00  0.00     0.168 C 
HETATM   30  O2  UNL     1      30.675  39.873  21.380  1.00  0.00    -0.378 OA
ENDBRANCH   5  25
TORSDOF 8
ENDMDL
MODEL 4
REMARK VINA RESULT: -7.367521841      2.469      3.102
REMARK  8 active torsions:
REMARK  status: ('A' for Active; 'I' for Inactive)
REMARK    1  A    between atoms: C2_5  and  N3_6 
REMARK    2  A    between atoms: C2_5  and  C12_25 
REMARK    3  A    between atoms: N3_6  and  C3_8 
REMARK    4  A    between atoms: C3_8  and  C4_9 
REMARK    5  A    between atoms: C3_8  and  C6_16 
REMARK    6  A    between atoms: C4_9  and  S1_10 
REMARK    7  A    between atoms: S1_10  and  C5_11 
REMARK       I    between atoms: C6_16  and  N6_18 
REMARK    8  A    between atoms: N6_18  and  C7_20 
ROOT
HETATM    1  N1  UNL     1      34.148  40.971  22.316  1.00  0.00    -0.172 NA
HETATM    2  C1  UNL     1      33.552  41.070  21.350  1.00  0.00     0.183 C 
HETATM    3  N2  UNL     1      32.895  41.189  20.198  1.00  0.00    -0.281 N 
ATOM      4  H2  UNL     1      33.577  41.371  19.461  1.00  0.00     0.179 HD
HETATM    5  C2  UNL     1      31.774  41.164  19.681  1.00  0.00     0.116 C 
ENDROOT
BRANCH   5   6
HETATM    6  N3  UNL     1      31.721  41.380  18.236  1.00  0.00    -0.363 N 
ATOM      7  H3  UNL     1      32.303  42.089  17.790  1.00  0.00     0.161 HD
BRANCH   6   8
HETATM    8  C3  UNL     1      30.812  40.552  17.453  1.00  0.00     0.184 C 
BRANCH   8   9
HETATM    9  C4  UNL     1      29.442  41.010  17.295  1.00  0.00     0.116 C 
BRANCH   9  10
HETATM   10  S1  UNL     1      29.292  42.789  17.332  1.00  0.00    -0.095 SA
BRANCH  10  11
HETATM   11  C5  UNL     1      29.951  43.605  15.877  1.00  0.00     0.147 C 
HETATM   12  N4  UNL     1      30.374  44.769  16.039  1.00  0.00    -0.382 N 
ATOM     13  H42 UNL     1      30.388  45.193  16.967  1.00  0.00     0.157 HD
ATOM     14  H41 UNL     1      30.749  45.234  15.212  1.00  0.00     0.157 HD
HETATM   15  N5  UNL     1      29.931  43.020  14.597  1.00  0.00    -0.075 NA
ENDBRANCH  10  11
ENDBRANCH   9  10
ENDBRANCH   8   9
BRANCH   8  16
HETATM   16  C6  UNL     1      31.553  40.219  16.226  1.00  0.00     0.241 C 
HETATM   17  O1  UNL     1      30.940  39.747  15.209  1.00  0.00    -0.271 OA
HETATM   18  N6  UNL     1      32.950  40.364  16.096  1.00  0.00    -0.355 N 
ATOM     19  H6  UNL     1      33.485  40.751  16.872  1.00  0.00     0.162 HD
BRANCH  18  20
HETATM   20  C7  UNL     1      33.646  39.973  14.874  1.00  0.00     0.084 C 
HETATM   21  C8  UNL     1      34.885  40.748  14.602  1.00  0.00     0.025 C 
HETATM   22  C9  UNL     1      36.041  39.755  14.459  1.00  0.00     0.002 C 
HETATM   23  C10 UNL     1      35.390  38.403  14.300  1.00  0.00     0.002 C 
HETATM   24  C11 UNL     1      34.116  38.524  15.140  1.00  0.00     0.025 C 
ENDBRANCH  18  20
ENDBRANCH   8  16
ENDBRANCH   6   8
ENDBRANCH   5   6
BRANCH   5  25
HETATM   25  C12 UNL     1      30.533  40.924  20.438  1.00  0.00     0.189 C 
HETATM   26  C13 UNL     1      29.981  42.159  21.126  1.00  0.00     0.040 C 
HETATM   27  C14 UNL     1      30.418  42.269  22.543  1.00  0.00     0.005 C 
HETATM   28  C15 UNL     1      30.124  40.998  23.328  1.00  0.00     0.026 C 
HETATM   29  C16 UNL     1      29.735  39.918  22.334  1.00  0.00     0.168 C 
HETATM   30  O2  UNL     1      30.659  39.860  21.280  1.00  0.00    -0.378 OA
ENDBRANCH   5  25
TORSDOF 8
ENDMDL
MODEL 5
REMARK VINA RESULT: -7.335001810      1.816      2.295
REMARK  8 active torsions:
REMARK  status: ('A' for Active; 'I' for Inactive)
REMARK    1  A    between atoms: C2_5  and  N3_6 
REMARK    2  A    between atoms: C2_5  and  C12_25 
REMARK    3  A    between atoms: N3_6  and  C3_8 
REMARK    4  A    between atoms: C3_8  and  C4_9 
REMARK    5  A    between atoms: C3_8  and  C6_16 
REMARK    6  A    between atoms: C4_9  and  S1_10 
REMARK    7  A    between atoms: S1_10  and  C5_11 
REMARK       I    between atoms: C6_16  and  N6_18 
REMARK    8  A    between atoms: N6_18  and  C7_20 
ROOT
HETATM    1  N1  UNL     1      34.175  41.149  22.552  1.00  0.00    -0.172 NA
HETATM    2  C1  UNL     1      33.627  41.150  21.554  1.00  0.00     0.183 C 
HETATM    3  N2  UNL     1      33.026  41.154  20.365  1.00  0.00    -0.281 N 
ATOM      4  H2  UNL     1      33.743  41.265  19.648  1.00  0.00     0.179 HD
HETATM    5  C2  UNL     1      31.932  41.074  19.800  1.00  0.00     0.116 C 
ENDROOT
BRANCH   5   6
HETATM    6  N3  UNL     1      31.949  41.147  18.340  1.00  0.00    -0.363 N 
ATOM      7  H3  UNL     1      32.781  41.460  17.840  1.00  0.00     0.161 HD
BRANCH   6   8
HETATM    8  C3  UNL     1      30.742  40.759  17.620  1.00  0.00     0.184 C 
BRANCH   8   9
HETATM    9  C4  UNL     1      29.848  41.814  17.174  1.00  0.00     0.116 C 
BRANCH   9  10
HETATM   10  S1  UNL     1      29.844  42.022  15.400  1.00  0.00    -0.095 SA
BRANCH  10  11
HETATM   11  C5  UNL     1      31.178  43.052  14.785  1.00  0.00     0.147 C 
HETATM   12  N4  UNL     1      32.272  42.481  14.592  1.00  0.00    -0.382 N 
ATOM     13  H42 UNL     1      32.365  41.474  14.726  1.00  0.00     0.157 HD
ATOM     14  H41 UNL     1      33.031  43.066  14.242  1.00  0.00     0.157 HD
HETATM   15  N5  UNL     1      31.049  44.440  14.600  1.00  0.00    -0.075 NA
ENDBRANCH  10  11
ENDBRANCH   9  10
ENDBRANCH   8   9
BRANCH   8  16
HETATM   16  C6  UNL     1      31.190  39.788  16.609  1.00  0.00     0.241 C 
HETATM   17  O1  UNL     1      32.368  39.863  16.118  1.00  0.00    -0.271 OA
HETATM   18  N6  UNL     1      30.373  38.756  16.104  1.00  0.00    -0.355 N 
ATOM     19  H6  UNL     1      29.429  38.642  16.473  1.00  0.00     0.162 HD
BRANCH  18  20
HETATM   20  C7  UNL     1      30.847  37.848  15.065  1.00  0.00     0.084 C 
HETATM   21  C8  UNL     1      31.434  36.583  15.581  1.00  0.00     0.025 C 
HETATM   22  C9  UNL     1      30.679  35.416  14.940  1.00  0.00     0.002 C 
HETATM   23  C10 UNL     1      29.903  36.021  13.796  1.00  0.00     0.002 C 
HETATM   24  C11 UNL     1      29.570  37.428  14.301  1.00  0.00     0.025 C 
ENDBRANCH  18  20
ENDBRANCH   8  16
ENDBRANCH   6   8
ENDBRANCH   5   6
BRANCH   5  25
HETATM   25  C12 UNL     1      30.655  40.903  20.515  1.00  0.00     0.189 C 
HETATM   26  C13 UNL     1      30.105  42.187  21.108  1.00  0.00     0.040 C 
HETATM   27  C14 UNL     1      30.485  42.369  22.534  1.00  0.00     0.005 C 
HETATM   28  C15 UNL     1      30.129  41.152  23.377  1.00  0.00     0.026 C 
HETATM   29  C16 UNL     1      29.757  40.025  22.431  1.00  0.00     0.168 C 
HETATM   30  O2  UNL     1      30.722  39.887  21.421  1.00  0.00    -0.378 OA
ENDBRANCH   5  25
TORSDOF 8
ENDMDL
