MODEL 1
REMARK VINA RESULT: -8.070555422      0.000      0.000
REMARK  8 active torsions:
REMARK  status: ('A' for Active; 'I' for Inactive)
REMARK    1  A    between atoms: N1_1  and  C1_5 
REMARK    2  A    between atoms: C1_5  and  C2_6 
REMARK    3  A    between atoms: C1_5  and  C4_10 
REMARK    4  A    between atoms: C2_6  and  C3_8 
REMARK       I    between atoms: C4_10  and  N2_12 
REMARK    5  A    between atoms: N2_12  and  C5_14 
REMARK    6  A    between atoms: C5_14  and  C6_15 
REMARK    7  A    between atoms: C5_14  and  C12_23 
REMARK    8  A    between atoms: C6_15  and  C7_16 
ROOT
HETATM    1  C5  UNL     1       0.427   4.409  14.758  1.00  0.00     0.156 C 
ENDROOT
BRANCH   1   2
HETATM    2  N2  UNL     1       0.274   5.641  15.471  1.00  0.00    -0.347 N 
HETATM    3  C4  UNL     1       1.393   6.445  15.805  1.00  0.00     0.256 C 
HETATM    4  O2  UNL     1       2.524   6.065  15.471  1.00  0.00    -0.271 OA
ATOM      5  H2  UNL     1      -0.660   5.947  15.744  1.00  0.00     0.163 HD
BRANCH   3   6
HETATM    6  C1  UNL     1       1.186   7.711  16.542  1.00  0.00     0.344 C 
BRANCH   6   7
HETATM    7  N1  UNL     1       0.558   7.505  17.826  1.00  0.00    -0.059 N 
ATOM      8  H13 UNL     1       0.747   8.263  18.482  1.00  0.00     0.275 HD
ATOM      9  H12 UNL     1      -0.456   7.605  17.789  1.00  0.00     0.275 HD
ATOM     10  H11 UNL     1       0.852   6.595  18.179  1.00  0.00     0.275 HD
ENDBRANCH   6   7
BRANCH   6  11
HETATM   11  C2  UNL     1       0.359   8.680  15.775  1.00  0.00     0.176 C 
HETATM   12  O1  UNL     1       0.904   9.401  14.938  1.00  0.00    -0.294 OA
BRANCH  11  13
HETATM   13  C3  UNL     1      -1.103   8.842  15.946  1.00  0.00     0.167 C 
HETATM   14  S1  UNL     1      -1.890   8.460  14.356  1.00  0.00    -0.090 SA
ENDBRANCH  11  13
ENDBRANCH   6  11
ENDBRANCH   3   6
ENDBRANCH   1   2
BRANCH   1  15
HETATM   15  C6  UNL     1       0.107   4.531  13.289  1.00  0.00     0.073 C 
BRANCH  15  16
HETATM   16  C7  UNL     1       0.703   3.506  12.454  1.00  0.00    -0.040 A 
HETATM   17  C8  UNL     1       0.237   3.289  11.182  1.00  0.00     0.010 A 
HETATM   18  C9  UNL     1       0.794   2.309  10.358  1.00  0.00     0.018 A 
HETATM   19  C10 UNL     1       1.831   1.574  10.892  1.00  0.00     0.087 A 
HETATM   20  N3  UNL     1       2.299   1.766  12.123  1.00  0.00    -0.375 N 
HETATM   21  C11 UNL     1       1.741   2.732  12.913  1.00  0.00     0.094 A 
ATOM     22  H3  UNL     1       3.069   1.197  12.474  1.00  0.00     0.164 HD
ENDBRANCH  15  16
ENDBRANCH   1  15
BRANCH   1  23
HETATM   23  C12 UNL     1      -0.460   3.373  15.322  1.00  0.00     0.104 A 
HETATM   24  N4  UNL     1      -0.062   2.346  16.087  1.00  0.00    -0.353 N 
HETATM   25  C13 UNL     1      -1.163   1.600  16.419  1.00  0.00     0.106 A 
ATOM     26  H4  UNL     1       0.898   2.152  16.373  1.00  0.00     0.166 HD
HETATM   27  C14 UNL     1      -2.249   2.200  15.834  1.00  0.00     0.106 A 
HETATM   28  N5  UNL     1      -1.771   3.266  15.184  1.00  0.00    -0.353 N 
ATOM     29  H5  UNL     1      -2.347   3.915  14.647  1.00  0.00     0.166 HD
ENDBRANCH   1  23
TORSDOF 8
ENDMDL
MODEL 2
REMARK VINA RESULT: -7.864139503      1.479      1.706
REMARK  8 active torsions:
REMARK  status: ('A' for Active; 'I' for Inactive)
REMARK    1  A    between atoms: N1_1  and  C1_5 
REMARK    2  A    between atoms: C1_5  and  C2_6 
REMARK    3  A    between atoms: C1_5  and  C4_10 
REMARK    4  A    between atoms: C2_6  and  C3_8 
REMARK       I    between atoms: C4_10  and  N2_12 
REMARK    5  A    between atoms: N2_12  and  C5_14 
REMARK    6  A    between atoms: C5_14  and  C6_15 
REMARK    7  A    between atoms: C5_14  and  C12_23 
REMARK    8  A    between atoms: C6_15  and  C7_16 
ROOT
HETATM    1  C5  UNL     1       0.174   4.495  14.623  1.00  0.00     0.156 C 
ENDROOT
BRANCH   1   2
HETATM    2  N2  UNL     1      -0.247   5.706  15.258  1.00  0.00    -0.347 N 
HETATM    3  C4  UNL     1       0.692   6.631  15.782  1.00  0.00     0.256 C 
HETATM    4  O2  UNL     1       1.901   6.375  15.685  1.00  0.00    -0.271 OA
ATOM      5  H2  UNL     1      -1.245   5.909  15.336  1.00  0.00     0.163 HD
BRANCH   3   6
HETATM    6  C1  UNL     1       0.210   7.870  16.430  1.00  0.00     0.344 C 
BRANCH   6   7
HETATM    7  N1  UNL     1       0.999   9.024  16.071  1.00  0.00    -0.059 N 
ATOM      8  H13 UNL     1       1.299   9.564  16.881  1.00  0.00     0.275 HD
ATOM      9  H12 UNL     1       1.924   8.774  15.722  1.00  0.00     0.275 HD
ATOM     10  H11 UNL     1       0.463   9.578  15.403  1.00  0.00     0.275 HD
ENDBRANCH   6   7
BRANCH   6  11
HETATM   11  C2  UNL     1       0.200   7.763  17.913  1.00  0.00     0.176 C 
HETATM   12  O1  UNL     1       1.245   7.961  18.535  1.00  0.00    -0.294 OA
BRANCH  11  13
HETATM   13  C3  UNL     1      -1.000   7.429  18.714  1.00  0.00     0.167 C 
HETATM   14  S1  UNL     1      -2.453   8.016  17.797  1.00  0.00    -0.090 SA
ENDBRANCH  11  13
ENDBRANCH   6  11
ENDBRANCH   3   6
ENDBRANCH   1   2
BRANCH   1  15
HETATM   15  C6  UNL     1      -0.037   4.506  13.129  1.00  0.00     0.073 C 
BRANCH  15  16
HETATM   16  C7  UNL     1       0.664   3.458  12.413  1.00  0.00    -0.040 A 
HETATM   17  C8  UNL     1       0.276   3.103  11.145  1.00  0.00     0.010 A 
HETATM   18  C9  UNL     1       0.934   2.098  10.434  1.00  0.00     0.018 A 
HETATM   19  C10 UNL     1       1.990   1.485  11.074  1.00  0.00     0.087 A 
HETATM   20  N3  UNL     1       2.385   1.812  12.302  1.00  0.00    -0.375 N 
HETATM   21  C11 UNL     1       1.727   2.799  12.980  1.00  0.00     0.094 A 
ATOM     22  H3  UNL     1       3.173   1.329  12.734  1.00  0.00     0.164 HD
ENDBRANCH  15  16
ENDBRANCH   1  15
BRANCH   1  23
HETATM   23  C12 UNL     1      -0.569   3.341  15.167  1.00  0.00     0.104 A 
HETATM   24  N4  UNL     1      -1.847   3.045  14.894  1.00  0.00    -0.353 N 
HETATM   25  C13 UNL     1      -2.185   1.907  15.579  1.00  0.00     0.106 A 
ATOM     26  H4  UNL     1      -2.465   3.576  14.279  1.00  0.00     0.166 HD
HETATM   27  C14 UNL     1      -1.076   1.514  16.282  1.00  0.00     0.106 A 
HETATM   28  N5  UNL     1      -0.127   2.413  15.999  1.00  0.00    -0.353 N 
ATOM     29  H5  UNL     1       0.820   2.386  16.379  1.00  0.00     0.166 HD
ENDBRANCH   1  23
TORSDOF 8
ENDMDL
MODEL 3
REMARK VINA RESULT: -7.851636058      1.845      2.046
REMARK  8 active torsions:
REMARK  status: ('A' for Active; 'I' for Inactive)
REMARK    1  A    between atoms: N1_1  and  C1_5 
REMARK    2  A    between atoms: C1_5  and  C2_6 
REMARK    3  A    between atoms: C1_5  and  C4_10 
REMARK    4  A    between atoms: C2_6  and  C3_8 
REMARK       I    between atoms: C4_10  and  N2_12 
REMARK    5  A    between atoms: N2_12  and  C5_14 
REMARK    6  A    between atoms: C5_14  and  C6_15 
REMARK    7  A    between atoms: C5_14  and  C12_23 
REMARK    8  A    between atoms: C6_15  and  C7_16 
ROOT
HETATM    1  C5  UNL     1       0.500   4.368  14.811  1.00  0.00     0.156 C 
ENDROOT
BRANCH   1   2
HETATM    2  N2  UNL     1       1.041   5.588  15.329  1.00  0.00    -0.347 N 
HETATM    3  C4  UNL     1       0.357   6.822  15.180  1.00  0.00     0.256 C 
HETATM    4  O2  UNL     1      -0.730   6.834  14.586  1.00  0.00    -0.271 OA
ATOM      5  H2  UNL     1       1.938   5.570  15.815  1.00  0.00     0.163 HD
BRANCH   3   6
HETATM    6  C1  UNL     1       0.955   8.056  15.732  1.00  0.00     0.344 C 
BRANCH   6   7
HETATM    7  N1  UNL     1       2.393   8.078  15.607  1.00  0.00    -0.059 N 
ATOM      8  H13 UNL     1       2.709   7.850  14.664  1.00  0.00     0.275 HD
ATOM      9  H12 UNL     1       2.779   9.020  15.657  1.00  0.00     0.275 HD
ATOM     10  H11 UNL     1       2.781   7.454  16.315  1.00  0.00     0.275 HD
ENDBRANCH   6   7
BRANCH   6  11
HETATM   11  C2  UNL     1       0.615   8.253  17.166  1.00  0.00     0.176 C 
HETATM   12  O1  UNL     1       1.269   7.658  18.024  1.00  0.00    -0.294 OA
BRANCH  11  13
HETATM   13  C3  UNL     1      -0.474   9.134  17.648  1.00  0.00     0.167 C 
HETATM   14  S1  UNL     1      -0.436   9.113  19.463  1.00  0.00    -0.090 SA
ENDBRANCH  11  13
ENDBRANCH   6  11
ENDBRANCH   3   6
ENDBRANCH   1   2
BRANCH   1  15
HETATM   15  C6  UNL     1       0.138   4.454  13.349  1.00  0.00     0.073 C 
BRANCH  15  16
HETATM   16  C7  UNL     1       0.721   3.419  12.520  1.00  0.00    -0.040 A 
HETATM   17  C8  UNL     1       0.322   3.265  11.216  1.00  0.00     0.010 A 
HETATM   18  C9  UNL     1       0.869   2.277  10.396  1.00  0.00     0.018 A 
HETATM   19  C10 UNL     1       1.827   1.466  10.967  1.00  0.00     0.087 A 
HETATM   20  N3  UNL     1       2.229   1.596  12.229  1.00  0.00    -0.375 N 
HETATM   21  C11 UNL     1       1.682   2.571  13.014  1.00  0.00     0.094 A 
ATOM     22  H3  UNL     1       2.942   0.971  12.607  1.00  0.00     0.164 HD
ENDBRANCH  15  16
ENDBRANCH   1  15
BRANCH   1  23
HETATM   23  C12 UNL     1      -0.720   3.989  15.550  1.00  0.00     0.104 A 
HETATM   24  N4  UNL     1      -1.963   3.999  15.047  1.00  0.00    -0.353 N 
HETATM   25  C13 UNL     1      -2.829   3.586  16.025  1.00  0.00     0.106 A 
ATOM     26  H4  UNL     1      -2.220   4.268  14.098  1.00  0.00     0.166 HD
HETATM   27  C14 UNL     1      -2.081   3.323  17.144  1.00  0.00     0.106 A 
HETATM   28  N5  UNL     1      -0.814   3.582  16.805  1.00  0.00    -0.353 N 
ATOM     29  H5  UNL     1      -0.019   3.478  17.436  1.00  0.00     0.166 HD
ENDBRANCH   1  23
TORSDOF 8
ENDMDL
MODEL 4
REMARK VINA RESULT: -7.827561133      3.556      6.668
REMARK  8 active torsions:
REMARK  status: ('A' for Active; 'I' for Inactive)
REMARK    1  A    between atoms: N1_1  and  C1_5 
REMARK    2  A    between atoms: C1_5  and  C2_6 
REMARK    3  A    between atoms: C1_5  and  C4_10 
REMARK    4  A    between atoms: C2_6  and  C3_8 
REMARK       I    between atoms: C4_10  and  N2_12 
REMARK    5  A    between atoms: N2_12  and  C5_14 
REMARK    6  A    between atoms: C5_14  and  C6_15 
REMARK    7  A    between atoms: C5_14  and  C12_23 
REMARK    8  A    between atoms: C6_15  and  C7_16 
ROOT
HETATM    1  C5  UNL     1      -1.196   2.156  13.946  1.00  0.00     0.156 C 
ENDROOT
BRANCH   1   2
HETATM    2  N2  UNL     1      -0.396   1.617  12.889  1.00  0.00    -0.347 N 
HETATM    3  C4  UNL     1       0.513   2.427  12.162  1.00  0.00     0.256 C 
HETATM    4  O2  UNL     1       0.609   3.628  12.455  1.00  0.00    -0.271 OA
ATOM      5  H2  UNL     1      -0.482   0.627  12.653  1.00  0.00     0.163 HD
BRANCH   3   6
HETATM    6  C1  UNL     1       1.319   1.825  11.078  1.00  0.00     0.344 C 
BRANCH   6   7
HETATM    7  N1  UNL     1       0.616   1.797   9.818  1.00  0.00    -0.059 N 
ATOM      8  H13 UNL     1      -0.261   2.317   9.845  1.00  0.00     0.275 HD
ATOM      9  H12 UNL     1       1.080   2.347   9.096  1.00  0.00     0.275 HD
ATOM     10  H11 UNL     1       0.488   0.821   9.549  1.00  0.00     0.275 HD
ENDBRANCH   6   7
BRANCH   6  11
HETATM   11  C2  UNL     1       1.745   0.437  11.399  1.00  0.00     0.176 C 
HETATM   12  O1  UNL     1       0.956  -0.491  11.210  1.00  0.00    -0.294 OA
BRANCH  11  13
HETATM   13  C3  UNL     1       3.078   0.081  11.937  1.00  0.00     0.167 C 
HETATM   14  S1  UNL     1       2.999   0.229  13.745  1.00  0.00    -0.090 SA
ENDBRANCH  11  13
ENDBRANCH   6  11
ENDBRANCH   3   6
ENDBRANCH   1   2
BRANCH   1  15
HETATM   15  C6  UNL     1      -0.692   1.786  15.319  1.00  0.00     0.073 C 
BRANCH  15  16
HETATM   16  C7  UNL     1      -0.777   2.848  16.301  1.00  0.00    -0.040 A 
HETATM   17  C8  UNL     1      -1.798   2.867  17.218  1.00  0.00     0.010 A 
HETATM   18  C9  UNL     1      -1.902   3.879  18.175  1.00  0.00     0.018 A 
HETATM   19  C10 UNL     1      -0.929   4.854  18.145  1.00  0.00     0.087 A 
HETATM   20  N3  UNL     1       0.070   4.857  17.266  1.00  0.00    -0.375 N 
HETATM   21  C11 UNL     1       0.154   3.857  16.338  1.00  0.00     0.094 A 
ATOM     22  H3  UNL     1       0.767   5.601  17.283  1.00  0.00     0.164 HD
ENDBRANCH  15  16
ENDBRANCH   1  15
BRANCH   1  23
HETATM   23  C12 UNL     1      -2.587   1.675  13.839  1.00  0.00     0.104 A 
HETATM   24  N4  UNL     1      -2.950   0.410  13.582  1.00  0.00    -0.353 N 
HETATM   25  C13 UNL     1      -4.319   0.347  13.560  1.00  0.00     0.106 A 
ATOM     26  H4  UNL     1      -2.315  -0.374  13.429  1.00  0.00     0.166 HD
HETATM   27  C14 UNL     1      -4.785   1.613  13.810  1.00  0.00     0.106 A 
HETATM   28  N5  UNL     1      -3.700   2.377  13.971  1.00  0.00    -0.353 N 
ATOM     29  H5  UNL     1      -3.728   3.377  14.171  1.00  0.00     0.166 HD
ENDBRANCH   1  23
TORSDOF 8
ENDMDL
MODEL 5
REMARK VINA RESULT: -7.802030967      1.375      1.500
REMARK  8 active torsions:
REMARK  status: ('A' for Active; 'I' for Inactive)
REMARK    1  A    between atoms: N1_1  and  C1_5 
REMARK    2  A    between atoms: C1_5  and  C2_6 
REMARK    3  A    between atoms: C1_5  and  C4_10 
REMARK    4  A    between atoms: C2_6  and  C3_8 
REMARK       I    between atoms: C4_10  and  N2_12 
REMARK    5  A    between atoms: N2_12  and  C5_14 
REMARK    6  A    between atoms: C5_14  and  C6_15 
REMARK    7  A    between atoms: C5_14  and  C12_23 
REMARK    8  A    between atoms: C6_15  and  C7_16 
ROOT
HETATM    1  C5  UNL     1      -0.028   4.246  14.752  1.00  0.00     0.156 C 
ENDROOT
BRANCH   1   2
HETATM    2  N2  UNL     1      -0.140   5.420  15.563  1.00  0.00    -0.347 N 
HETATM    3  C4  UNL     1       0.067   5.372  16.966  1.00  0.00     0.256 C 
HETATM    4  O2  UNL     1       0.349   4.286  17.492  1.00  0.00    -0.271 OA
ATOM      5  H2  UNL     1      -0.374   6.311  15.123  1.00  0.00     0.163 HD
BRANCH   3   6
HETATM    6  C1  UNL     1      -0.059   6.612  17.763  1.00  0.00     0.344 C 
BRANCH   6   7
HETATM    7  N1  UNL     1      -1.435   6.992  17.977  1.00  0.00    -0.059 N 
ATOM      8  H13 UNL     1      -1.686   7.854  17.492  1.00  0.00     0.275 HD
ATOM      9  H12 UNL     1      -2.093   6.373  17.505  1.00  0.00     0.275 HD
ATOM     10  H11 UNL     1      -1.596   7.045  18.983  1.00  0.00     0.275 HD
ENDBRANCH   6   7
BRANCH   6  11
HETATM   11  C2  UNL     1       0.644   7.760  17.133  1.00  0.00     0.176 C 
HETATM   12  O1  UNL     1       1.806   7.613  16.749  1.00  0.00    -0.294 OA
BRANCH  11  13
HETATM   13  C3  UNL     1       0.036   9.094  16.928  1.00  0.00     0.167 C 
HETATM   14  S1  UNL     1      -0.374   9.248  15.166  1.00  0.00    -0.090 SA
ENDBRANCH  11  13
ENDBRANCH   6  11
ENDBRANCH   3   6
ENDBRANCH   1   2
BRANCH   1  15
HETATM   15  C6  UNL     1       0.100   4.553  13.281  1.00  0.00     0.073 C 
BRANCH  15  16
HETATM   16  C7  UNL     1       0.692   3.491  12.492  1.00  0.00    -0.040 A 
HETATM   17  C8  UNL     1       0.284   3.274  11.200  1.00  0.00     0.010 A 
HETATM   18  C9  UNL     1       0.839   2.259  10.419  1.00  0.00     0.018 A 
HETATM   19  C10 UNL     1       1.814   1.489  11.016  1.00  0.00     0.087 A 
HETATM   20  N3  UNL     1       2.226   1.680  12.267  1.00  0.00    -0.375 N 
HETATM   21  C11 UNL     1       1.671   2.680  13.014  1.00  0.00     0.094 A 
ATOM     22  H3  UNL     1       2.952   1.084  12.665  1.00  0.00     0.164 HD
ENDBRANCH  15  16
ENDBRANCH   1  15
BRANCH   1  23
HETATM   23  C12 UNL     1      -1.214   3.384  14.925  1.00  0.00     0.104 A 
HETATM   24  N4  UNL     1      -1.243   2.240  15.624  1.00  0.00    -0.353 N 
HETATM   25  C13 UNL     1      -2.511   1.724  15.559  1.00  0.00     0.106 A 
ATOM     26  H4  UNL     1      -0.455   1.824  16.120  1.00  0.00     0.166 HD
HETATM   27  C14 UNL     1      -3.259   2.586  14.798  1.00  0.00     0.106 A 
HETATM   28  N5  UNL     1      -2.430   3.572  14.440  1.00  0.00    -0.353 N 
ATOM     29  H5  UNL     1      -2.701   4.369  13.864  1.00  0.00     0.166 HD
ENDBRANCH   1  23
TORSDOF 8
ENDMDL
