MODEL 1
REMARK VINA RESULT: -4.697663005      0.000      0.000
REMARK  1 active torsions:
REMARK  status: ('A' for Active; 'I' for Inactive)
REMARK    1  A    between atoms: C2_4  and  C3_6 
ROOT
HETATM    1  C3  UNL     1      17.082   3.717  15.277  1.00  0.00     0.046 C 
HETATM    2  C4  UNL     1      17.597   5.070  14.965  1.00  0.00     0.039 C 
HETATM    3  C5  UNL     1      18.140   5.304  13.613  1.00  0.00     0.233 C 
HETATM    4  N2  UNL     1      18.427   4.137  12.838  1.00  0.00    -0.075 N 
ATOM      5  H21 UNL     1      19.236   3.620  13.183  1.00  0.00     0.277 HD
ATOM      6  H22 UNL     1      18.793   4.356  11.912  1.00  0.00     0.277 HD
HETATM    7  C6  UNL     1      17.222   3.333  12.793  1.00  0.00     0.233 C 
HETATM    8  C7  UNL     1      17.015   2.752  14.155  1.00  0.00     0.039 C 
ENDROOT
BRANCH   1   9
HETATM    9  C2  UNL     1      15.709   3.773  15.900  1.00  0.00     0.057 C 
HETATM   10  N1  UNL     1      15.209   2.784  16.539  1.00  0.00    -0.391 N 
HETATM   11  C1  UNL     1      13.892   2.900  17.111  1.00  0.00     0.146 C 
ATOM     12  H1  UNL     1      15.739   1.920  16.643  1.00  0.00     0.159 HD
HETATM   13  S1  UNL     1      14.733   5.271  15.744  1.00  0.00    -0.038 SA
ENDBRANCH   1   9
TORSDOF 1
ENDMDL
MODEL 2
REMARK VINA RESULT: -4.547100936      1.909      4.110
REMARK  1 active torsions:
REMARK  status: ('A' for Active; 'I' for Inactive)
REMARK    1  A    between atoms: C2_4  and  C3_6 
ROOT
HETATM    1  C3  UNL     1      16.666   3.699  15.463  1.00  0.00     0.046 C 
HETATM    2  C4  UNL     1      16.437   2.475  16.264  1.00  0.00     0.039 C 
HETATM    3  C5  UNL     1      15.366   2.508  17.279  1.00  0.00     0.233 C 
HETATM    4  N2  UNL     1      14.870   3.803  17.630  1.00  0.00    -0.075 N 
ATOM      5  H21 UNL     1      15.538   4.351  18.171  1.00  0.00     0.277 HD
ATOM      6  H22 UNL     1      14.128   3.768  18.329  1.00  0.00     0.277 HD
HETATM    7  C6  UNL     1      14.461   4.462  16.406  1.00  0.00     0.233 C 
HETATM    8  C7  UNL     1      15.699   4.807  15.642  1.00  0.00     0.039 C 
ENDROOT
BRANCH   1   9
HETATM    9  C2  UNL     1      16.728   3.396  13.986  1.00  0.00     0.057 C 
HETATM   10  N1  UNL     1      16.821   2.202  13.538  1.00  0.00    -0.391 N 
HETATM   11  C1  UNL     1      16.875   1.979  12.116  1.00  0.00     0.146 C 
ATOM     12  H1  UNL     1      16.856   1.413  14.182  1.00  0.00     0.159 HD
HETATM   13  S1  UNL     1      16.672   4.749  12.809  1.00  0.00    -0.038 SA
ENDBRANCH   1   9
TORSDOF 1
ENDMDL
MODEL 3
REMARK VINA RESULT: -4.515914819      1.867      4.345
REMARK  1 active torsions:
REMARK  status: ('A' for Active; 'I' for Inactive)
REMARK    1  A    between atoms: C2_4  and  C3_6 
ROOT
HETATM    1  C3  UNL     1      17.250   4.486  15.173  1.00  0.00     0.046 C 
HETATM    2  C4  UNL     1      17.204   3.227  15.951  1.00  0.00     0.039 C 
HETATM    3  C5  UNL     1      15.997   2.961  16.758  1.00  0.00     0.233 C 
HETATM    4  N2  UNL     1      15.130   4.076  16.982  1.00  0.00    -0.075 N 
ATOM      5  H21 UNL     1      15.527   4.766  17.620  1.00  0.00     0.277 HD
ATOM      6  H22 UNL     1      14.310   3.835  17.539  1.00  0.00     0.277 HD
HETATM    7  C6  UNL     1      14.790   4.635  15.689  1.00  0.00     0.233 C 
HETATM    8  C7  UNL     1      16.013   5.303  15.150  1.00  0.00     0.039 C 
ENDROOT
BRANCH   1   9
HETATM    9  C2  UNL     1      17.650   4.242  13.739  1.00  0.00     0.057 C 
HETATM   10  N1  UNL     1      18.498   4.981  13.132  1.00  0.00    -0.391 N 
HETATM   11  C1  UNL     1      18.839   4.695  11.762  1.00  0.00     0.146 C 
ATOM     12  H1  UNL     1      18.932   5.767  13.615  1.00  0.00     0.159 HD
HETATM   13  S1  UNL     1      16.915   2.872  12.843  1.00  0.00    -0.038 SA
ENDBRANCH   1   9
TORSDOF 1
ENDMDL
MODEL 4
REMARK VINA RESULT: -4.508401661      2.581      4.362
REMARK  1 active torsions:
REMARK  status: ('A' for Active; 'I' for Inactive)
REMARK    1  A    between atoms: C2_4  and  C3_6 
ROOT
HETATM    1  C3  UNL     1      16.610   3.254  13.451  1.00  0.00     0.046 C 
HETATM    2  C4  UNL     1      16.804   4.705  13.676  1.00  0.00     0.039 C 
HETATM    3  C5  UNL     1      16.963   5.170  15.067  1.00  0.00     0.233 C 
HETATM    4  N2  UNL     1      16.590   4.241  16.089  1.00  0.00    -0.075 N 
ATOM      5  H21 UNL     1      15.582   4.098  16.146  1.00  0.00     0.277 HD
ATOM      6  H22 UNL     1      16.726   4.611  17.029  1.00  0.00     0.277 HD
HETATM    7  C6  UNL     1      17.321   3.012  15.853  1.00  0.00     0.233 C 
HETATM    8  C7  UNL     1      16.745   2.370  14.633  1.00  0.00     0.039 C 
ENDROOT
BRANCH   1   9
HETATM    9  C2  UNL     1      17.542   2.725  12.389  1.00  0.00     0.057 C 
HETATM   10  N1  UNL     1      18.621   3.329  12.065  1.00  0.00    -0.391 N 
HETATM   11  C1  UNL     1      19.469   2.771  11.043  1.00  0.00     0.146 C 
ATOM     12  H1  UNL     1      18.879   4.201  12.526  1.00  0.00     0.159 HD
HETATM   13  S1  UNL     1      17.133   1.195  11.545  1.00  0.00    -0.038 SA
ENDBRANCH   1   9
TORSDOF 1
ENDMDL
MODEL 5
REMARK VINA RESULT: -4.486659632      2.536      3.787
REMARK  1 active torsions:
REMARK  status: ('A' for Active; 'I' for Inactive)
REMARK    1  A    between atoms: C2_4  and  C3_6 
ROOT
HETATM    1  C3  UNL     1      16.851   2.837  12.479  1.00  0.00     0.046 C 
HETATM    2  C4  UNL     1      16.880   1.356  12.475  1.00  0.00     0.039 C 
HETATM    3  C5  UNL     1      17.651   0.687  11.409  1.00  0.00     0.233 C 
HETATM    4  N2  UNL     1      18.023   1.501  10.294  1.00  0.00    -0.075 N 
ATOM      5  H21 UNL     1      17.231   1.751   9.702  1.00  0.00     0.277 HD
ATOM      6  H22 UNL     1      18.559   0.992   9.592  1.00  0.00     0.277 HD
HETATM    7  C6  UNL     1      18.727   2.658  10.810  1.00  0.00     0.233 C 
HETATM    8  C7  UNL     1      17.725   3.526  11.501  1.00  0.00     0.039 C 
ENDROOT
BRANCH   1   9
HETATM    9  C2  UNL     1      17.178   3.397  13.841  1.00  0.00     0.057 C 
HETATM   10  N1  UNL     1      17.835   4.483  13.992  1.00  0.00    -0.391 N 
HETATM   11  C1  UNL     1      18.115   4.967  15.320  1.00  0.00     0.146 C 
ATOM     12  H1  UNL     1      18.160   5.004  13.178  1.00  0.00     0.159 HD
HETATM   13  S1  UNL     1      16.631   2.519  15.307  1.00  0.00    -0.038 SA
ENDBRANCH   1   9
TORSDOF 1
ENDMDL
