MODEL 1
REMARK VINA RESULT: -4.629907958      0.000      0.000
REMARK  1 active torsions:
REMARK  status: ('A' for Active; 'I' for Inactive)
REMARK    1  A    between atoms: N1_2  and  C2_4 
ROOT
HETATM    1  C2  UNL     1       3.981  -4.180  13.659  1.00  0.00     0.054 C 
HETATM    2  C3  UNL     1       5.351  -4.868  13.807  1.00  0.00     0.040 C 
HETATM    3  C4  UNL     1       3.128  -5.054  12.819  1.00  0.00     0.304 C 
HETATM    4  N2  UNL     1       3.031  -4.406  11.498  1.00  0.00     0.110 N 
HETATM    5  C5  UNL     1       4.353  -4.373  10.865  1.00  0.00     0.275 C 
HETATM    6  C6  UNL     1       5.202  -3.427  11.659  1.00  0.00     0.041 C 
HETATM    7  C7  UNL     1       4.236  -2.999  12.761  1.00  0.00     0.065 C 
HETATM    8  C8  UNL     1       2.947  -2.998  11.934  1.00  0.00     0.324 C 
HETATM    9 CL1  UNL     1       3.107  -2.014  10.480  1.00  0.00    -0.091 Cl
ENDROOT
BRANCH   1  10
HETATM   10  N1  UNL     1       3.550  -3.896  14.957  1.00  0.00    -0.415 N 
HETATM   11  C1  UNL     1       4.154  -2.856  15.691  1.00  0.00     0.140 C 
ATOM     12  H1  UNL     1       2.796  -4.442  15.373  1.00  0.00     0.153 HD
ENDBRANCH   1  10
TORSDOF 1
ENDMDL
MODEL 2
REMARK VINA RESULT: -4.548289773      2.719      3.947
REMARK  1 active torsions:
REMARK  status: ('A' for Active; 'I' for Inactive)
REMARK    1  A    between atoms: N1_2  and  C2_4 
ROOT
HETATM    1  C2  UNL     1       4.689  -4.274  12.802  1.00  0.00     0.054 C 
HETATM    2  C3  UNL     1       4.047  -2.966  13.299  1.00  0.00     0.040 C 
HETATM    3  C4  UNL     1       3.623  -5.301  12.733  1.00  0.00     0.304 C 
HETATM    4  N2  UNL     1       3.842  -6.216  13.868  1.00  0.00     0.110 N 
HETATM    5  C5  UNL     1       3.652  -5.494  15.130  1.00  0.00     0.275 C 
HETATM    6  C6  UNL     1       4.773  -4.508  15.251  1.00  0.00     0.041 C 
HETATM    7  C7  UNL     1       5.537  -4.750  13.951  1.00  0.00     0.065 C 
HETATM    8  C8  UNL     1       5.318  -6.263  13.847  1.00  0.00     0.324 C 
HETATM    9 CL1  UNL     1       5.812  -7.094  15.321  1.00  0.00    -0.091 Cl
ENDROOT
BRANCH   1  10
HETATM   10  N1  UNL     1       5.363  -3.949  11.622  1.00  0.00    -0.415 N 
HETATM   11  C1  UNL     1       5.059  -2.754  10.941  1.00  0.00     0.140 C 
ATOM     12  H1  UNL     1       6.076  -4.578  11.254  1.00  0.00     0.153 HD
ENDBRANCH   1  10
TORSDOF 1
ENDMDL
MODEL 3
REMARK VINA RESULT: -4.504119120      2.407      3.505
REMARK  1 active torsions:
REMARK  status: ('A' for Active; 'I' for Inactive)
REMARK    1  A    between atoms: N1_2  and  C2_4 
ROOT
HETATM    1  C2  UNL     1       3.765  -2.138  11.566  1.00  0.00     0.054 C 
HETATM    2  C3  UNL     1       2.489  -2.235  10.709  1.00  0.00     0.040 C 
HETATM    3  C4  UNL     1       4.888  -2.679  10.763  1.00  0.00     0.304 C 
HETATM    4  N2  UNL     1       5.214  -4.001  11.329  1.00  0.00     0.110 N 
HETATM    5  C5  UNL     1       4.082  -4.913  11.139  1.00  0.00     0.275 C 
HETATM    6  C6  UNL     1       2.966  -4.424  12.011  1.00  0.00     0.041 C 
HETATM    7  C7  UNL     1       3.590  -3.180  12.639  1.00  0.00     0.065 C 
HETATM    8  C8  UNL     1       5.028  -3.693  12.761  1.00  0.00     0.324 C 
HETATM    9 CL1  UNL     1       5.098  -5.233  13.616  1.00  0.00    -0.091 Cl
ENDROOT
BRANCH   1  10
HETATM   10  N1  UNL     1       3.844  -0.811  11.992  1.00  0.00    -0.415 N 
HETATM   11  C1  UNL     1       3.019   0.170  11.407  1.00  0.00     0.140 C 
ATOM     12  H1  UNL     1       4.501  -0.551  12.727  1.00  0.00     0.153 HD
ENDBRANCH   1  10
TORSDOF 1
ENDMDL
MODEL 4
REMARK VINA RESULT: -4.450232419      3.681      5.102
REMARK  1 active torsions:
REMARK  status: ('A' for Active; 'I' for Inactive)
REMARK    1  A    between atoms: N1_2  and  C2_4 
ROOT
HETATM    1  C2  UNL     1       4.730  -3.952  15.442  1.00  0.00     0.054 C 
HETATM    2  C3  UNL     1       5.531  -4.386  14.200  1.00  0.00     0.040 C 
HETATM    3  C4  UNL     1       5.027  -2.522  15.692  1.00  0.00     0.304 C 
HETATM    4  N2  UNL     1       5.913  -2.473  16.869  1.00  0.00     0.110 N 
HETATM    5  C5  UNL     1       7.190  -3.120  16.554  1.00  0.00     0.275 C 
HETATM    6  C6  UNL     1       6.916  -4.583  16.381  1.00  0.00     0.041 C 
HETATM    7  C7  UNL     1       5.406  -4.641  16.598  1.00  0.00     0.065 C 
HETATM    8  C8  UNL     1       5.297  -3.550  17.669  1.00  0.00     0.324 C 
HETATM    9 CL1  UNL     1       6.387  -3.855  19.020  1.00  0.00    -0.091 Cl
ENDROOT
BRANCH   1  10
HETATM   10  N1  UNL     1       3.404  -4.311  15.191  1.00  0.00    -0.415 N 
HETATM   11  C1  UNL     1       3.082  -5.642  14.859  1.00  0.00     0.140 C 
ATOM     12  H1  UNL     1       2.667  -3.609  15.247  1.00  0.00     0.153 HD
ENDBRANCH   1  10
TORSDOF 1
ENDMDL
MODEL 5
REMARK VINA RESULT: -4.432517957      1.648      1.955
REMARK  1 active torsions:
REMARK  status: ('A' for Active; 'I' for Inactive)
REMARK    1  A    between atoms: N1_2  and  C2_4 
ROOT
HETATM    1  C2  UNL     1       3.795  -3.223  12.547  1.00  0.00     0.054 C 
HETATM    2  C3  UNL     1       4.934  -4.045  11.915  1.00  0.00     0.040 C 
HETATM    3  C4  UNL     1       2.601  -3.370  11.681  1.00  0.00     0.304 C 
HETATM    4  N2  UNL     1       2.442  -2.094  10.960  1.00  0.00     0.110 N 
HETATM    5  C5  UNL     1       3.586  -1.884  10.068  1.00  0.00     0.275 C 
HETATM    6  C6  UNL     1       4.788  -1.652  10.933  1.00  0.00     0.041 C 
HETATM    7  C7  UNL     1       4.190  -1.786  12.332  1.00  0.00     0.065 C 
HETATM    8  C8  UNL     1       2.819  -1.165  12.044  1.00  0.00     0.324 C 
HETATM    9 CL1  UNL     1       2.970   0.429  11.307  1.00  0.00    -0.091 Cl
ENDROOT
BRANCH   1  10
HETATM   10  N1  UNL     1       3.699  -3.652  13.873  1.00  0.00    -0.415 N 
HETATM   11  C1  UNL     1       4.457  -3.019  14.877  1.00  0.00     0.140 C 
ATOM     12  H1  UNL     1       3.080  -4.426  14.113  1.00  0.00     0.153 HD
ENDBRANCH   1  10
TORSDOF 1
ENDMDL
