MODEL 1
REMARK VINA RESULT: -7.367462550      0.000      0.000
REMARK  0 active torsions:
REMARK  status: ('A' for Active; 'I' for Inactive)
ROOT
HETATM    1  F1  UNL     1       0.768  50.158   1.073  1.00  0.00    -0.206 F 
HETATM    2  C1  UNL     1       1.716  49.877   0.177  1.00  0.00     0.119 A 
HETATM    3  C2  UNL     1       2.695  48.956   0.460  1.00  0.00     0.045 A 
HETATM    4  C3  UNL     1       3.681  48.657  -0.463  1.00  0.00     0.042 A 
HETATM    5  C4  UNL     1       3.739  49.260  -1.708  1.00  0.00     0.102 A 
HETATM    6  C5  UNL     1       2.757  50.195  -2.012  1.00  0.00     0.104 A 
HETATM    7  C6  UNL     1       1.794  50.466  -1.072  1.00  0.00     0.081 A 
HETATM    8  O1  UNL     1       2.757  50.849  -3.253  1.00  0.00    -0.348 OA
HETATM    9  C7  UNL     1       3.882  51.605  -3.734  1.00  0.00     0.176 C 
HETATM   10  C8  UNL     1       3.514  53.070  -3.483  1.00  0.00     0.029 C 
HETATM   11  C9  UNL     1       4.143  53.990  -4.481  1.00  0.00     0.028 C 
HETATM   12  C10 UNL     1       3.082  54.566  -5.418  1.00  0.00     0.167 C 
HETATM   13  O2  UNL     1       2.343  53.564  -6.009  1.00  0.00    -0.389 OA
HETATM   14  C11 UNL     1       1.097  54.016  -6.384  1.00  0.00     0.195 C 
HETATM   15  C12 UNL     1       1.066  54.282  -7.891  1.00  0.00     0.258 C 
HETATM   16  N1  UNL     1       2.130  53.480  -8.483  1.00  0.00    -0.073 N 
ATOM     17  H11 UNL     1       3.010  53.570  -7.973  1.00  0.00     0.277 HD
ATOM     18  H12 UNL     1       2.443  53.855  -9.378  1.00  0.00     0.277 HD
HETATM   19  C13 UNL     1       1.698  52.111  -8.586  1.00  0.00     0.234 C 
HETATM   20  C14 UNL     1       2.868  51.179  -8.419  1.00  0.00     0.055 C 
HETATM   21  C15 UNL     1       2.331  49.763  -8.644  1.00  0.00     0.234 C 
HETATM   22  N2  UNL     1       1.616  49.319  -7.461  1.00  0.00    -0.073 N 
ATOM     23  H21 UNL     1       0.676  49.709  -7.399  1.00  0.00     0.277 HD
ATOM     24  H22 UNL     1       1.989  49.721  -6.602  1.00  0.00     0.277 HD
HETATM   25  C16 UNL     1       1.623  47.870  -7.450  1.00  0.00     0.258 C 
HETATM   26  C17 UNL     1       2.431  47.293  -6.327  1.00  0.00     0.195 C 
HETATM   27  O3  UNL     1       2.835  48.297  -5.476  1.00  0.00    -0.387 OA
HETATM   28  C18 UNL     1       3.303  47.786  -4.250  1.00  0.00     0.194 C 
HETATM   29  C19 UNL     1       4.628  48.348  -3.873  1.00  0.00     0.201 C 
HETATM   30  O4  UNL     1       4.718  48.961  -2.627  1.00  0.00    -0.346 OA
ENDROOT
TORSDOF 0
ENDMDL
MODEL 2
REMARK VINA RESULT: -7.073766172      2.539      3.568
REMARK  0 active torsions:
REMARK  status: ('A' for Active; 'I' for Inactive)
ROOT
HETATM    1  F1  UNL     1       1.963  55.888  -1.599  1.00  0.00    -0.206 F 
HETATM    2  C1  UNL     1       2.431  54.683  -1.931  1.00  0.00     0.119 A 
HETATM    3  C2  UNL     1       3.169  53.949  -1.034  1.00  0.00     0.045 A 
HETATM    4  C3  UNL     1       3.657  52.699  -1.368  1.00  0.00     0.042 A 
HETATM    5  C4  UNL     1       3.434  52.121  -2.607  1.00  0.00     0.102 A 
HETATM    6  C5  UNL     1       2.690  52.849  -3.527  1.00  0.00     0.104 A 
HETATM    7  C6  UNL     1       2.221  54.087  -3.160  1.00  0.00     0.081 A 
HETATM    8  O1  UNL     1       2.430  52.329  -4.803  1.00  0.00    -0.348 OA
HETATM    9  C7  UNL     1       3.474  51.914  -5.701  1.00  0.00     0.176 C 
HETATM   10  C8  UNL     1       3.614  53.062  -6.705  1.00  0.00     0.029 C 
HETATM   11  C9  UNL     1       4.075  52.587  -8.046  1.00  0.00     0.028 C 
HETATM   12  C10 UNL     1       2.945  52.701  -9.070  1.00  0.00     0.167 C 
HETATM   13  O2  UNL     1       1.811  52.050  -8.634  1.00  0.00    -0.389 OA
HETATM   14  C11 UNL     1       0.678  52.576  -9.214  1.00  0.00     0.195 C 
HETATM   15  C12 UNL     1       0.196  51.666 -10.346  1.00  0.00     0.258 C 
HETATM   16  N1  UNL     1       0.738  50.338 -10.079  1.00  0.00    -0.073 N 
ATOM     17  H11 UNL     1       1.730  50.367  -9.843  1.00  0.00     0.277 HD
ATOM     18  H12 UNL     1       0.805  49.772 -10.925  1.00  0.00     0.277 HD
HETATM   19  C13 UNL     1      -0.047  49.697  -9.056  1.00  0.00     0.234 C 
HETATM   20  C14 UNL     1       0.820  48.791  -8.223  1.00  0.00     0.055 C 
HETATM   21  C15 UNL     1      -0.114  48.083  -7.237  1.00  0.00     0.234 C 
HETATM   22  N2  UNL     1      -0.462  48.989  -6.159  1.00  0.00    -0.073 N 
ATOM     23  H21 UNL     1      -1.184  49.659  -6.425  1.00  0.00     0.277 HD
ATOM     24  H22 UNL     1       0.278  49.660  -5.954  1.00  0.00     0.277 HD
HETATM   25  C16 UNL     1      -0.832  48.194  -5.006  1.00  0.00     0.258 C 
HETATM   26  C17 UNL     1       0.134  48.322  -3.867  1.00  0.00     0.195 C 
HETATM   27  O3  UNL     1       1.058  49.305  -4.144  1.00  0.00    -0.387 OA
HETATM   28  C18 UNL     1       1.771  49.691  -2.992  1.00  0.00     0.194 C 
HETATM   29  C19 UNL     1       3.242  49.691  -3.214  1.00  0.00     0.201 C 
HETATM   30  O4  UNL     1       3.917  50.877  -2.937  1.00  0.00    -0.346 OA
ENDROOT
TORSDOF 0
ENDMDL
MODEL 3
REMARK VINA RESULT: -6.945036170      2.404      4.766
REMARK  0 active torsions:
REMARK  status: ('A' for Active; 'I' for Inactive)
ROOT
HETATM    1  F1  UNL     1       6.670  47.348  -3.197  1.00  0.00    -0.206 F 
HETATM    2  C1  UNL     1       5.689  48.193  -2.872  1.00  0.00     0.119 A 
HETATM    3  C2  UNL     1       5.463  48.530  -1.559  1.00  0.00     0.045 A 
HETATM    4  C3  UNL     1       4.450  49.405  -1.213  1.00  0.00     0.042 A 
HETATM    5  C4  UNL     1       3.615  49.984  -2.155  1.00  0.00     0.102 A 
HETATM    6  C5  UNL     1       3.828  49.654  -3.487  1.00  0.00     0.104 A 
HETATM    7  C6  UNL     1       4.844  48.783  -3.794  1.00  0.00     0.081 A 
HETATM    8  O1  UNL     1       3.018  50.199  -4.494  1.00  0.00    -0.348 OA
HETATM    9  C7  UNL     1       1.587  50.061  -4.500  1.00  0.00     0.176 C 
HETATM   10  C8  UNL     1       1.298  48.949  -5.512  1.00  0.00     0.029 C 
HETATM   11  C9  UNL     1      -0.031  49.119  -6.176  1.00  0.00     0.028 C 
HETATM   12  C10 UNL     1       0.153  49.508  -7.644  1.00  0.00     0.167 C 
HETATM   13  O2  UNL     1       0.957  50.621  -7.767  1.00  0.00    -0.389 OA
HETATM   14  C11 UNL     1       1.573  50.659  -8.998  1.00  0.00     0.195 C 
HETATM   15  C12 UNL     1       0.858  51.656  -9.913  1.00  0.00     0.258 C 
HETATM   16  N1  UNL     1       0.151  52.592  -9.046  1.00  0.00    -0.073 N 
ATOM     17  H11 UNL     1      -0.373  52.117  -8.311  1.00  0.00     0.277 HD
ATOM     18  H12 UNL     1      -0.634  53.039  -9.519  1.00  0.00     0.277 HD
HETATM   19  C13 UNL     1       1.085  53.552  -8.515  1.00  0.00     0.234 C 
HETATM   20  C14 UNL     1       0.666  53.980  -7.134  1.00  0.00     0.055 C 
HETATM   21  C15 UNL     1       1.653  55.067  -6.699  1.00  0.00     0.234 C 
HETATM   22  N2  UNL     1       2.904  54.454  -6.292  1.00  0.00    -0.073 N 
ATOM     23  H21 UNL     1       3.487  54.185  -7.085  1.00  0.00     0.277 HD
ATOM     24  H22 UNL     1       2.776  53.524  -5.894  1.00  0.00     0.277 HD
HETATM   25  C16 UNL     1       3.575  55.363  -5.386  1.00  0.00     0.258 C 
HETATM   26  C17 UNL     1       3.668  54.838  -3.985  1.00  0.00     0.195 C 
HETATM   27  O3  UNL     1       3.232  53.533  -3.944  1.00  0.00    -0.387 OA
HETATM   28  C18 UNL     1       3.603  52.895  -2.744  1.00  0.00     0.194 C 
HETATM   29  C19 UNL     1       2.455  52.211  -2.091  1.00  0.00     0.201 C 
HETATM   30  O4  UNL     1       2.610  50.856  -1.810  1.00  0.00    -0.346 OA
ENDROOT
TORSDOF 0
ENDMDL
MODEL 4
REMARK VINA RESULT: -6.841832407      3.342      7.570
REMARK  0 active torsions:
REMARK  status: ('A' for Active; 'I' for Inactive)
ROOT
HETATM    1  F1  UNL     1      -2.089  51.649  -9.881  1.00  0.00    -0.206 F 
HETATM    2  C1  UNL     1      -0.833  51.807  -9.457  1.00  0.00     0.119 A 
HETATM    3  C2  UNL     1       0.066  52.538 -10.195  1.00  0.00     0.045 A 
HETATM    4  C3  UNL     1       1.369  52.708  -9.764  1.00  0.00     0.042 A 
HETATM    5  C4  UNL     1       1.837  52.162  -8.580  1.00  0.00     0.102 A 
HETATM    6  C5  UNL     1       0.941  51.419  -7.821  1.00  0.00     0.104 A 
HETATM    7  C6  UNL     1      -0.344  51.271  -8.281  1.00  0.00     0.081 A 
HETATM    8  O1  UNL     1       1.347  50.831  -6.615  1.00  0.00    -0.348 OA
HETATM    9  C7  UNL     1       2.457  49.921  -6.528  1.00  0.00     0.176 C 
HETATM   10  C8  UNL     1       1.825  48.528  -6.457  1.00  0.00     0.029 C 
HETATM   11  C9  UNL     1       2.669  47.562  -5.687  1.00  0.00     0.028 C 
HETATM   12  C10 UNL     1       2.002  47.215  -4.356  1.00  0.00     0.167 C 
HETATM   13  O2  UNL     1       1.704  48.352  -3.637  1.00  0.00    -0.389 OA
HETATM   14  C11 UNL     1       0.663  48.132  -2.763  1.00  0.00     0.195 C 
HETATM   15  C12 UNL     1       1.200  47.944  -1.342  1.00  0.00     0.258 C 
HETATM   16  N1  UNL     1       2.510  48.583  -1.299  1.00  0.00    -0.073 N 
ATOM     17  H11 UNL     1       3.091  48.324  -2.096  1.00  0.00     0.277 HD
ATOM     18  H12 UNL     1       3.100  48.203  -0.559  1.00  0.00     0.277 HD
HETATM   19  C13 UNL     1       2.345  50.008  -1.185  1.00  0.00     0.234 C 
HETATM   20  C14 UNL     1       3.466  50.723  -1.891  1.00  0.00     0.055 C 
HETATM   21  C15 UNL     1       3.261  52.218  -1.630  1.00  0.00     0.234 C 
HETATM   22  N2  UNL     1       2.201  52.721  -2.485  1.00  0.00    -0.073 N 
ATOM     23  H21 UNL     1       1.271  52.491  -2.135  1.00  0.00     0.277 HD
ATOM     24  H22 UNL     1       2.141  52.223  -3.372  1.00  0.00     0.277 HD
HETATM   25  C16 UNL     1       2.400  54.145  -2.654  1.00  0.00     0.258 C 
HETATM   26  C17 UNL     1       2.762  54.528  -4.057  1.00  0.00     0.195 C 
HETATM   27  O3  UNL     1       2.653  53.432  -4.884  1.00  0.00    -0.387 OA
HETATM   28  C18 UNL     1       2.656  53.802  -6.244  1.00  0.00     0.194 C 
HETATM   29  C19 UNL     1       3.631  53.009  -7.040  1.00  0.00     0.201 C 
HETATM   30  O4  UNL     1       3.131  52.334  -8.151  1.00  0.00    -0.346 OA
ENDROOT
TORSDOF 0
ENDMDL
MODEL 5
REMARK VINA RESULT: -6.750736444      2.389      2.847
REMARK  0 active torsions:
REMARK  status: ('A' for Active; 'I' for Inactive)
ROOT
HETATM    1  F1  UNL     1      -1.061  46.555  -0.936  1.00  0.00    -0.206 F 
HETATM    2  C1  UNL     1       0.104  47.200  -0.851  1.00  0.00     0.119 A 
HETATM    3  C2  UNL     1       0.965  46.951   0.191  1.00  0.00     0.045 A 
HETATM    4  C3  UNL     1       2.176  47.613   0.287  1.00  0.00     0.042 A 
HETATM    5  C4  UNL     1       2.586  48.550  -0.646  1.00  0.00     0.102 A 
HETATM    6  C5  UNL     1       1.728  48.815  -1.706  1.00  0.00     0.104 A 
HETATM    7  C6  UNL     1       0.534  48.139  -1.770  1.00  0.00     0.081 A 
HETATM    8  O1  UNL     1       2.075  49.756  -2.686  1.00  0.00    -0.348 OA
HETATM    9  C7  UNL     1       2.401  51.121  -2.371  1.00  0.00     0.176 C 
HETATM   10  C8  UNL     1       1.140  51.920  -2.712  1.00  0.00     0.029 C 
HETATM   11  C9  UNL     1       1.453  53.321  -3.131  1.00  0.00     0.028 C 
HETATM   12  C10 UNL     1       1.180  53.505  -4.624  1.00  0.00     0.167 C 
HETATM   13  O2  UNL     1       1.851  52.562  -5.373  1.00  0.00    -0.389 OA
HETATM   14  C11 UNL     1       1.226  52.345  -6.581  1.00  0.00     0.195 C 
HETATM   15  C12 UNL     1       1.973  53.077  -7.698  1.00  0.00     0.258 C 
HETATM   16  N1  UNL     1       3.337  53.285  -7.227  1.00  0.00    -0.073 N 
ATOM     17  H11 UNL     1       3.365  53.654  -6.276  1.00  0.00     0.277 HD
ATOM     18  H12 UNL     1       3.793  54.065  -7.700  1.00  0.00     0.277 HD
HETATM   19  C13 UNL     1       4.081  52.059  -7.358  1.00  0.00     0.234 C 
HETATM   20  C14 UNL     1       5.108  51.952  -6.262  1.00  0.00     0.055 C 
HETATM   21  C15 UNL     1       5.910  50.677  -6.542  1.00  0.00     0.234 C 
HETATM   22  N2  UNL     1       5.138  49.517  -6.138  1.00  0.00    -0.073 N 
ATOM     23  H21 UNL     1       4.422  49.264  -6.818  1.00  0.00     0.277 HD
ATOM     24  H22 UNL     1       4.518  49.710  -5.351  1.00  0.00     0.277 HD
HETATM   25  C16 UNL     1       6.062  48.435  -5.869  1.00  0.00     0.258 C 
HETATM   26  C17 UNL     1       6.106  48.041  -4.423  1.00  0.00     0.195 C 
HETATM   27  O3  UNL     1       5.121  48.706  -3.727  1.00  0.00    -0.387 OA
HETATM   28  C18 UNL     1       4.903  48.135  -2.458  1.00  0.00     0.194 C 
HETATM   29  C19 UNL     1       4.913  49.154  -1.373  1.00  0.00     0.201 C 
HETATM   30  O4  UNL     1       3.790  49.206  -0.551  1.00  0.00    -0.346 OA
ENDROOT
TORSDOF 0
ENDMDL
