MODEL 1
REMARK VINA RESULT: -9.137179333      0.000      0.000
REMARK  7 active torsions:
REMARK  status: ('A' for Active; 'I' for Inactive)
REMARK    1  A    between atoms: C1_2  and  C2_3 
REMARK    2  A    between atoms: C2_3  and  O1_4 
REMARK    3  A    between atoms: C2_3  and  N2_6 
REMARK    4  A    between atoms: N2_6  and  C3_8 
REMARK    5  A    between atoms: C6_13  and  C7_14 
REMARK       I    between atoms: C7_14  and  N5_16 
REMARK    6  A    between atoms: N5_16  and  N6_17 
REMARK    7  A    between atoms: N7_22  and  N8_23 
ROOT
HETATM    1  C3  UNL     1      10.840  -8.590  12.415  1.00  0.00     0.158 A 
HETATM    2  C4  UNL     1      11.288  -9.838  12.927  1.00  0.00     0.117 A 
HETATM    3  N3  UNL     1      10.276 -10.766  13.314  1.00  0.00    -0.096 NA
HETATM    4  C5  UNL     1      12.617 -10.132  13.053  1.00  0.00     0.097 A 
HETATM    5  N4  UNL     1      13.052 -11.392  13.558  1.00  0.00    -0.099 NA
HETATM    6  C6  UNL     1      13.578  -9.220  12.685  1.00  0.00     0.144 A 
HETATM    7  C8  UNL     1      13.149  -8.027  12.193  1.00  0.00     0.286 A 
HETATM    8  O3  UNL     1      13.957  -7.140  11.834  1.00  0.00    -0.265 OA
HETATM    9  N7  UNL     1      11.804  -7.754  12.074  1.00  0.00    -0.207 N 
ENDROOT
BRANCH   1  10
HETATM   10  N2  UNL     1       9.456  -8.417  12.198  1.00  0.00    -0.319 N 
ATOM     11  H2  UNL     1       8.988  -8.209  13.080  1.00  0.00     0.169 HD
BRANCH  10  12
HETATM   12  C2  UNL     1       8.566  -8.439  11.203  1.00  0.00     0.155 C 
BRANCH  12  13
HETATM   13  C1  UNL     1       7.461  -9.294  10.828  1.00  0.00     0.155 C 
HETATM   14  N1  UNL     1       7.588 -10.694  10.731  1.00  0.00    -0.111 NA
ENDBRANCH  12  13
BRANCH  12  15
HETATM   15  O1  UNL     1       8.706  -7.454  10.307  1.00  0.00    -0.345 OA
ATOM     16  H1  UNL     1       8.712  -7.813   9.428  1.00  0.00     0.219 HD
ENDBRANCH  12  15
ENDBRANCH  10  12
ENDBRANCH   1  10
BRANCH   9  17
HETATM   17  N8  UNL     1      11.471  -6.542  11.410  1.00  0.00    -0.334 N 
ATOM     18  H82 UNL     1      10.496  -6.439  11.128  1.00  0.00     0.177 HD
ATOM     19  H81 UNL     1      12.173  -5.806  11.333  1.00  0.00     0.177 HD
ENDBRANCH   9  17
BRANCH   6  20
HETATM   20  C7  UNL     1      15.032  -9.534  12.835  1.00  0.00     0.352 C 
HETATM   21  O2  UNL     1      15.425 -10.458  12.037  1.00  0.00    -0.249 OA
HETATM   22  N5  UNL     1      15.774  -8.868  13.728  1.00  0.00    -0.288 NA
BRANCH  22  23
HETATM   23  N6  UNL     1      16.513  -8.203  14.617  1.00  0.00    -0.276 N 
ATOM     24  H62 UNL     1      15.953  -8.680  13.910  1.00  0.00     0.191 HD
ATOM     25  H61 UNL     1      17.079  -7.696  15.298  1.00  0.00     0.191 HD
ENDBRANCH  22  23
ENDBRANCH   6  20
TORSDOF 7
ENDMDL
MODEL 2
REMARK VINA RESULT: -9.091760990      1.592      2.091
REMARK  7 active torsions:
REMARK  status: ('A' for Active; 'I' for Inactive)
REMARK    1  A    between atoms: C1_2  and  C2_3 
REMARK    2  A    between atoms: C2_3  and  O1_4 
REMARK    3  A    between atoms: C2_3  and  N2_6 
REMARK    4  A    between atoms: N2_6  and  C3_8 
REMARK    5  A    between atoms: C6_13  and  C7_14 
REMARK       I    between atoms: C7_14  and  N5_16 
REMARK    6  A    between atoms: N5_16  and  N6_17 
REMARK    7  A    between atoms: N7_22  and  N8_23 
ROOT
HETATM    1  C3  UNL     1      10.992  -8.044  12.290  1.00  0.00     0.158 A 
HETATM    2  C4  UNL     1      11.531  -9.354  12.406  1.00  0.00     0.117 A 
HETATM    3  N3  UNL     1      10.601 -10.433  12.317  1.00  0.00    -0.096 NA
HETATM    4  C5  UNL     1      12.865  -9.572  12.602  1.00  0.00     0.097 A 
HETATM    5  N4  UNL     1      13.393 -10.892  12.706  1.00  0.00    -0.099 NA
HETATM    6  C6  UNL     1      13.745  -8.519  12.697  1.00  0.00     0.144 A 
HETATM    7  C8  UNL     1      13.230  -7.266  12.583  1.00  0.00     0.286 A 
HETATM    8  O3  UNL     1      13.960  -6.251  12.656  1.00  0.00    -0.265 OA
HETATM    9  N7  UNL     1      11.881  -7.071  12.384  1.00  0.00    -0.207 N 
ENDROOT
BRANCH   1  10
HETATM   10  N2  UNL     1       9.626  -7.911  11.961  1.00  0.00    -0.319 N 
ATOM     11  H2  UNL     1       9.051  -8.362  12.672  1.00  0.00     0.169 HD
BRANCH  10  12
HETATM   12  C2  UNL     1       8.849  -7.383  11.013  1.00  0.00     0.155 C 
BRANCH  12  13
HETATM   13  C1  UNL     1       8.326  -6.065  10.726  1.00  0.00     0.155 C 
HETATM   14  N1  UNL     1       8.627  -4.943  11.522  1.00  0.00    -0.111 NA
ENDBRANCH  12  13
BRANCH  12  15
HETATM   15  O1  UNL     1       8.420  -8.255  10.092  1.00  0.00    -0.345 OA
ATOM     16  H1  UNL     1       8.677  -7.965   9.225  1.00  0.00     0.219 HD
ENDBRANCH  12  15
ENDBRANCH  10  12
ENDBRANCH   1  10
BRANCH   9  17
HETATM   17  N8  UNL     1      11.476  -5.732  12.129  1.00  0.00    -0.334 N 
ATOM     18  H82 UNL     1      10.809  -5.604  11.368  1.00  0.00     0.177 HD
ATOM     19  H81 UNL     1      11.779  -4.991  12.761  1.00  0.00     0.177 HD
ENDBRANCH   9  17
BRANCH   6  20
HETATM   20  C7  UNL     1      15.204  -8.755  12.925  1.00  0.00     0.352 C 
HETATM   21  O2  UNL     1      15.511  -8.794  14.170  1.00  0.00    -0.249 OA
HETATM   22  N5  UNL     1      16.030  -8.905  11.882  1.00  0.00    -0.288 NA
BRANCH  22  23
HETATM   23  N6  UNL     1      16.853  -9.056  10.844  1.00  0.00    -0.276 N 
ATOM     24  H62 UNL     1      16.257  -8.945  11.664  1.00  0.00     0.191 HD
ATOM     25  H61 UNL     1      17.482  -9.171  10.049  1.00  0.00     0.191 HD
ENDBRANCH  22  23
ENDBRANCH   6  20
TORSDOF 7
ENDMDL
MODEL 3
REMARK VINA RESULT: -9.042862444      1.273      1.383
REMARK  7 active torsions:
REMARK  status: ('A' for Active; 'I' for Inactive)
REMARK    1  A    between atoms: C1_2  and  C2_3 
REMARK    2  A    between atoms: C2_3  and  O1_4 
REMARK    3  A    between atoms: C2_3  and  N2_6 
REMARK    4  A    between atoms: N2_6  and  C3_8 
REMARK    5  A    between atoms: C6_13  and  C7_14 
REMARK       I    between atoms: C7_14  and  N5_16 
REMARK    6  A    between atoms: N5_16  and  N6_17 
REMARK    7  A    between atoms: N7_22  and  N8_23 
ROOT
HETATM    1  C3  UNL     1      11.008  -8.144  12.319  1.00  0.00     0.158 A 
HETATM    2  C4  UNL     1      11.573  -9.440  12.465  1.00  0.00     0.117 A 
HETATM    3  N3  UNL     1      10.664 -10.539  12.418  1.00  0.00    -0.096 NA
HETATM    4  C5  UNL     1      12.914  -9.626  12.652  1.00  0.00     0.097 A 
HETATM    5  N4  UNL     1      13.469 -10.933  12.786  1.00  0.00    -0.099 NA
HETATM    6  C6  UNL     1      13.774  -8.554  12.706  1.00  0.00     0.144 A 
HETATM    7  C8  UNL     1      13.232  -7.315  12.563  1.00  0.00     0.286 A 
HETATM    8  O3  UNL     1      13.944  -6.284  12.599  1.00  0.00    -0.265 OA
HETATM    9  N7  UNL     1      11.878  -7.152  12.375  1.00  0.00    -0.207 N 
ENDROOT
BRANCH   1  10
HETATM   10  N2  UNL     1       9.636  -8.048  12.002  1.00  0.00    -0.319 N 
ATOM     11  H2  UNL     1       9.077  -8.100  12.854  1.00  0.00     0.169 HD
BRANCH  10  12
HETATM   12  C2  UNL     1       8.838  -7.909  10.941  1.00  0.00     0.155 C 
BRANCH  12  13
HETATM   13  C1  UNL     1       7.717  -8.639  10.392  1.00  0.00     0.155 C 
HETATM   14  N1  UNL     1       7.373  -9.934  10.827  1.00  0.00    -0.111 NA
ENDBRANCH  12  13
BRANCH  12  15
HETATM   15  O1  UNL     1       9.123  -6.856  10.163  1.00  0.00    -0.345 OA
ATOM     16  H1  UNL     1       9.951  -6.473  10.427  1.00  0.00     0.219 HD
ENDBRANCH  12  15
ENDBRANCH  10  12
ENDBRANCH   1  10
BRANCH   9  17
HETATM   17  N8  UNL     1      11.444  -5.829  12.087  1.00  0.00    -0.334 N 
ATOM     18  H82 UNL     1      11.317  -5.215  12.892  1.00  0.00     0.177 HD
ATOM     19  H81 UNL     1      11.377  -5.526  11.116  1.00  0.00     0.177 HD
ENDBRANCH   9  17
BRANCH   6  20
HETATM   20  C7  UNL     1      15.239  -8.755  12.923  1.00  0.00     0.352 C 
HETATM   21  O2  UNL     1      15.560  -8.766  14.166  1.00  0.00    -0.249 OA
HETATM   22  N5  UNL     1      16.058  -8.907  11.875  1.00  0.00    -0.288 NA
BRANCH  22  23
HETATM   23  N6  UNL     1      16.874  -9.059  10.831  1.00  0.00    -0.276 N 
ATOM     24  H62 UNL     1      16.259  -8.902  11.630  1.00  0.00     0.191 HD
ATOM     25  H61 UNL     1      17.497  -9.176  10.033  1.00  0.00     0.191 HD
ENDBRANCH  22  23
ENDBRANCH   6  20
TORSDOF 7
ENDMDL
MODEL 4
REMARK VINA RESULT: -8.799135986      1.162      2.434
REMARK  7 active torsions:
REMARK  status: ('A' for Active; 'I' for Inactive)
REMARK    1  A    between atoms: C1_2  and  C2_3 
REMARK    2  A    between atoms: C2_3  and  O1_4 
REMARK    3  A    between atoms: C2_3  and  N2_6 
REMARK    4  A    between atoms: N2_6  and  C3_8 
REMARK    5  A    between atoms: C6_13  and  C7_14 
REMARK       I    between atoms: C7_14  and  N5_16 
REMARK    6  A    between atoms: N5_16  and  N6_17 
REMARK    7  A    between atoms: N7_22  and  N8_23 
ROOT
HETATM    1  C3  UNL     1      10.650  -8.768  12.341  1.00  0.00     0.158 A 
HETATM    2  C4  UNL     1      11.680  -7.852  11.989  1.00  0.00     0.117 A 
HETATM    3  N3  UNL     1      11.262  -6.629  11.384  1.00  0.00    -0.096 NA
HETATM    4  C5  UNL     1      12.999  -8.130  12.207  1.00  0.00     0.097 A 
HETATM    5  N4  UNL     1      14.020  -7.198  11.859  1.00  0.00    -0.099 NA
HETATM    6  C6  UNL     1      13.384  -9.320  12.781  1.00  0.00     0.144 A 
HETATM    7  C8  UNL     1      12.399 -10.193  13.120  1.00  0.00     0.286 A 
HETATM    8  O3  UNL     1      12.660 -11.299  13.648  1.00  0.00    -0.265 OA
HETATM    9  N7  UNL     1      11.074  -9.891  12.892  1.00  0.00    -0.207 N 
ENDROOT
BRANCH   1  10
HETATM   10  N2  UNL     1       9.310  -8.349  12.201  1.00  0.00    -0.319 N 
ATOM     11  H2  UNL     1       9.007  -7.859  13.043  1.00  0.00     0.169 HD
BRANCH  10  12
HETATM   12  C2  UNL     1       8.312  -8.391  11.314  1.00  0.00     0.155 C 
BRANCH  12  13
HETATM   13  C1  UNL     1       7.413  -9.412  10.824  1.00  0.00     0.155 C 
HETATM   14  N1  UNL     1       7.702 -10.787  10.929  1.00  0.00    -0.111 NA
ENDBRANCH  12  13
BRANCH  12  15
HETATM   15  O1  UNL     1       8.062  -7.228  10.700  1.00  0.00    -0.345 OA
ATOM     16  H1  UNL     1       8.877  -6.780  10.510  1.00  0.00     0.219 HD
ENDBRANCH  12  15
ENDBRANCH  10  12
ENDBRANCH   1  10
BRANCH   9  17
HETATM   17  N8  UNL     1      10.125 -10.807  13.422  1.00  0.00    -0.334 N 
ATOM     18  H82 UNL     1       9.145 -10.548  13.312  1.00  0.00     0.177 HD
ATOM     19  H81 UNL     1      10.448 -11.703  13.787  1.00  0.00     0.177 HD
ENDBRANCH   9  17
BRANCH   6  20
HETATM   20  C7  UNL     1      14.828  -9.632  13.008  1.00  0.00     0.352 C 
HETATM   21  O2  UNL     1      15.230 -10.642  12.328  1.00  0.00    -0.249 OA
HETATM   22  N5  UNL     1      15.553  -8.879  13.845  1.00  0.00    -0.288 NA
BRANCH  22  23
HETATM   23  N6  UNL     1      16.276  -8.128  14.677  1.00  0.00    -0.276 N 
ATOM     24  H62 UNL     1      15.759  -8.713  14.020  1.00  0.00     0.191 HD
ATOM     25  H61 UNL     1      16.828  -7.555  15.314  1.00  0.00     0.191 HD
ENDBRANCH  22  23
ENDBRANCH   6  20
TORSDOF 7
ENDMDL
MODEL 5
REMARK VINA RESULT: -8.676583287      1.152      1.705
REMARK  7 active torsions:
REMARK  status: ('A' for Active; 'I' for Inactive)
REMARK    1  A    between atoms: C1_2  and  C2_3 
REMARK    2  A    between atoms: C2_3  and  O1_4 
REMARK    3  A    between atoms: C2_3  and  N2_6 
REMARK    4  A    between atoms: N2_6  and  C3_8 
REMARK    5  A    between atoms: C6_13  and  C7_14 
REMARK       I    between atoms: C7_14  and  N5_16 
REMARK    6  A    between atoms: N5_16  and  N6_17 
REMARK    7  A    between atoms: N7_22  and  N8_23 
ROOT
HETATM    1  C3  UNL     1      11.074  -8.152  12.349  1.00  0.00     0.158 A 
HETATM    2  C4  UNL     1      11.488  -9.505  12.486  1.00  0.00     0.117 A 
HETATM    3  N3  UNL     1      10.456 -10.490  12.466  1.00  0.00    -0.096 NA
HETATM    4  C5  UNL     1      12.802  -9.846  12.638  1.00  0.00     0.097 A 
HETATM    5  N4  UNL     1      13.204 -11.208  12.763  1.00  0.00    -0.099 NA
HETATM    6  C6  UNL     1      13.782  -8.881  12.666  1.00  0.00     0.144 A 
HETATM    7  C8  UNL     1      13.385  -7.588  12.532  1.00  0.00     0.286 A 
HETATM    8  O3  UNL     1      14.213  -6.647  12.546  1.00  0.00    -0.265 OA
HETATM    9  N7  UNL     1      12.054  -7.268  12.379  1.00  0.00    -0.207 N 
ENDROOT
BRANCH   1  10
HETATM   10  N2  UNL     1       9.714  -7.896  12.068  1.00  0.00    -0.319 N 
ATOM     11  H2  UNL     1       9.132  -8.212  12.843  1.00  0.00     0.169 HD
BRANCH  10  12
HETATM   12  C2  UNL     1       8.950  -7.371  11.107  1.00  0.00     0.155 C 
BRANCH  12  13
HETATM   13  C1  UNL     1       8.505  -6.040  10.757  1.00  0.00     0.155 C 
HETATM   14  N1  UNL     1       8.827  -4.908  11.531  1.00  0.00    -0.111 NA
ENDBRANCH  12  13
BRANCH  12  15
HETATM   15  O1  UNL     1       8.443  -8.264  10.248  1.00  0.00    -0.345 OA
ATOM     16  H1  UNL     1       8.216  -9.064  10.707  1.00  0.00     0.219 HD
ENDBRANCH  12  15
ENDBRANCH  10  12
ENDBRANCH   1  10
BRANCH   9  17
HETATM   17  N8  UNL     1      11.771  -5.904  12.097  1.00  0.00    -0.334 N 
ATOM     18  H82 UNL     1      12.352  -5.464  11.384  1.00  0.00     0.177 HD
ATOM     19  H81 UNL     1      10.959  -5.463  12.531  1.00  0.00     0.177 HD
ENDBRANCH   9  17
BRANCH   6  20
HETATM   20  C7  UNL     1      15.219  -9.252  12.846  1.00  0.00     0.352 C 
HETATM   21  O2  UNL     1      15.637 -10.071  11.951  1.00  0.00    -0.249 OA
HETATM   22  N5  UNL     1      15.924  -8.732  13.858  1.00  0.00    -0.288 NA
BRANCH  22  23
HETATM   23  N6  UNL     1      16.627  -8.213  14.866  1.00  0.00    -0.276 N 
ATOM     24  H62 UNL     1      16.078  -8.571  14.084  1.00  0.00     0.191 HD
ATOM     25  H61 UNL     1      17.164  -7.817  15.637  1.00  0.00     0.191 HD
ENDBRANCH  22  23
ENDBRANCH   6  20
TORSDOF 7
ENDMDL
