MODEL 1
REMARK VINA RESULT: -7.080023052      0.000      0.000
REMARK  12 active torsions:
REMARK  status: ('A' for Active; 'I' for Inactive)
REMARK    1  A    between atoms: C4_6  and  N2_7 
REMARK    2  A    between atoms: N2_7  and  C5_9 
REMARK    3  A    between atoms: C7_11  and  C8_12 
REMARK    4  A    between atoms: C8_12  and  O1_13 
REMARK    5  A    between atoms: C9_16  and  O3_17 
REMARK    6  A    between atoms: O3_17  and  C10_18 
REMARK    7  A    between atoms: C10_18  and  C11_19 
REMARK    8  A    between atoms: C11_19  and  O4_20 
REMARK    9  A    between atoms: C11_19  and  C12_22 
REMARK   10  A    between atoms: C12_22  and  O5_23 
REMARK   11  A    between atoms: C13_28  and  O7_29 
REMARK   12  A    between atoms: N5_37  and  O9_39 
ROOT
HETATM    1  C1  UNL     1      -9.951  27.851 -16.091  1.00  0.00     0.024 C 
HETATM    2  C2  UNL     1      -9.404  29.038 -15.977  1.00  0.00     0.016 C 
HETATM    3  C3  UNL     1      -8.575  29.737 -16.943  1.00  0.00     0.192 C 
HETATM    4  N1  UNL     1      -7.951  28.994 -17.987  1.00  0.00    -0.213 N 
ATOM      5  H1  UNL     1      -8.240  28.111 -18.410  1.00  0.00     0.178 HD
HETATM    6  C4  UNL     1      -6.798  29.822 -18.293  1.00  0.00     0.675 C 
HETATM    7  N3  UNL     1      -6.437  30.437 -17.219  1.00  0.00    -0.190 N 
ATOM      8  H3  UNL     1      -5.653  31.086 -17.147  1.00  0.00     0.181 HD
HETATM    9  C13 UNL     1      -7.286  30.078 -16.165  1.00  0.00     0.194 C 
HETATM   10  C14 UNL     1      -7.707  31.078 -15.159  1.00  0.00     0.237 C 
HETATM   11  O8  UNL     1      -8.458  30.361 -14.195  1.00  0.00    -0.335 OA
HETATM   12  C15 UNL     1      -9.615  29.837 -14.721  1.00  0.00     0.248 A 
HETATM   13  N4  UNL     1     -10.578  29.336 -13.827  1.00  0.00    -0.307 N 
ATOM     14  H4  UNL     1     -10.644  28.510 -13.232  1.00  0.00     0.167 HD
HETATM   15  C16 UNL     1     -11.412  30.439 -14.087  1.00  0.00     0.203 A 
HETATM   16  N5  UNL     1     -12.554  30.878 -13.648  1.00  0.00    -0.239 N 
ATOM     17  H5  UNL     1     -13.032  30.339 -12.926  1.00  0.00     0.197 HD
HETATM   18  N6  UNL     1     -10.524  30.943 -15.058  1.00  0.00    -0.307 N 
ATOM     19  H6  UNL     1     -10.516  31.728 -15.709  1.00  0.00     0.167 HD
ENDROOT
BRANCH   6  20
HETATM   20  N2  UNL     1      -6.126  29.970 -19.544  1.00  0.00    -0.200 N 
ATOM     21  H2  UNL     1      -6.148  30.877 -20.011  1.00  0.00     0.180 HD
BRANCH  20  22
HETATM   22  C5  UNL     1      -5.414  28.876 -20.174  1.00  0.00     0.245 C 
HETATM   23  C6  UNL     1      -4.896  29.272 -21.538  1.00  0.00     0.088 C 
HETATM   24  C7  UNL     1      -6.036  29.206 -22.506  1.00  0.00     0.154 C 
HETATM   25  O2  UNL     1      -6.803  28.071 -22.402  1.00  0.00    -0.331 OA
HETATM   26  C9  UNL     1      -6.334  27.172 -21.439  1.00  0.00     0.415 C 
HETATM   27  O6  UNL     1      -6.256  27.788 -20.203  1.00  0.00    -0.313 OA
BRANCH  24  28
HETATM   28  C8  UNL     1      -5.615  29.361 -23.943  1.00  0.00     0.196 C 
BRANCH  28  29
HETATM   29  O1  UNL     1      -5.483  28.050 -24.458  1.00  0.00    -0.398 OA
ATOM     30  H1  UNL     1      -5.954  27.482 -23.858  1.00  0.00     0.209 HD
ENDBRANCH  28  29
ENDBRANCH  24  28
BRANCH  26  31
HETATM   31  O3  UNL     1      -5.167  26.553 -21.819  1.00  0.00    -0.336 OA
BRANCH  31  32
HETATM   32  C10 UNL     1      -5.251  25.161 -21.764  1.00  0.00     0.207 C 
BRANCH  32  33
HETATM   33  C11 UNL     1      -4.339  24.574 -22.813  1.00  0.00     0.165 C 
BRANCH  33  34
HETATM   34  O4  UNL     1      -3.701  23.447 -22.314  1.00  0.00    -0.391 OA
ATOM     35  H4  UNL     1      -3.235  23.000 -23.011  1.00  0.00     0.210 HD
ENDBRANCH  33  34
BRANCH  33  36
HETATM   36  C12 UNL     1      -5.109  24.193 -24.061  1.00  0.00     0.198 C 
BRANCH  36  37
HETATM   37  O5  UNL     1      -6.039  25.155 -24.409  1.00  0.00    -0.398 OA
ATOM     38  H5  UNL     1      -6.930  24.845 -24.297  1.00  0.00     0.209 HD
ENDBRANCH  36  37
ENDBRANCH  33  36
ENDBRANCH  32  33
ENDBRANCH  31  32
ENDBRANCH  26  31
ENDBRANCH  20  22
ENDBRANCH   6  20
BRANCH   9  39
HETATM   39  O7  UNL     1      -6.921  28.907 -15.498  1.00  0.00    -0.366 OA
ATOM     40  H7  UNL     1      -6.334  28.445 -16.085  1.00  0.00     0.212 HD
ENDBRANCH   9  39
BRANCH  16  41
HETATM   41  O9  UNL     1     -13.143  32.010 -14.095  1.00  0.00    -0.287 OA
ATOM     42  H9  UNL     1     -12.872  32.882 -13.834  1.00  0.00     0.244 HD
ENDBRANCH  16  41
TORSDOF 12
ENDMDL
MODEL 2
REMARK VINA RESULT: -7.061803317      1.757      2.155
REMARK  12 active torsions:
REMARK  status: ('A' for Active; 'I' for Inactive)
REMARK    1  A    between atoms: C4_6  and  N2_7 
REMARK    2  A    between atoms: N2_7  and  C5_9 
REMARK    3  A    between atoms: C7_11  and  C8_12 
REMARK    4  A    between atoms: C8_12  and  O1_13 
REMARK    5  A    between atoms: C9_16  and  O3_17 
REMARK    6  A    between atoms: O3_17  and  C10_18 
REMARK    7  A    between atoms: C10_18  and  C11_19 
REMARK    8  A    between atoms: C11_19  and  O4_20 
REMARK    9  A    between atoms: C11_19  and  C12_22 
REMARK   10  A    between atoms: C12_22  and  O5_23 
REMARK   11  A    between atoms: C13_28  and  O7_29 
REMARK   12  A    between atoms: N5_37  and  O9_39 
ROOT
HETATM    1  C1  UNL     1     -10.274  28.072 -16.422  1.00  0.00     0.024 C 
HETATM    2  C2  UNL     1      -9.503  28.705 -15.571  1.00  0.00     0.016 C 
HETATM    3  C3  UNL     1      -8.079  28.969 -15.678  1.00  0.00     0.192 C 
HETATM    4  N1  UNL     1      -7.297  28.193 -16.583  1.00  0.00    -0.213 N 
ATOM      5  H1  UNL     1      -7.587  27.712 -17.435  1.00  0.00     0.178 HD
HETATM    6  C4  UNL     1      -5.979  28.266 -15.977  1.00  0.00     0.675 C 
HETATM    7  N3  UNL     1      -6.120  28.379 -14.699  1.00  0.00    -0.190 N 
ATOM      8  H3  UNL     1      -5.357  28.451 -14.027  1.00  0.00     0.181 HD
HETATM    9  C13 UNL     1      -7.483  28.387 -14.377  1.00  0.00     0.194 C 
HETATM   10  C14 UNL     1      -8.000  29.264 -13.303  1.00  0.00     0.237 C 
HETATM   11  O8  UNL     1      -9.374  28.942 -13.173  1.00  0.00    -0.335 OA
HETATM   12  C15 UNL     1     -10.092  29.258 -14.303  1.00  0.00     0.248 A 
HETATM   13  N4  UNL     1     -11.495  29.242 -14.217  1.00  0.00    -0.307 N 
ATOM     14  H4  UNL     1     -12.202  28.510 -14.147  1.00  0.00     0.167 HD
HETATM   15  C16 UNL     1     -11.527  30.649 -14.269  1.00  0.00     0.203 A 
HETATM   16  N5  UNL     1     -12.439  31.572 -14.193  1.00  0.00    -0.239 N 
ATOM     17  H5  UNL     1     -13.407  31.282 -14.062  1.00  0.00     0.197 HD
HETATM   18  N6  UNL     1     -10.130  30.721 -14.445  1.00  0.00    -0.307 N 
ATOM     19  H6  UNL     1      -9.448  31.462 -14.602  1.00  0.00     0.167 HD
ENDROOT
BRANCH   6  20
HETATM   20  N2  UNL     1      -4.708  28.220 -16.624  1.00  0.00    -0.200 N 
ATOM     21  H2  UNL     1      -3.920  28.708 -16.198  1.00  0.00     0.180 HD
BRANCH  20  22
HETATM   22  C5  UNL     1      -4.497  27.502 -17.865  1.00  0.00     0.245 C 
HETATM   23  C6  UNL     1      -4.201  28.452 -19.003  1.00  0.00     0.088 C 
HETATM   24  C7  UNL     1      -5.495  29.047 -19.462  1.00  0.00     0.154 C 
HETATM   25  O2  UNL     1      -6.514  28.138 -19.617  1.00  0.00    -0.331 OA
HETATM   26  C9  UNL     1      -6.124  26.820 -19.362  1.00  0.00     0.415 C 
HETATM   27  O6  UNL     1      -5.601  26.711 -18.085  1.00  0.00    -0.313 OA
BRANCH  24  28
HETATM   28  C8  UNL     1      -5.375  29.842 -20.735  1.00  0.00     0.196 C 
BRANCH  28  29
HETATM   29  O1  UNL     1      -4.737  28.994 -21.670  1.00  0.00    -0.398 OA
ATOM     30  H1  UNL     1      -5.297  28.977 -22.438  1.00  0.00     0.209 HD
ENDBRANCH  28  29
ENDBRANCH  24  28
BRANCH  26  31
HETATM   31  O3  UNL     1      -5.297  26.316 -20.338  1.00  0.00    -0.336 OA
BRANCH  31  32
HETATM   32  C10 UNL     1      -5.995  25.642 -21.341  1.00  0.00     0.207 C 
BRANCH  32  33
HETATM   33  C11 UNL     1      -5.005  24.953 -22.249  1.00  0.00     0.165 C 
BRANCH  33  34
HETATM   34  O4  UNL     1      -5.410  23.650 -22.497  1.00  0.00    -0.391 OA
ATOM     35  H4  UNL     1      -4.982  23.318 -23.278  1.00  0.00     0.210 HD
ENDBRANCH  33  34
BRANCH  33  36
HETATM   36  C12 UNL     1      -4.865  25.687 -23.567  1.00  0.00     0.198 C 
BRANCH  36  37
HETATM   37  O5  UNL     1      -5.475  26.927 -23.535  1.00  0.00    -0.398 OA
ATOM     38  H5  UNL     1      -5.241  27.418 -22.756  1.00  0.00     0.209 HD
ENDBRANCH  36  37
ENDBRANCH  33  36
ENDBRANCH  32  33
ENDBRANCH  31  32
ENDBRANCH  26  31
ENDBRANCH  20  22
ENDBRANCH   6  20
BRANCH   9  39
HETATM   39  O7  UNL     1      -8.053  27.122 -14.228  1.00  0.00    -0.366 OA
ATOM     40  H7  UNL     1      -8.895  27.263 -13.810  1.00  0.00     0.212 HD
ENDBRANCH   9  39
BRANCH  16  41
HETATM   41  O9  UNL     1     -12.174  32.895 -14.278  1.00  0.00    -0.287 OA
ATOM     42  H9  UNL     1     -11.643  33.367 -13.646  1.00  0.00     0.244 HD
ENDBRANCH  16  41
TORSDOF 12
ENDMDL
MODEL 3
REMARK VINA RESULT: -6.842740787      1.806      2.136
REMARK  12 active torsions:
REMARK  status: ('A' for Active; 'I' for Inactive)
REMARK    1  A    between atoms: C4_6  and  N2_7 
REMARK    2  A    between atoms: N2_7  and  C5_9 
REMARK    3  A    between atoms: C7_11  and  C8_12 
REMARK    4  A    between atoms: C8_12  and  O1_13 
REMARK    5  A    between atoms: C9_16  and  O3_17 
REMARK    6  A    between atoms: O3_17  and  C10_18 
REMARK    7  A    between atoms: C10_18  and  C11_19 
REMARK    8  A    between atoms: C11_19  and  O4_20 
REMARK    9  A    between atoms: C11_19  and  C12_22 
REMARK   10  A    between atoms: C12_22  and  O5_23 
REMARK   11  A    between atoms: C13_28  and  O7_29 
REMARK   12  A    between atoms: N5_37  and  O9_39 
ROOT
HETATM    1  C1  UNL     1      -9.872  28.340 -17.553  1.00  0.00     0.024 C 
HETATM    2  C2  UNL     1      -8.957  28.316 -16.614  1.00  0.00     0.016 C 
HETATM    3  C3  UNL     1      -7.526  28.523 -16.753  1.00  0.00     0.192 C 
HETATM    4  N1  UNL     1      -6.929  28.386 -18.041  1.00  0.00    -0.213 N 
ATOM      5  H1  UNL     1      -7.350  28.510 -18.962  1.00  0.00     0.178 HD
HETATM    6  C4  UNL     1      -5.564  28.026 -17.699  1.00  0.00     0.675 C 
HETATM    7  N3  UNL     1      -5.577  27.377 -16.584  1.00  0.00    -0.190 N 
ATOM      8  H3  UNL     1      -4.754  27.005 -16.110  1.00  0.00     0.181 HD
HETATM    9  C13 UNL     1      -6.894  27.262 -16.124  1.00  0.00     0.194 C 
HETATM   10  C14 UNL     1      -7.203  27.368 -14.680  1.00  0.00     0.237 C 
HETATM   11  O8  UNL     1      -8.589  27.099 -14.564  1.00  0.00    -0.335 OA
HETATM   12  C15 UNL     1      -9.359  28.050 -15.190  1.00  0.00     0.248 A 
HETATM   13  N4  UNL     1     -10.741  28.056 -14.929  1.00  0.00    -0.307 N 
ATOM     14  H4  UNL     1     -11.524  27.457 -15.191  1.00  0.00     0.167 HD
HETATM   15  C16 UNL     1     -10.603  29.226 -14.158  1.00  0.00     0.203 A 
HETATM   16  N5  UNL     1     -11.384  29.974 -13.436  1.00  0.00    -0.239 N 
ATOM     17  H5  UNL     1     -12.366  29.709 -13.359  1.00  0.00     0.197 HD
HETATM   18  N6  UNL     1      -9.230  29.320 -14.458  1.00  0.00    -0.307 N 
ATOM     19  H6  UNL     1      -8.477  29.978 -14.257  1.00  0.00     0.167 HD
ENDROOT
BRANCH   6  20
HETATM   20  N2  UNL     1      -4.370  28.305 -18.429  1.00  0.00    -0.200 N 
ATOM     21  H2  UNL     1      -3.719  29.001 -18.063  1.00  0.00     0.180 HD
BRANCH  20  22
HETATM   22  C5  UNL     1      -4.049  27.633 -19.672  1.00  0.00     0.245 C 
HETATM   23  C6  UNL     1      -4.065  28.599 -20.836  1.00  0.00     0.088 C 
HETATM   24  C7  UNL     1      -5.491  28.834 -21.226  1.00  0.00     0.154 C 
HETATM   25  O2  UNL     1      -6.251  27.693 -21.313  1.00  0.00    -0.331 OA
HETATM   26  C9  UNL     1      -5.524  26.523 -21.066  1.00  0.00     0.415 C 
HETATM   27  O6  UNL     1      -4.925  26.583 -19.821  1.00  0.00    -0.313 OA
BRANCH  24  28
HETATM   28  C8  UNL     1      -5.644  29.601 -22.513  1.00  0.00     0.196 C 
BRANCH  28  29
HETATM   29  O1  UNL     1      -6.715  28.993 -23.209  1.00  0.00    -0.398 OA
ATOM     30  H1  UNL     1      -6.335  28.280 -23.710  1.00  0.00     0.209 HD
ENDBRANCH  28  29
ENDBRANCH  24  28
BRANCH  26  31
HETATM   31  O3  UNL     1      -4.649  26.221 -22.083  1.00  0.00    -0.336 OA
BRANCH  31  32
HETATM   32  C10 UNL     1      -4.795  24.914 -22.549  1.00  0.00     0.207 C 
BRANCH  32  33
HETATM   33  C11 UNL     1      -5.018  24.950 -24.042  1.00  0.00     0.165 C 
BRANCH  33  34
HETATM   34  O4  UNL     1      -6.377  24.950 -24.321  1.00  0.00    -0.391 OA
ATOM     35  H4  UNL     1      -6.519  24.813 -25.250  1.00  0.00     0.210 HD
ENDBRANCH  33  34
BRANCH  33  36
HETATM   36  C12 UNL     1      -4.386  26.179 -24.663  1.00  0.00     0.198 C 
BRANCH  36  37
HETATM   37  O5  UNL     1      -5.325  27.153 -24.951  1.00  0.00    -0.398 OA
ATOM     38  H5  UNL     1      -5.070  28.003 -24.612  1.00  0.00     0.209 HD
ENDBRANCH  36  37
ENDBRANCH  33  36
ENDBRANCH  32  33
ENDBRANCH  31  32
ENDBRANCH  26  31
ENDBRANCH  20  22
ENDBRANCH   6  20
BRANCH   9  39
HETATM   39  O7  UNL     1      -7.601  26.178 -16.648  1.00  0.00    -0.366 OA
ATOM     40  H7  UNL     1      -8.047  25.777 -15.911  1.00  0.00     0.212 HD
ENDBRANCH   9  39
BRANCH  16  41
HETATM   41  O9  UNL     1     -10.967  31.081 -12.784  1.00  0.00    -0.287 OA
ATOM     42  H9  UNL     1     -11.536  31.624 -12.251  1.00  0.00     0.244 HD
ENDBRANCH  16  41
TORSDOF 12
ENDMDL
MODEL 4
REMARK VINA RESULT: -6.800981362      2.607      9.482
REMARK  12 active torsions:
REMARK  status: ('A' for Active; 'I' for Inactive)
REMARK    1  A    between atoms: C4_6  and  N2_7 
REMARK    2  A    between atoms: N2_7  and  C5_9 
REMARK    3  A    between atoms: C7_11  and  C8_12 
REMARK    4  A    between atoms: C8_12  and  O1_13 
REMARK    5  A    between atoms: C9_16  and  O3_17 
REMARK    6  A    between atoms: O3_17  and  C10_18 
REMARK    7  A    between atoms: C10_18  and  C11_19 
REMARK    8  A    between atoms: C11_19  and  O4_20 
REMARK    9  A    between atoms: C11_19  and  C12_22 
REMARK   10  A    between atoms: C12_22  and  O5_23 
REMARK   11  A    between atoms: C13_28  and  O7_29 
REMARK   12  A    between atoms: N5_37  and  O9_39 
ROOT
HETATM    1  C1  UNL     1      -4.652  29.497 -21.170  1.00  0.00     0.024 C 
HETATM    2  C2  UNL     1      -5.254  28.353 -21.391  1.00  0.00     0.016 C 
HETATM    3  C3  UNL     1      -6.404  27.799 -20.698  1.00  0.00     0.192 C 
HETATM    4  N1  UNL     1      -6.751  28.310 -19.413  1.00  0.00    -0.213 N 
ATOM      5  H1  UNL     1      -6.564  29.230 -19.015  1.00  0.00     0.178 HD
HETATM    6  C4  UNL     1      -7.438  27.177 -18.819  1.00  0.00     0.675 C 
HETATM    7  N3  UNL     1      -6.942  26.091 -19.307  1.00  0.00    -0.190 N 
ATOM      8  H3  UNL     1      -7.240  25.146 -19.065  1.00  0.00     0.181 HD
HETATM    9  C13 UNL     1      -5.930  26.409 -20.221  1.00  0.00     0.194 C 
HETATM   10  C14 UNL     1      -5.759  25.623 -21.464  1.00  0.00     0.237 C 
HETATM   11  O8  UNL     1      -4.596  26.139 -22.087  1.00  0.00    -0.335 OA
HETATM   12  C15 UNL     1      -4.753  27.447 -22.481  1.00  0.00     0.248 A 
HETATM   13  N4  UNL     1      -3.786  27.996 -23.342  1.00  0.00    -0.307 N 
ATOM     14  H4  UNL     1      -2.817  28.294 -23.237  1.00  0.00     0.167 HD
HETATM   15  C16 UNL     1      -4.704  27.966 -24.410  1.00  0.00     0.203 A 
HETATM   16  N5  UNL     1      -4.678  28.245 -25.679  1.00  0.00    -0.239 N 
ATOM     17  H5  UNL     1      -3.801  28.578 -26.081  1.00  0.00     0.197 HD
HETATM   18  N6  UNL     1      -5.736  27.498 -23.573  1.00  0.00    -0.307 N 
ATOM     19  H6  UNL     1      -6.728  27.287 -23.679  1.00  0.00     0.167 HD
ENDROOT
BRANCH   6  20
HETATM   20  N2  UNL     1      -8.488  27.192 -17.851  1.00  0.00    -0.200 N 
ATOM     21  H2  UNL     1      -9.111  26.387 -17.787  1.00  0.00     0.180 HD
BRANCH  20  22
HETATM   22  C5  UNL     1      -8.697  28.312 -16.956  1.00  0.00     0.245 C 
HETATM   23  C6  UNL     1      -7.653  28.342 -15.862  1.00  0.00     0.088 C 
HETATM   24  C7  UNL     1      -8.034  27.329 -14.828  1.00  0.00     0.154 C 
HETATM   25  O2  UNL     1      -9.360  27.356 -14.468  1.00  0.00    -0.331 OA
HETATM   26  C9  UNL     1     -10.087  28.366 -15.106  1.00  0.00     0.415 C 
HETATM   27  O6  UNL     1      -9.986  28.236 -16.481  1.00  0.00    -0.313 OA
BRANCH  24  28
HETATM   28  C8  UNL     1      -7.203  27.407 -13.574  1.00  0.00     0.196 C 
BRANCH  28  29
HETATM   29  O1  UNL     1      -7.101  28.781 -13.254  1.00  0.00    -0.398 OA
ATOM     30  H1  UNL     1      -7.489  28.881 -12.392  1.00  0.00     0.209 HD
ENDBRANCH  28  29
ENDBRANCH  24  28
BRANCH  26  31
HETATM   31  O3  UNL     1      -9.761  29.621 -14.649  1.00  0.00    -0.336 OA
BRANCH  31  32
HETATM   32  C10 UNL     1     -10.438  29.961 -13.477  1.00  0.00     0.207 C 
BRANCH  32  33
HETATM   33  C11 UNL     1     -11.819  30.454 -13.836  1.00  0.00     0.165 C 
BRANCH  33  34
HETATM   34  O4  UNL     1     -12.574  30.637 -12.686  1.00  0.00    -0.391 OA
ATOM     35  H4  UNL     1     -12.500  31.535 -12.387  1.00  0.00     0.210 HD
ENDBRANCH  33  34
BRANCH  33  36
HETATM   36  C12 UNL     1     -11.754  31.763 -14.597  1.00  0.00     0.198 C 
BRANCH  36  37
HETATM   37  O5  UNL     1     -11.175  31.609 -15.842  1.00  0.00    -0.398 OA
ATOM     38  H5  UNL     1     -10.645  32.360 -16.083  1.00  0.00     0.209 HD
ENDBRANCH  36  37
ENDBRANCH  33  36
ENDBRANCH  32  33
ENDBRANCH  31  32
ENDBRANCH  26  31
ENDBRANCH  20  22
ENDBRANCH   6  20
BRANCH   9  39
HETATM   39  O7  UNL     1      -4.672  26.609 -19.649  1.00  0.00    -0.366 OA
ATOM     40  H7  UNL     1      -4.761  26.373 -18.733  1.00  0.00     0.212 HD
ENDBRANCH   9  39
BRANCH  16  41
HETATM   41  O9  UNL     1      -5.748  28.119 -26.495  1.00  0.00    -0.287 OA
ATOM     42  H9  UNL     1      -5.951  27.326 -26.978  1.00  0.00     0.244 HD
ENDBRANCH  16  41
TORSDOF 12
ENDMDL
MODEL 5
REMARK VINA RESULT: -6.661209465      2.683      8.995
REMARK  12 active torsions:
REMARK  status: ('A' for Active; 'I' for Inactive)
REMARK    1  A    between atoms: C4_6  and  N2_7 
REMARK    2  A    between atoms: N2_7  and  C5_9 
REMARK    3  A    between atoms: C7_11  and  C8_12 
REMARK    4  A    between atoms: C8_12  and  O1_13 
REMARK    5  A    between atoms: C9_16  and  O3_17 
REMARK    6  A    between atoms: O3_17  and  C10_18 
REMARK    7  A    between atoms: C10_18  and  C11_19 
REMARK    8  A    between atoms: C11_19  and  O4_20 
REMARK    9  A    between atoms: C11_19  and  C12_22 
REMARK   10  A    between atoms: C12_22  and  O5_23 
REMARK   11  A    between atoms: C13_28  and  O7_29 
REMARK   12  A    between atoms: N5_37  and  O9_39 
ROOT
HETATM    1  C1  UNL     1      -3.851  28.700 -21.058  1.00  0.00     0.024 C 
HETATM    2  C2  UNL     1      -5.088  28.287 -21.198  1.00  0.00     0.016 C 
HETATM    3  C3  UNL     1      -6.076  28.054 -20.159  1.00  0.00     0.192 C 
HETATM    4  N1  UNL     1      -5.639  27.886 -18.812  1.00  0.00    -0.213 N 
ATOM      5  H1  UNL     1      -4.794  28.237 -18.362  1.00  0.00     0.178 HD
HETATM    6  C4  UNL     1      -6.711  27.083 -18.250  1.00  0.00     0.675 C 
HETATM    7  N3  UNL     1      -7.210  26.348 -19.186  1.00  0.00    -0.190 N 
ATOM      8  H3  UNL     1      -7.978  25.688 -19.069  1.00  0.00     0.181 HD
HETATM    9  C13 UNL     1      -6.534  26.597 -20.387  1.00  0.00     0.194 C 
HETATM   10  C14 UNL     1      -7.265  26.629 -21.673  1.00  0.00     0.237 C 
HETATM   11  O8  UNL     1      -6.275  26.792 -22.673  1.00  0.00    -0.335 OA
HETATM   12  C15 UNL     1      -5.626  28.000 -22.572  1.00  0.00     0.248 A 
HETATM   13  N4  UNL     1      -4.816  28.405 -23.648  1.00  0.00    -0.307 N 
ATOM     14  H4  UNL     1      -3.910  28.112 -24.014  1.00  0.00     0.167 HD
HETATM   15  C16 UNL     1      -5.764  29.380 -24.012  1.00  0.00     0.203 A 
HETATM   16  N5  UNL     1      -5.901  30.246 -24.971  1.00  0.00    -0.239 N 
ATOM     17  H5  UNL     1      -5.174  30.292 -25.685  1.00  0.00     0.197 HD
HETATM   18  N6  UNL     1      -6.575  29.075 -22.900  1.00  0.00    -0.307 N 
ATOM     19  H6  UNL     1      -7.439  29.440 -22.499  1.00  0.00     0.167 HD
ENDROOT
BRANCH   6  20
HETATM   20  N2  UNL     1      -7.179  27.058 -16.902  1.00  0.00    -0.200 N 
ATOM     21  H2  UNL     1      -6.665  26.511 -16.211  1.00  0.00     0.180 HD
BRANCH  20  22
HETATM   22  C5  UNL     1      -8.360  27.784 -16.480  1.00  0.00     0.245 C 
HETATM   23  C6  UNL     1      -8.195  29.272 -16.697  1.00  0.00     0.088 C 
HETATM   24  C7  UNL     1      -7.354  29.813 -15.583  1.00  0.00     0.154 C 
HETATM   25  O2  UNL     1      -7.715  29.370 -14.333  1.00  0.00    -0.331 OA
HETATM   26  C9  UNL     1      -8.836  28.534 -14.344  1.00  0.00     0.415 C 
HETATM   27  O6  UNL     1      -8.617  27.447 -15.172  1.00  0.00    -0.313 OA
BRANCH  24  28
HETATM   28  C8  UNL     1      -7.295  31.318 -15.550  1.00  0.00     0.196 C 
BRANCH  28  29
HETATM   29  O1  UNL     1      -8.310  31.771 -16.424  1.00  0.00    -0.398 OA
ATOM     30  H1  UNL     1      -8.175  32.707 -16.525  1.00  0.00     0.209 HD
ENDBRANCH  28  29
ENDBRANCH  24  28
BRANCH  26  31
HETATM   31  O3  UNL     1      -9.998  29.212 -14.625  1.00  0.00    -0.336 OA
BRANCH  31  32
HETATM   32  C10 UNL     1     -10.535  29.850 -13.506  1.00  0.00     0.207 C 
BRANCH  32  33
HETATM   33  C11 UNL     1     -11.879  30.432 -13.871  1.00  0.00     0.165 C 
BRANCH  33  34
HETATM   34  O4  UNL     1     -12.617  30.686 -12.725  1.00  0.00    -0.391 OA
ATOM     35  H4  UNL     1     -13.328  31.285 -12.920  1.00  0.00     0.210 HD
ENDBRANCH  33  34
BRANCH  33  36
HETATM   36  C12 UNL     1     -11.726  31.719 -14.656  1.00  0.00     0.198 C 
BRANCH  36  37
HETATM   37  O5  UNL     1     -11.028  31.527 -15.834  1.00  0.00    -0.398 OA
ATOM     38  H5  UNL     1     -11.086  30.629 -16.139  1.00  0.00     0.209 HD
ENDBRANCH  36  37
ENDBRANCH  33  36
ENDBRANCH  32  33
ENDBRANCH  31  32
ENDBRANCH  26  31
ENDBRANCH  20  22
ENDBRANCH   6  20
BRANCH   9  39
HETATM   39  O7  UNL     1      -5.366  25.852 -20.561  1.00  0.00    -0.366 OA
ATOM     40  H7  UNL     1      -5.627  24.940 -20.503  1.00  0.00     0.212 HD
ENDBRANCH   9  39
BRANCH  16  41
HETATM   41  O9  UNL     1      -6.954  31.087 -25.076  1.00  0.00    -0.287 OA
ATOM     42  H9  UNL     1      -7.807  30.825 -25.400  1.00  0.00     0.244 HD
ENDBRANCH  16  41
TORSDOF 12
ENDMDL
