MODEL 1
REMARK VINA RESULT: -3.014231840      0.000      0.000
REMARK  1 active torsions:
REMARK  status: ('A' for Active; 'I' for Inactive)
REMARK    1  A    between atoms: C10_13  and  O2_14 
ROOT
HETATM    1  C1  UNL     1      20.539  17.382  41.512  1.00  0.00     0.272 C 
HETATM    2  N1  UNL     1      21.454  17.540  42.641  1.00  0.00    -0.070 N 
HETATM    3  C2  UNL     1      22.784  17.725  41.978  1.00  0.00     0.272 C 
HETATM    4  C3  UNL     1      21.698  16.322  43.325  1.00  0.00     0.237 C 
HETATM    5  C4  UNL     1      20.608  15.622  44.014  1.00  0.00     0.039 C 
HETATM    6  C5  UNL     1      20.197  16.320  45.271  1.00  0.00     0.060 C 
HETATM    7  C6  UNL     1      18.678  16.523  45.345  1.00  0.00     0.223 C 
HETATM    8 CL1  UNL     1      17.952  15.841  46.783  1.00  0.00    -0.095 Cl
HETATM    9  O1  UNL     1      18.496  17.903  45.373  1.00  0.00    -0.370 OA
HETATM   10  C7  UNL     1      18.668  18.309  44.025  1.00  0.00     0.177 C 
HETATM   11  C8  UNL     1      19.912  19.120  43.975  1.00  0.00     0.050 A 
HETATM   12  C9  UNL     1      21.031  18.704  44.798  1.00  0.00     0.054 A 
HETATM   13  C10 UNL     1      20.962  17.521  45.623  1.00  0.00     0.132 C 
HETATM   14  C11 UNL     1      21.197  18.706  43.381  1.00  0.00     0.203 A 
ENDROOT
BRANCH  13  15
HETATM   15  O2  UNL     1      20.496  17.919  46.910  1.00  0.00    -0.395 OA
ATOM     16  H2  UNL     1      21.272  18.131  47.415  1.00  0.00     0.210 HD
ENDBRANCH  13  15
TORSDOF 1
ENDMDL
MODEL 2
REMARK VINA RESULT: -2.769767156      1.250      1.583
REMARK  1 active torsions:
REMARK  status: ('A' for Active; 'I' for Inactive)
REMARK    1  A    between atoms: C10_13  and  O2_14 
ROOT
HETATM    1  C1  UNL     1      18.932  16.869  41.543  1.00  0.00     0.272 C 
HETATM    2  N1  UNL     1      20.013  17.742  41.996  1.00  0.00    -0.070 N 
HETATM    3  C2  UNL     1      20.483  18.388  40.729  1.00  0.00     0.272 C 
HETATM    4  C3  UNL     1      21.187  17.028  42.348  1.00  0.00     0.237 C 
HETATM    5  C4  UNL     1      21.176  16.080  43.468  1.00  0.00     0.039 C 
HETATM    6  C5  UNL     1      21.126  16.776  44.791  1.00  0.00     0.060 C 
HETATM    7  C6  UNL     1      20.026  16.208  45.697  1.00  0.00     0.223 C 
HETATM    8 CL1  UNL     1      20.617  15.648  47.246  1.00  0.00    -0.095 Cl
HETATM    9  O1  UNL     1      19.152  17.269  45.918  1.00  0.00    -0.370 OA
HETATM   10  C7  UNL     1      18.385  17.347  44.728  1.00  0.00     0.177 C 
HETATM   11  C8  UNL     1      18.750  18.626  44.065  1.00  0.00     0.050 A 
HETATM   12  C9  UNL     1      20.137  19.047  44.110  1.00  0.00     0.054 A 
HETATM   13  C10 UNL     1      21.149  18.242  44.752  1.00  0.00     0.132 C 
HETATM   14  C11 UNL     1      19.555  18.770  42.837  1.00  0.00     0.203 A 
ENDROOT
BRANCH  13  15
HETATM   15  O2  UNL     1      21.243  18.668  46.110  1.00  0.00    -0.395 OA
ATOM     16  H2  UNL     1      20.789  19.502  46.154  1.00  0.00     0.210 HD
ENDBRANCH  13  15
TORSDOF 1
ENDMDL
MODEL 3
REMARK VINA RESULT: -1.350201906      1.509      2.312
REMARK  1 active torsions:
REMARK  status: ('A' for Active; 'I' for Inactive)
REMARK    1  A    between atoms: C10_13  and  O2_14 
ROOT
HETATM    1  C1  UNL     1      22.513  18.262  42.441  1.00  0.00     0.272 C 
HETATM    2  N1  UNL     1      21.944  17.001  42.912  1.00  0.00    -0.070 N 
HETATM    3  C2  UNL     1      22.884  15.975  42.358  1.00  0.00     0.272 C 
HETATM    4  C3  UNL     1      20.762  16.637  42.218  1.00  0.00     0.237 C 
HETATM    5  C4  UNL     1      19.560  17.475  42.304  1.00  0.00     0.039 C 
HETATM    6  C5  UNL     1      18.890  17.360  43.636  1.00  0.00     0.060 C 
HETATM    7  C6  UNL     1      18.588  18.735  44.247  1.00  0.00     0.223 C 
HETATM    8 CL1  UNL     1      16.900  18.969  44.641  1.00  0.00    -0.095 Cl
HETATM    9  O1  UNL     1      19.325  18.778  45.428  1.00  0.00    -0.370 OA
HETATM   10  C7  UNL     1      20.651  19.053  45.006  1.00  0.00     0.177 C 
HETATM   11  C8  UNL     1      21.457  17.840  45.302  1.00  0.00     0.050 A 
HETATM   12  C9  UNL     1      20.842  16.544  45.094  1.00  0.00     0.054 A 
HETATM   13  C10 UNL     1      19.496  16.421  44.586  1.00  0.00     0.132 C 
HETATM   14  C11 UNL     1      21.985  16.883  44.311  1.00  0.00     0.203 A 
ENDROOT
BRANCH  13  15
HETATM   15  O2  UNL     1      18.613  16.373  45.705  1.00  0.00    -0.395 OA
ATOM     16  H2  UNL     1      17.755  16.604  45.371  1.00  0.00     0.210 HD
ENDBRANCH  13  15
TORSDOF 1
ENDMDL
MODEL 4
REMARK VINA RESULT: -1.169488069      2.791      4.110
REMARK  1 active torsions:
REMARK  status: ('A' for Active; 'I' for Inactive)
REMARK    1  A    between atoms: C10_13  and  O2_14 
ROOT
HETATM    1  C1  UNL     1      19.695  17.484  46.780  1.00  0.00     0.272 C 
HETATM    2  N1  UNL     1      19.084  16.880  45.598  1.00  0.00    -0.070 N 
HETATM    3  C2  UNL     1      17.917  16.131  46.163  1.00  0.00     0.272 C 
HETATM    4  C3  UNL     1      19.837  15.793  45.084  1.00  0.00     0.237 C 
HETATM    5  C4  UNL     1      21.189  16.006  44.556  1.00  0.00     0.039 C 
HETATM    6  C5  UNL     1      21.173  16.703  43.233  1.00  0.00     0.060 C 
HETATM    7  C6  UNL     1      22.130  17.901  43.204  1.00  0.00     0.223 C 
HETATM    8 CL1  UNL     1      23.311  17.821  41.915  1.00  0.00    -0.095 Cl
HETATM    9  O1  UNL     1      21.318  19.012  42.987  1.00  0.00    -0.370 OA
HETATM   10  C7  UNL     1      20.735  19.275  44.253  1.00  0.00     0.177 C 
HETATM   11  C8  UNL     1      19.283  18.989  44.126  1.00  0.00     0.050 A 
HETATM   12  C9  UNL     1      18.878  17.855  43.319  1.00  0.00     0.054 A 
HETATM   13  C10 UNL     1      19.849  17.002  42.676  1.00  0.00     0.132 C 
HETATM   14  C11 UNL     1      18.567  17.839  44.711  1.00  0.00     0.203 A 
ENDROOT
BRANCH  13  15
HETATM   15  O2  UNL     1      20.083  17.521  41.369  1.00  0.00    -0.395 OA
ATOM     16  H2  UNL     1      20.505  18.363  41.494  1.00  0.00     0.210 HD
ENDBRANCH  13  15
TORSDOF 1
ENDMDL
MODEL 5
REMARK VINA RESULT: -0.910572746      1.253      1.515
REMARK  1 active torsions:
REMARK  status: ('A' for Active; 'I' for Inactive)
REMARK    1  A    between atoms: C10_13  and  O2_14 
ROOT
HETATM    1  C1  UNL     1      22.061  15.979  42.195  1.00  0.00     0.272 C 
HETATM    2  N1  UNL     1      22.190  17.264  42.879  1.00  0.00    -0.070 N 
HETATM    3  C2  UNL     1      23.521  17.766  42.412  1.00  0.00     0.272 C 
HETATM    4  C3  UNL     1      22.462  17.124  44.264  1.00  0.00     0.237 C 
HETATM    5  C4  UNL     1      21.485  16.489  45.156  1.00  0.00     0.039 C 
HETATM    6  C5  UNL     1      20.303  17.370  45.412  1.00  0.00     0.060 C 
HETATM    7  C6  UNL     1      18.977  16.631  45.188  1.00  0.00     0.223 C 
HETATM    8 CL1  UNL     1      17.919  16.657  46.582  1.00  0.00    -0.095 Cl
HETATM    9  O1  UNL     1      18.351  17.312  44.148  1.00  0.00    -0.370 OA
HETATM   10  C7  UNL     1      19.013  16.856  42.979  1.00  0.00     0.177 C 
HETATM   11  C8  UNL     1      19.763  18.016  42.430  1.00  0.00     0.050 A 
HETATM   12  C9  UNL     1      20.401  18.921  43.366  1.00  0.00     0.054 A 
HETATM   13  C10 UNL     1      20.340  18.698  44.791  1.00  0.00     0.132 C 
HETATM   14  C11 UNL     1      21.227  18.196  42.457  1.00  0.00     0.203 A 
ENDROOT
BRANCH  13  15
HETATM   15  O2  UNL     1      19.200  19.395  45.290  1.00  0.00    -0.395 OA
ATOM     16  H2  UNL     1      18.662  19.590  44.532  1.00  0.00     0.210 HD
ENDBRANCH  13  15
TORSDOF 1
ENDMDL
