MODEL 1
REMARK VINA RESULT: -8.027396817      0.000      0.000
REMARK  2 active torsions:
REMARK  status: ('A' for Active; 'I' for Inactive)
REMARK       I    between atoms: N5_21  and  C11_22 
REMARK    1  A    between atoms: C11_22  and  C12_24 
REMARK    2  A    between atoms: C12_24  and  N6_25 
ROOT
HETATM    1  C1  UNL     1     -11.107  22.559  15.535  1.00  0.00     0.221 C 
HETATM    2  N1  UNL     1     -11.852  22.126  14.766  1.00  0.00    -0.465 NA
HETATM    3  C2  UNL     1     -12.775  21.609  13.802  1.00  0.00     0.180 C 
HETATM    4  C3  UNL     1     -12.262  22.047  12.459  1.00  0.00     0.068 C 
HETATM    5  C4  UNL     1     -11.280  21.127  11.829  1.00  0.00     0.235 C 
HETATM    6  N2  UNL     1     -11.794  19.998  11.145  1.00  0.00    -0.073 N 
ATOM      7  H21 UNL     1     -12.580  19.596  11.655  1.00  0.00     0.277 HD
ATOM      8  H22 UNL     1     -11.139  19.218  11.196  1.00  0.00     0.277 HD
HETATM    9  C5  UNL     1     -12.168  20.267   9.754  1.00  0.00     0.259 C 
HETATM   10  C6  UNL     1     -12.797  19.085   9.108  1.00  0.00     0.259 C 
HETATM   11  N3  UNL     1     -14.271  19.098   9.160  1.00  0.00    -0.072 N 
ATOM     12  H31 UNL     1     -14.705  18.246   8.808  1.00  0.00     0.277 HD
ATOM     13  H32 UNL     1     -14.704  19.734   8.490  1.00  0.00     0.277 HD
HETATM   14  C7  UNL     1     -14.584  19.390  10.530  1.00  0.00     0.259 C 
HETATM   15  C8  UNL     1     -16.015  19.287  10.926  1.00  0.00     0.259 C 
HETATM   16  N4  UNL     1     -16.395  20.431  11.764  1.00  0.00    -0.072 N 
ATOM     17  H41 UNL     1     -17.215  20.904  11.385  1.00  0.00     0.277 HD
ATOM     18  H42 UNL     1     -15.714  21.185  11.682  1.00  0.00     0.277 HD
HETATM   19  C9  UNL     1     -16.603  20.070  13.152  1.00  0.00     0.252 C 
HETATM   20  C10 UNL     1     -15.305  20.065  13.863  1.00  0.00     0.153 C 
HETATM   21  N5  UNL     1     -15.032  21.214  14.705  1.00  0.00    -0.346 N 
HETATM   22  C11 UNL     1     -15.586  21.414  15.976  1.00  0.00     0.237 C 
HETATM   23  O1  UNL     1     -15.275  22.466  16.615  1.00  0.00    -0.272 OA
HETATM   24  C22 UNL     1     -14.113  22.192  14.156  1.00  0.00     0.165 C 
ENDROOT
BRANCH  22  25
HETATM   25  C12 UNL     1     -16.525  20.432  16.591  1.00  0.00     0.224 C 
BRANCH  25  26
HETATM   26  N6  UNL     1     -16.016  20.033  17.855  1.00  0.00    -0.382 N 
HETATM   27  C13 UNL     1     -14.905  19.191  17.875  1.00  0.00     0.077 C 
HETATM   28  C14 UNL     1     -14.912  18.048  18.853  1.00  0.00     0.158 C 
HETATM   29  N7  UNL     1     -14.299  18.497  20.071  1.00  0.00    -0.417 N 
HETATM   30  C15 UNL     1     -13.904  17.469  20.974  1.00  0.00     0.115 C 
ATOM     31  H7  UNL     1     -14.156  19.486  20.276  1.00  0.00     0.153 HD
HETATM   32  C16 UNL     1     -14.590  17.545  22.310  1.00  0.00     0.046 C 
HETATM   33  C17 UNL     1     -14.521  18.886  22.959  1.00  0.00     0.234 C 
HETATM   34  N8  UNL     1     -14.846  19.988  22.112  1.00  0.00    -0.073 N 
HETATM   35  C18 UNL     1     -15.857  20.861  22.678  1.00  0.00     0.259 C 
ATOM     36  H82 UNL     1     -14.009  20.516  21.863  1.00  0.00     0.277 HD
ATOM     37  H81 UNL     1     -15.122  19.665  21.184  1.00  0.00     0.277 HD
HETATM   38  C19 UNL     1     -16.441  21.786  21.631  1.00  0.00     0.259 C 
HETATM   39  N9  UNL     1     -17.512  21.177  20.891  1.00  0.00    -0.072 N 
HETATM   40  C20 UNL     1     -17.289  21.267  19.454  1.00  0.00     0.252 C 
ATOM     41  H92 UNL     1     -17.667  20.213  21.185  1.00  0.00     0.277 HD
ATOM     42  H91 UNL     1     -18.416  21.570  21.153  1.00  0.00     0.277 HD
HETATM   43  C21 UNL     1     -16.990  19.893  18.885  1.00  0.00     0.150 C 
ENDBRANCH  25  26
ENDBRANCH  22  25
TORSDOF 2
ENDMDL
MODEL 2
REMARK VINA RESULT: -8.026008421      4.404      6.636
REMARK  2 active torsions:
REMARK  status: ('A' for Active; 'I' for Inactive)
REMARK       I    between atoms: N5_21  and  C11_22 
REMARK    1  A    between atoms: C11_22  and  C12_24 
REMARK    2  A    between atoms: C12_24  and  N6_25 
ROOT
HETATM    1  C1  UNL     1     -15.488  23.258  11.822  1.00  0.00     0.221 C 
HETATM    2  N1  UNL     1     -14.722  22.509  12.254  1.00  0.00    -0.465 NA
HETATM    3  C2  UNL     1     -13.762  21.582  12.769  1.00  0.00     0.180 C 
HETATM    4  C3  UNL     1     -12.417  22.090  12.331  1.00  0.00     0.068 C 
HETATM    5  C4  UNL     1     -11.783  23.068  13.253  1.00  0.00     0.235 C 
HETATM    6  N2  UNL     1     -11.100  22.549  14.381  1.00  0.00    -0.073 N 
ATOM      7  H21 UNL     1     -11.614  21.765  14.782  1.00  0.00     0.277 HD
ATOM      8  H22 UNL     1     -11.149  23.203  15.162  1.00  0.00     0.277 HD
HETATM    9  C5  UNL     1      -9.712  22.170  14.111  1.00  0.00     0.259 C 
HETATM   10  C6  UNL     1      -9.067  21.537  15.292  1.00  0.00     0.259 C 
HETATM   11  N3  UNL     1      -9.126  20.063  15.277  1.00  0.00    -0.072 N 
ATOM     12  H31 UNL     1      -8.775  19.625  16.128  1.00  0.00     0.277 HD
ATOM     13  H32 UNL     1      -8.458  19.628  14.640  1.00  0.00     0.277 HD
HETATM   14  C7  UNL     1     -10.496  19.755  14.984  1.00  0.00     0.259 C 
HETATM   15  C8  UNL     1     -10.899  18.326  15.084  1.00  0.00     0.259 C 
HETATM   16  N4  UNL     1     -11.739  17.951  13.941  1.00  0.00    -0.072 N 
ATOM     17  H41 UNL     1     -11.363  17.131  13.466  1.00  0.00     0.277 HD
ATOM     18  H42 UNL     1     -11.654  18.634  13.187  1.00  0.00     0.277 HD
HETATM   19  C9  UNL     1     -13.127  17.749  14.301  1.00  0.00     0.252 C 
HETATM   20  C10 UNL     1     -13.833  19.049  14.308  1.00  0.00     0.153 C 
HETATM   21  N5  UNL     1     -14.674  19.328  13.160  1.00  0.00    -0.346 N 
HETATM   22  C11 UNL     1     -15.947  18.779  12.960  1.00  0.00     0.237 C 
HETATM   23  O1  UNL     1     -16.586  19.094  11.908  1.00  0.00    -0.272 OA
HETATM   24  C22 UNL     1     -14.121  20.246  12.184  1.00  0.00     0.165 C 
ENDROOT
BRANCH  22  25
HETATM   25  C12 UNL     1     -16.566  17.841  13.940  1.00  0.00     0.224 C 
BRANCH  25  26
HETATM   26  N6  UNL     1     -17.836  18.345  14.327  1.00  0.00    -0.382 N 
HETATM   27  C13 UNL     1     -17.868  19.462  15.161  1.00  0.00     0.077 C 
HETATM   28  C14 UNL     1     -18.854  19.458  16.296  1.00  0.00     0.158 C 
HETATM   29  N7  UNL     1     -20.073  20.060  15.834  1.00  0.00    -0.417 N 
HETATM   30  C15 UNL     1     -20.984  20.457  16.853  1.00  0.00     0.115 C 
ATOM     31  H7  UNL     1     -20.271  20.195  14.843  1.00  0.00     0.153 HD
HETATM   32  C16 UNL     1     -22.317  19.763  16.773  1.00  0.00     0.046 C 
HETATM   33  C17 UNL     1     -22.956  19.818  15.427  1.00  0.00     0.234 C 
HETATM   34  N8  UNL     1     -22.100  19.490  14.333  1.00  0.00    -0.073 N 
HETATM   35  C18 UNL     1     -22.653  18.469  13.464  1.00  0.00     0.259 C 
ATOM     36  H82 UNL     1     -21.852  20.325  13.801  1.00  0.00     0.277 HD
ATOM     37  H81 UNL     1     -21.173  19.221  14.664  1.00  0.00     0.277 HD
HETATM   38  C19 UNL     1     -21.596  17.885  12.551  1.00  0.00     0.259 C 
HETATM   39  N9  UNL     1     -20.855  16.823  13.172  1.00  0.00    -0.072 N 
HETATM   40  C20 UNL     1     -19.418  17.054  13.091  1.00  0.00     0.252 C 
ATOM     41  H92 UNL     1     -21.154  16.673  14.135  1.00  0.00     0.277 HD
ATOM     42  H91 UNL     1     -21.109  15.914  12.784  1.00  0.00     0.277 HD
HETATM   43  C21 UNL     1     -18.861  17.366  14.466  1.00  0.00     0.150 C 
ENDBRANCH  25  26
ENDBRANCH  22  25
TORSDOF 2
ENDMDL
MODEL 3
REMARK VINA RESULT: -7.614653106      1.775      9.012
REMARK  2 active torsions:
REMARK  status: ('A' for Active; 'I' for Inactive)
REMARK       I    between atoms: N5_21  and  C11_22 
REMARK    1  A    between atoms: C11_22  and  C12_24 
REMARK    2  A    between atoms: C12_24  and  N6_25 
ROOT
HETATM    1  C1  UNL     1     -12.251  16.567  17.719  1.00  0.00     0.221 C 
HETATM    2  N1  UNL     1     -13.176  17.135  18.112  1.00  0.00    -0.465 NA
HETATM    3  C2  UNL     1     -14.332  17.818  18.606  1.00  0.00     0.180 C 
HETATM    4  C3  UNL     1     -14.648  17.194  19.935  1.00  0.00     0.068 C 
HETATM    5  C4  UNL     1     -13.948  17.800  21.098  1.00  0.00     0.235 C 
HETATM    6  N2  UNL     1     -14.499  18.985  21.644  1.00  0.00    -0.073 N 
ATOM      7  H21 UNL     1     -14.832  19.600  20.902  1.00  0.00     0.277 HD
ATOM      8  H22 UNL     1     -13.765  19.573  22.038  1.00  0.00     0.277 HD
HETATM    9  C5  UNL     1     -15.556  18.748  22.629  1.00  0.00     0.259 C 
HETATM   10  C6  UNL     1     -16.175  20.016  23.098  1.00  0.00     0.259 C 
HETATM   11  N3  UNL     1     -17.399  20.382  22.362  1.00  0.00    -0.072 N 
ATOM     12  H31 UNL     1     -17.774  21.298  22.610  1.00  0.00     0.277 HD
ATOM     13  H32 UNL     1     -18.223  19.844  22.633  1.00  0.00     0.277 HD
HETATM   14  C7  UNL     1     -17.045  20.251  20.978  1.00  0.00     0.259 C 
HETATM   15  C8  UNL     1     -18.040  20.737  19.982  1.00  0.00     0.259 C 
HETATM   16  N4  UNL     1     -18.173  19.774  18.883  1.00  0.00    -0.072 N 
ATOM     17  H41 UNL     1     -19.148  19.506  18.749  1.00  0.00     0.277 HD
ATOM     18  H42 UNL     1     -17.785  18.867  19.144  1.00  0.00     0.277 HD
HETATM   19  C9  UNL     1     -17.591  20.247  17.644  1.00  0.00     0.252 C 
HETATM   20  C10 UNL     1     -16.140  19.958  17.634  1.00  0.00     0.153 C 
HETATM   21  N5  UNL     1     -15.718  18.823  16.835  1.00  0.00    -0.346 N 
HETATM   22  C11 UNL     1     -15.599  18.838  15.440  1.00  0.00     0.237 C 
HETATM   23  O1  UNL     1     -15.227  17.777  14.850  1.00  0.00    -0.272 OA
HETATM   24  C22 UNL     1     -15.405  17.616  17.574  1.00  0.00     0.165 C 
ENDROOT
BRANCH  22  25
HETATM   25  C12 UNL     1     -15.896  20.058  14.635  1.00  0.00     0.224 C 
BRANCH  25  26
HETATM   26  N6  UNL     1     -14.691  20.536  14.055  1.00  0.00    -0.382 N 
HETATM   27  C13 UNL     1     -13.784  21.193  14.885  1.00  0.00     0.077 C 
HETATM   28  C14 UNL     1     -13.131  22.441  14.358  1.00  0.00     0.158 C 
HETATM   29  N7  UNL     1     -11.906  22.067  13.709  1.00  0.00    -0.417 N 
HETATM   30  C15 UNL     1     -10.993  23.131  13.462  1.00  0.00     0.115 C 
ATOM     31  H7  UNL     1     -11.703  21.103  13.443  1.00  0.00     0.153 HD
HETATM   32  C16 UNL     1     -10.689  23.338  12.003  1.00  0.00     0.046 C 
HETATM   33  C17 UNL     1     -10.279  22.099  11.282  1.00  0.00     0.234 C 
HETATM   34  N8  UNL     1     -11.105  20.958  11.514  1.00  0.00    -0.073 N 
HETATM   35  C18 UNL     1     -11.568  20.333  10.291  1.00  0.00     0.259 C 
ATOM     36  H82 UNL     1     -10.631  20.280  12.112  1.00  0.00     0.277 HD
ATOM     37  H81 UNL     1     -11.891  21.195  12.121  1.00  0.00     0.277 HD
HETATM   38  C19 UNL     1     -12.714  19.379  10.553  1.00  0.00     0.259 C 
HETATM   39  N9  UNL     1     -13.988  20.043  10.587  1.00  0.00    -0.072 N 
HETATM   40  C20 UNL     1     -14.722  19.732  11.807  1.00  0.00     0.252 C 
ATOM     41  H92 UNL     1     -13.888  21.049  10.458  1.00  0.00     0.277 HD
ATOM     42  H91 UNL     1     -14.541  19.831   9.756  1.00  0.00     0.277 HD
HETATM   43  C21 UNL     1     -14.795  20.958  12.698  1.00  0.00     0.150 C 
ENDBRANCH  25  26
ENDBRANCH  22  25
TORSDOF 2
ENDMDL
MODEL 4
REMARK VINA RESULT: -7.587084200      4.042      8.440
REMARK  2 active torsions:
REMARK  status: ('A' for Active; 'I' for Inactive)
REMARK       I    between atoms: N5_21  and  C11_22 
REMARK    1  A    between atoms: C11_22  and  C12_24 
REMARK    2  A    between atoms: C12_24  and  N6_25 
ROOT
HETATM    1  C1  UNL     1     -17.893  16.717  12.329  1.00  0.00     0.221 C 
HETATM    2  N1  UNL     1     -17.302  16.304  13.231  1.00  0.00    -0.465 NA
HETATM    3  C2  UNL     1     -16.588  15.784  14.357  1.00  0.00     0.180 C 
HETATM    4  C3  UNL     1     -17.209  14.452  14.665  1.00  0.00     0.068 C 
HETATM    5  C4  UNL     1     -16.630  13.301  13.925  1.00  0.00     0.235 C 
HETATM    6  N2  UNL     1     -15.432  12.739  14.432  1.00  0.00    -0.073 N 
ATOM      7  H21 UNL     1     -14.804  13.471  14.761  1.00  0.00     0.277 HD
ATOM      8  H22 UNL     1     -14.867  12.356  13.673  1.00  0.00     0.277 HD
HETATM    9  C5  UNL     1     -15.644  11.733  15.475  1.00  0.00     0.259 C 
HETATM   10  C6  UNL     1     -14.362  11.247  16.049  1.00  0.00     0.259 C 
HETATM   11  N3  UNL     1     -13.957  11.957  17.277  1.00  0.00    -0.072 N 
ATOM     12  H31 UNL     1     -13.033  11.698  17.620  1.00  0.00     0.277 HD
ATOM     13  H32 UNL     1     -14.474  11.673  18.109  1.00  0.00     0.277 HD
HETATM   14  C7  UNL     1     -14.091  13.349  16.953  1.00  0.00     0.259 C 
HETATM   15  C8  UNL     1     -13.573  14.322  17.953  1.00  0.00     0.259 C 
HETATM   16  N4  UNL     1     -14.527  15.423  18.134  1.00  0.00    -0.072 N 
ATOM     17  H41 UNL     1     -14.766  15.539  19.119  1.00  0.00     0.277 HD
ATOM     18  H42 UNL     1     -15.445  15.174  17.768  1.00  0.00     0.277 HD
HETATM   19  C9  UNL     1     -14.064  16.672  17.564  1.00  0.00     0.252 C 
HETATM   20  C10 UNL     1     -14.394  16.712  16.122  1.00  0.00     0.153 C 
HETATM   21  N5  UNL     1     -15.536  17.523  15.749  1.00  0.00    -0.346 N 
HETATM   22  C11 UNL     1     -15.517  18.921  15.656  1.00  0.00     0.237 C 
HETATM   23  O1  UNL     1     -16.586  19.522  15.326  1.00  0.00    -0.272 OA
HETATM   24  C22 UNL     1     -16.755  16.795  15.455  1.00  0.00     0.165 C 
ENDROOT
BRANCH  22  25
HETATM   25  C12 UNL     1     -14.286  19.714  15.934  1.00  0.00     0.224 C 
BRANCH  25  26
HETATM   26  N6  UNL     1     -13.803  20.264  14.717  1.00  0.00    -0.382 N 
HETATM   27  C13 UNL     1     -13.130  19.415  13.840  1.00  0.00     0.077 C 
HETATM   28  C14 UNL     1     -11.882  19.936  13.182  1.00  0.00     0.158 C 
HETATM   29  N7  UNL     1     -12.253  20.545  11.936  1.00  0.00    -0.417 N 
HETATM   30  C15 UNL     1     -11.183  20.777  11.025  1.00  0.00     0.115 C 
ATOM     31  H7  UNL     1     -13.217  20.795  11.718  1.00  0.00     0.153 HD
HETATM   32  C16 UNL     1     -10.989  22.228  10.681  1.00  0.00     0.046 C 
HETATM   33  C17 UNL     1     -12.232  22.925  10.240  1.00  0.00     0.234 C 
HETATM   34  N8  UNL     1     -13.377  22.705  11.063  1.00  0.00    -0.073 N 
HETATM   35  C18 UNL     1     -14.018  23.935  11.485  1.00  0.00     0.259 C 
ATOM     36  H82 UNL     1     -14.044  22.087  10.601  1.00  0.00     0.277 HD
ATOM     37  H81 UNL     1     -13.140  22.123  11.867  1.00  0.00     0.277 HD
HETATM   38  C19 UNL     1     -14.978  23.695  12.631  1.00  0.00     0.259 C 
HETATM   39  N9  UNL     1     -14.325  23.705  13.911  1.00  0.00    -0.072 N 
HETATM   40  C20 UNL     1     -14.630  22.503  14.676  1.00  0.00     0.252 C 
ATOM     41  H92 UNL     1     -13.319  23.841  13.815  1.00  0.00     0.277 HD
ATOM     42  H91 UNL     1     -14.550  24.549  14.437  1.00  0.00     0.277 HD
HETATM   43  C21 UNL     1     -13.396  21.627  14.785  1.00  0.00     0.150 C 
ENDBRANCH  25  26
ENDBRANCH  22  25
TORSDOF 2
ENDMDL
MODEL 5
REMARK VINA RESULT: -7.511897254      3.547      8.206
REMARK  2 active torsions:
REMARK  status: ('A' for Active; 'I' for Inactive)
REMARK       I    between atoms: N5_21  and  C11_22 
REMARK    1  A    between atoms: C11_22  and  C12_24 
REMARK    2  A    between atoms: C12_24  and  N6_25 
ROOT
HETATM    1  C1  UNL     1     -17.385  22.028  17.918  1.00  0.00     0.221 C 
HETATM    2  N1  UNL     1     -17.839  21.144  17.328  1.00  0.00    -0.465 NA
HETATM    3  C2  UNL     1     -18.409  20.040  16.618  1.00  0.00     0.180 C 
HETATM    4  C3  UNL     1     -19.736  19.768  17.268  1.00  0.00     0.068 C 
HETATM    5  C4  UNL     1     -20.877  20.547  16.721  1.00  0.00     0.235 C 
HETATM    6  N2  UNL     1     -21.481  20.067  15.532  1.00  0.00    -0.073 N 
ATOM      7  H21 UNL     1     -20.773  19.721  14.885  1.00  0.00     0.277 HD
ATOM      8  H22 UNL     1     -21.853  20.841  14.982  1.00  0.00     0.277 HD
HETATM    9  C5  UNL     1     -22.512  19.053  15.759  1.00  0.00     0.259 C 
HETATM   10  C6  UNL     1     -23.045  18.505  14.484  1.00  0.00     0.259 C 
HETATM   11  N3  UNL     1     -22.381  17.260  14.054  1.00  0.00    -0.072 N 
ATOM     12  H31 UNL     1     -22.672  16.932  13.133  1.00  0.00     0.277 HD
ATOM     13  H32 UNL     1     -22.679  16.432  14.570  1.00  0.00     0.277 HD
HETATM   14  C7  UNL     1     -20.978  17.540  14.158  1.00  0.00     0.259 C 
HETATM   15  C8  UNL     1     -20.047  16.515  13.610  1.00  0.00     0.259 C 
HETATM   16  N4  UNL     1     -18.931  16.293  14.537  1.00  0.00    -0.072 N 
ATOM     17  H41 UNL     1     -18.839  15.303  14.766  1.00  0.00     0.277 HD
ATOM     18  H42 UNL     1     -19.148  16.659  15.463  1.00  0.00     0.277 HD
HETATM   19  C9  UNL     1     -17.677  16.829  14.049  1.00  0.00     0.252 C 
HETATM   20  C10 UNL     1     -17.586  18.267  14.390  1.00  0.00     0.153 C 
HETATM   21  N5  UNL     1     -16.737  18.606  15.516  1.00  0.00    -0.346 N 
HETATM   22  C11 UNL     1     -15.339  18.656  15.466  1.00  0.00     0.237 C 
HETATM   23  O1  UNL     1     -14.704  18.960  16.523  1.00  0.00    -0.272 OA
HETATM   24  C22 UNL     1     -17.428  18.911  16.754  1.00  0.00     0.165 C 
ENDROOT
BRANCH  22  25
HETATM   25  C12 UNL     1     -14.582  18.365  14.214  1.00  0.00     0.224 C 
BRANCH  25  26
HETATM   26  N6  UNL     1     -13.971  19.560  13.752  1.00  0.00    -0.382 N 
HETATM   27  C13 UNL     1     -14.773  20.488  13.087  1.00  0.00     0.077 C 
HETATM   28  C14 UNL     1     -14.214  21.137  11.852  1.00  0.00     0.158 C 
HETATM   29  N7  UNL     1     -13.546  22.347  12.243  1.00  0.00    -0.417 N 
HETATM   30  C15 UNL     1     -13.265  23.260  11.188  1.00  0.00     0.115 C 
ATOM     31  H7  UNL     1     -13.292  22.539  13.212  1.00  0.00     0.153 HD
HETATM   32  C16 UNL     1     -11.798  23.536  11.006  1.00  0.00     0.046 C 
HETATM   33  C17 UNL     1     -11.088  23.925  12.258  1.00  0.00     0.234 C 
HETATM   34  N8  UNL     1     -11.354  23.098  13.390  1.00  0.00    -0.073 N 
HETATM   35  C18 UNL     1     -10.149  22.607  14.031  1.00  0.00     0.259 C 
ATOM     36  H82 UNL     1     -11.952  23.580  14.061  1.00  0.00     0.277 HD
ATOM     37  H81 UNL     1     -11.972  22.326  13.139  1.00  0.00     0.277 HD
HETATM   38  C19 UNL     1     -10.450  21.461  14.974  1.00  0.00     0.259 C 
HETATM   39  N9  UNL     1     -10.498  20.192  14.303  1.00  0.00    -0.072 N 
HETATM   40  C20 UNL     1     -11.737  19.481  14.590  1.00  0.00     0.252 C 
ATOM     41  H92 UNL     1     -10.352  20.295  13.299  1.00  0.00     0.277 HD
ATOM     42  H91 UNL     1      -9.682  19.621  14.524  1.00  0.00     0.277 HD
HETATM   43  C21 UNL     1     -12.611  19.432  13.351  1.00  0.00     0.150 C 
ENDBRANCH  25  26
ENDBRANCH  22  25
TORSDOF 2
ENDMDL
