MODEL 1
REMARK VINA RESULT: -7.832691179      0.000      0.000
REMARK  7 active torsions:
REMARK  status: ('A' for Active; 'I' for Inactive)
REMARK    1  A    between atoms: S1_2  and  C1_4 
REMARK    2  A    between atoms: S1_2  and  N2_12 
REMARK    3  A    between atoms: C1_4  and  C2_5 
REMARK    4  A    between atoms: N2_12  and  C7_14 
REMARK    5  A    between atoms: C7_14  and  C8_15 
REMARK    6  A    between atoms: C8_15  and  C9_16 
REMARK    7  A    between atoms: C12_21  and  C13_22 
ROOT
HETATM    1  C8  UNL     1      11.342 -44.747   4.393  1.00  0.00     0.103 C 
ENDROOT
BRANCH   1   2
HETATM    2  C7  UNL     1      11.938 -43.808   5.426  1.00  0.00     0.079 C 
BRANCH   2   3
HETATM    3  N2  UNL     1      11.382 -44.021   6.683  1.00  0.00    -0.298 N 
ATOM      4  H2  UNL     1      10.404 -44.307   6.741  1.00  0.00     0.177 HD
BRANCH   3   5
HETATM    5  S1  UNL     1      12.237 -43.831   8.091  1.00  0.00     0.234 S 
HETATM    6  O1  UNL     1      13.610 -44.531   7.970  1.00  0.00    -0.205 OA
HETATM    7  O2  UNL     1      11.530 -44.612   9.231  1.00  0.00    -0.205 OA
BRANCH   5   8
HETATM    8  C1  UNL     1      12.550 -42.209   8.636  1.00  0.00     0.202 C 
BRANCH   8   9
HETATM    9  C2  UNL     1      11.423 -41.359   9.044  1.00  0.00    -0.040 A 
HETATM   10  C3  UNL     1      10.660 -40.597   8.191  1.00  0.00     0.025 A 
HETATM   11  C4  UNL     1       9.614 -39.810   8.593  1.00  0.00     0.088 A 
HETATM   12  N1  UNL     1       9.286 -39.754   9.892  1.00  0.00    -0.375 N 
HETATM   13  C5  UNL     1       9.997 -40.479  10.777  1.00  0.00     0.088 A 
ATOM     14  H1  UNL     1       8.509 -39.171  10.205  1.00  0.00     0.164 HD
HETATM   15  C6  UNL     1      11.048 -41.274  10.397  1.00  0.00     0.025 A 
ENDBRANCH   8   9
ENDBRANCH   5   8
ENDBRANCH   3   5
ENDBRANCH   2   3
ENDBRANCH   1   2
BRANCH   1  16
HETATM   16  C9  UNL     1      12.078 -46.007   4.232  1.00  0.00     0.030 A 
HETATM   17  C10 UNL     1      11.761 -47.222   4.752  1.00  0.00     0.113 A 
HETATM   18  N3  UNL     1      12.517 -48.322   4.557  1.00  0.00    -0.371 N 
HETATM   19  C11 UNL     1      13.636 -48.210   3.811  1.00  0.00     0.117 A 
ATOM     20  H3  UNL     1      12.249 -49.218   4.964  1.00  0.00     0.164 HD
HETATM   21  C12 UNL     1      14.016 -47.012   3.253  1.00  0.00     0.058 A 
HETATM   22  N4  UNL     1      13.214 -45.960   3.492  1.00  0.00    -0.356 N 
ATOM     23  H4  UNL     1      13.478 -45.061   3.087  1.00  0.00     0.166 HD
BRANCH  21  24
HETATM   24  C13 UNL     1      15.219 -46.893   2.450  1.00  0.00    -0.008 A 
HETATM   25  C14 UNL     1      16.215 -47.820   2.504  1.00  0.00     0.014 A 
HETATM   26  C15 UNL     1      17.379 -47.703   1.724  1.00  0.00     0.001 A 
HETATM   27  C16 UNL     1      17.520 -46.625   0.883  1.00  0.00     0.000 A 
HETATM   28  C17 UNL     1      16.522 -45.679   0.816  1.00  0.00     0.001 A 
HETATM   29  C18 UNL     1      15.384 -45.820   1.597  1.00  0.00     0.014 A 
ENDBRANCH  21  24
ENDBRANCH   1  16
TORSDOF 7
ENDMDL
MODEL 2
REMARK VINA RESULT: -7.798769354      3.058      8.613
REMARK  7 active torsions:
REMARK  status: ('A' for Active; 'I' for Inactive)
REMARK    1  A    between atoms: S1_2  and  C1_4 
REMARK    2  A    between atoms: S1_2  and  N2_12 
REMARK    3  A    between atoms: C1_4  and  C2_5 
REMARK    4  A    between atoms: N2_12  and  C7_14 
REMARK    5  A    between atoms: C7_14  and  C8_15 
REMARK    6  A    between atoms: C8_15  and  C9_16 
REMARK    7  A    between atoms: C12_21  and  C13_22 
ROOT
HETATM    1  C8  UNL     1      13.687 -44.753   7.700  1.00  0.00     0.103 C 
ENDROOT
BRANCH   1   2
HETATM    2  C7  UNL     1      14.240 -45.437   6.463  1.00  0.00     0.079 C 
BRANCH   2   3
HETATM    3  N2  UNL     1      13.226 -45.759   5.568  1.00  0.00    -0.298 N 
ATOM      4  H2  UNL     1      12.400 -45.161   5.530  1.00  0.00     0.177 HD
BRANCH   3   5
HETATM    5  S1  UNL     1      13.299 -47.074   4.559  1.00  0.00     0.234 S 
HETATM    6  O1  UNL     1      12.333 -48.173   5.057  1.00  0.00    -0.205 OA
HETATM    7  O2  UNL     1      14.697 -47.737   4.680  1.00  0.00    -0.205 OA
BRANCH   5   8
HETATM    8  C1  UNL     1      12.945 -46.822   2.875  1.00  0.00     0.202 C 
BRANCH   8   9
HETATM    9  C2  UNL     1      11.771 -46.023   2.500  1.00  0.00    -0.040 A 
HETATM   10  C3  UNL     1      10.567 -46.029   3.163  1.00  0.00     0.025 A 
HETATM   11  C4  UNL     1       9.484 -45.277   2.796  1.00  0.00     0.088 A 
HETATM   12  N1  UNL     1       9.567 -44.472   1.726  1.00  0.00    -0.375 N 
HETATM   13  C5  UNL     1      10.722 -44.422   1.034  1.00  0.00     0.088 A 
ATOM     14  H1  UNL     1       8.767 -43.907   1.441  1.00  0.00     0.164 HD
HETATM   15  C6  UNL     1      11.818 -45.167   1.384  1.00  0.00     0.025 A 
ENDBRANCH   8   9
ENDBRANCH   5   8
ENDBRANCH   3   5
ENDBRANCH   2   3
ENDBRANCH   1   2
BRANCH   1  16
HETATM   16  C9  UNL     1      13.512 -43.302   7.556  1.00  0.00     0.030 A 
HETATM   17  C10 UNL     1      14.271 -42.446   6.823  1.00  0.00     0.113 A 
HETATM   18  N3  UNL     1      14.034 -41.119   6.769  1.00  0.00    -0.371 N 
HETATM   19  C11 UNL     1      12.996 -40.622   7.474  1.00  0.00     0.117 A 
ATOM     20  H3  UNL     1      14.626 -40.506   6.209  1.00  0.00     0.164 HD
HETATM   21  C12 UNL     1      12.186 -41.430   8.236  1.00  0.00     0.058 A 
HETATM   22  N4  UNL     1      12.484 -42.741   8.241  1.00  0.00    -0.356 N 
ATOM     23  H4  UNL     1      11.895 -43.359   8.801  1.00  0.00     0.166 HD
BRANCH  21  24
HETATM   24  C13 UNL     1      11.069 -40.894   8.992  1.00  0.00    -0.008 A 
HETATM   25  C14 UNL     1      10.088 -40.157   8.402  1.00  0.00     0.014 A 
HETATM   26  C15 UNL     1       9.007 -39.639   9.137  1.00  0.00     0.001 A 
HETATM   27  C16 UNL     1       8.935 -39.881  10.488  1.00  0.00     0.000 A 
HETATM   28  C17 UNL     1       9.919 -40.624  11.101  1.00  0.00     0.001 A 
HETATM   29  C18 UNL     1      10.974 -41.123  10.351  1.00  0.00     0.014 A 
ENDBRANCH  21  24
ENDBRANCH   1  16
TORSDOF 7
ENDMDL
MODEL 3
REMARK VINA RESULT: -7.775216947      2.562      9.165
REMARK  7 active torsions:
REMARK  status: ('A' for Active; 'I' for Inactive)
REMARK    1  A    between atoms: S1_2  and  C1_4 
REMARK    2  A    between atoms: S1_2  and  N2_12 
REMARK    3  A    between atoms: C1_4  and  C2_5 
REMARK    4  A    between atoms: N2_12  and  C7_14 
REMARK    5  A    between atoms: C7_14  and  C8_15 
REMARK    6  A    between atoms: C8_15  and  C9_16 
REMARK    7  A    between atoms: C12_21  and  C13_22 
ROOT
HETATM    1  C8  UNL     1      12.511 -45.101   6.375  1.00  0.00     0.103 C 
ENDROOT
BRANCH   1   2
HETATM    2  C7  UNL     1      12.147 -45.102   4.901  1.00  0.00     0.079 C 
BRANCH   2   3
HETATM    3  N2  UNL     1      11.136 -46.018   4.631  1.00  0.00    -0.298 N 
ATOM      4  H2  UNL     1      10.167 -45.731   4.772  1.00  0.00     0.177 HD
BRANCH   3   5
HETATM    5  S1  UNL     1      11.436 -47.557   4.090  1.00  0.00     0.234 S 
HETATM    6  O1  UNL     1      10.138 -48.396   4.145  1.00  0.00    -0.205 OA
HETATM    7  O2  UNL     1      12.376 -48.280   5.092  1.00  0.00    -0.205 OA
BRANCH   5   8
HETATM    8  C1  UNL     1      12.083 -47.741   2.486  1.00  0.00     0.202 C 
BRANCH   8   9
HETATM    9  C2  UNL     1      13.539 -47.745   2.296  1.00  0.00    -0.040 A 
HETATM   10  C3  UNL     1      14.310 -48.872   2.131  1.00  0.00     0.025 A 
HETATM   11  C4  UNL     1      15.668 -48.854   1.956  1.00  0.00     0.088 A 
HETATM   12  N1  UNL     1      16.320 -47.682   1.941  1.00  0.00    -0.375 N 
HETATM   13  C5  UNL     1      15.619 -46.542   2.097  1.00  0.00     0.088 A 
ATOM     14  H1  UNL     1      17.331 -47.654   1.812  1.00  0.00     0.164 HD
HETATM   15  C6  UNL     1      14.259 -46.537   2.274  1.00  0.00     0.025 A 
ENDBRANCH   8   9
ENDBRANCH   5   8
ENDBRANCH   3   5
ENDBRANCH   2   3
ENDBRANCH   1   2
BRANCH   1  16
HETATM   16  C9  UNL     1      12.928 -43.790   6.888  1.00  0.00     0.030 A 
HETATM   17  C10 UNL     1      14.148 -43.204   6.771  1.00  0.00     0.113 A 
HETATM   18  N3  UNL     1      14.435 -41.995   7.296  1.00  0.00    -0.371 N 
HETATM   19  C11 UNL     1      13.465 -41.339   7.966  1.00  0.00     0.117 A 
ATOM     20  H3  UNL     1      15.364 -41.587   7.189  1.00  0.00     0.164 HD
HETATM   21  C12 UNL     1      12.207 -41.871   8.122  1.00  0.00     0.058 A 
HETATM   22  N4  UNL     1      11.996 -43.080   7.573  1.00  0.00    -0.356 N 
ATOM     23  H4  UNL     1      11.069 -43.492   7.677  1.00  0.00     0.166 HD
BRANCH  21  24
HETATM   24  C13 UNL     1      11.164 -41.163   8.842  1.00  0.00    -0.008 A 
HETATM   25  C14 UNL     1      10.291 -40.332   8.210  1.00  0.00     0.014 A 
HETATM   26  C15 UNL     1       9.281 -39.647   8.910  1.00  0.00     0.001 A 
HETATM   27  C16 UNL     1       9.170 -39.819  10.269  1.00  0.00     0.000 A 
HETATM   28  C17 UNL     1      10.045 -40.656  10.924  1.00  0.00     0.001 A 
HETATM   29  C18 UNL     1      11.032 -41.319  10.208  1.00  0.00     0.014 A 
ENDBRANCH  21  24
ENDBRANCH   1  16
TORSDOF 7
ENDMDL
MODEL 4
REMARK VINA RESULT: -7.754830242      3.076      8.537
REMARK  7 active torsions:
REMARK  status: ('A' for Active; 'I' for Inactive)
REMARK    1  A    between atoms: S1_2  and  C1_4 
REMARK    2  A    between atoms: S1_2  and  N2_12 
REMARK    3  A    between atoms: C1_4  and  C2_5 
REMARK    4  A    between atoms: N2_12  and  C7_14 
REMARK    5  A    between atoms: C7_14  and  C8_15 
REMARK    6  A    between atoms: C8_15  and  C9_16 
REMARK    7  A    between atoms: C12_21  and  C13_22 
ROOT
HETATM    1  C8  UNL     1      13.654 -44.756   7.617  1.00  0.00     0.103 C 
ENDROOT
BRANCH   1   2
HETATM    2  C7  UNL     1      14.203 -45.416   6.364  1.00  0.00     0.079 C 
BRANCH   2   3
HETATM    3  N2  UNL     1      13.183 -45.745   5.478  1.00  0.00    -0.298 N 
ATOM      4  H2  UNL     1      12.380 -45.120   5.406  1.00  0.00     0.177 HD
BRANCH   3   5
HETATM    5  S1  UNL     1      13.215 -47.107   4.533  1.00  0.00     0.234 S 
HETATM    6  O1  UNL     1      12.227 -48.157   5.090  1.00  0.00    -0.205 OA
HETATM    7  O2  UNL     1      14.598 -47.799   4.675  1.00  0.00    -0.205 OA
BRANCH   5   8
HETATM    8  C1  UNL     1      12.853 -46.928   2.841  1.00  0.00     0.202 C 
BRANCH   8   9
HETATM    9  C2  UNL     1      11.737 -46.063   2.434  1.00  0.00    -0.040 A 
HETATM   10  C3  UNL     1      11.756 -45.203   1.362  1.00  0.00     0.025 A 
HETATM   11  C4  UNL     1      10.705 -44.404   1.000  1.00  0.00     0.088 A 
HETATM   12  N1  UNL     1       9.570 -44.436   1.714  1.00  0.00    -0.375 N 
HETATM   13  C5  UNL     1       9.490 -45.259   2.777  1.00  0.00     0.088 A 
ATOM     14  H1  UNL     1       8.779 -43.845   1.456  1.00  0.00     0.164 HD
HETATM   15  C6  UNL     1      10.531 -46.068   3.158  1.00  0.00     0.025 A 
ENDBRANCH   8   9
ENDBRANCH   5   8
ENDBRANCH   3   5
ENDBRANCH   2   3
ENDBRANCH   1   2
BRANCH   1  16
HETATM   16  C9  UNL     1      13.482 -43.303   7.503  1.00  0.00     0.030 A 
HETATM   17  C10 UNL     1      14.237 -42.434   6.782  1.00  0.00     0.113 A 
HETATM   18  N3  UNL     1      14.003 -41.105   6.756  1.00  0.00    -0.371 N 
HETATM   19  C11 UNL     1      12.972 -40.620   7.479  1.00  0.00     0.117 A 
ATOM     20  H3  UNL     1      14.592 -40.482   6.204  1.00  0.00     0.164 HD
HETATM   21  C12 UNL     1      12.166 -41.442   8.231  1.00  0.00     0.058 A 
HETATM   22  N4  UNL     1      12.461 -42.754   8.208  1.00  0.00    -0.356 N 
ATOM     23  H4  UNL     1      11.875 -43.381   8.759  1.00  0.00     0.166 HD
BRANCH  21  24
HETATM   24  C13 UNL     1      11.056 -40.918   9.006  1.00  0.00    -0.008 A 
HETATM   25  C14 UNL     1      10.945 -41.141  10.344  1.00  0.00     0.014 A 
HETATM   26  C15 UNL     1       9.869 -40.633  11.094  1.00  0.00     0.001 A 
HETATM   27  C16 UNL     1       8.901 -39.890  10.462  1.00  0.00     0.000 A 
HETATM   28  C17 UNL     1       8.998 -39.655   9.109  1.00  0.00     0.001 A 
HETATM   29  C18 UNL     1      10.071 -40.169   8.394  1.00  0.00     0.014 A 
ENDBRANCH  21  24
ENDBRANCH   1  16
TORSDOF 7
ENDMDL
MODEL 5
REMARK VINA RESULT: -7.701041821      2.535      9.148
REMARK  7 active torsions:
REMARK  status: ('A' for Active; 'I' for Inactive)
REMARK    1  A    between atoms: S1_2  and  C1_4 
REMARK    2  A    between atoms: S1_2  and  N2_12 
REMARK    3  A    between atoms: C1_4  and  C2_5 
REMARK    4  A    between atoms: N2_12  and  C7_14 
REMARK    5  A    between atoms: C7_14  and  C8_15 
REMARK    6  A    between atoms: C8_15  and  C9_16 
REMARK    7  A    between atoms: C12_21  and  C13_22 
ROOT
HETATM    1  C8  UNL     1      12.336 -44.993   6.376  1.00  0.00     0.103 C 
ENDROOT
BRANCH   1   2
HETATM    2  C7  UNL     1      12.095 -44.976   4.877  1.00  0.00     0.079 C 
BRANCH   2   3
HETATM    3  N2  UNL     1      11.045 -45.816   4.525  1.00  0.00    -0.298 N 
ATOM      4  H2  UNL     1      10.094 -45.448   4.558  1.00  0.00     0.177 HD
BRANCH   3   5
HETATM    5  S1  UNL     1      11.269 -47.390   4.052  1.00  0.00     0.234 S 
HETATM    6  O1  UNL     1       9.920 -48.145   4.085  1.00  0.00    -0.205 OA
HETATM    7  O2  UNL     1      12.124 -48.129   5.117  1.00  0.00    -0.205 OA
BRANCH   5   8
HETATM    8  C1  UNL     1      11.963 -47.674   2.484  1.00  0.00     0.202 C 
BRANCH   8   9
HETATM    9  C2  UNL     1      13.424 -47.669   2.334  1.00  0.00    -0.040 A 
HETATM   10  C3  UNL     1      14.206 -46.541   2.253  1.00  0.00     0.025 A 
HETATM   11  C4  UNL     1      15.568 -46.558   2.112  1.00  0.00     0.088 A 
HETATM   12  N1  UNL     1      16.213 -47.732   2.045  1.00  0.00    -0.375 N 
HETATM   13  C5  UNL     1      15.502 -48.874   2.118  1.00  0.00     0.088 A 
ATOM     14  H1  UNL     1      17.227 -47.759   1.939  1.00  0.00     0.164 HD
HETATM   15  C6  UNL     1      14.137 -48.879   2.259  1.00  0.00     0.025 A 
ENDBRANCH   8   9
ENDBRANCH   5   8
ENDBRANCH   3   5
ENDBRANCH   2   3
ENDBRANCH   1   2
BRANCH   1  16
HETATM   16  C9  UNL     1      12.766 -43.703   6.929  1.00  0.00     0.030 A 
HETATM   17  C10 UNL     1      13.990 -43.123   6.822  1.00  0.00     0.113 A 
HETATM   18  N3  UNL     1      14.290 -41.934   7.384  1.00  0.00    -0.371 N 
HETATM   19  C11 UNL     1      13.330 -41.293   8.083  1.00  0.00     0.117 A 
ATOM     20  H3  UNL     1      15.221 -41.530   7.284  1.00  0.00     0.164 HD
HETATM   21  C12 UNL     1      12.069 -41.820   8.231  1.00  0.00     0.058 A 
HETATM   22  N4  UNL     1      11.845 -43.009   7.643  1.00  0.00    -0.356 N 
ATOM     23  H4  UNL     1      10.915 -43.418   7.742  1.00  0.00     0.166 HD
BRANCH  21  24
HETATM   24  C13 UNL     1      11.037 -41.128   8.982  1.00  0.00    -0.008 A 
HETATM   25  C14 UNL     1      10.876 -41.312  10.321  1.00  0.00     0.014 A 
HETATM   26  C15 UNL     1       9.876 -40.640  11.046  1.00  0.00     0.001 A 
HETATM   27  C16 UNL     1       9.036 -39.773  10.388  1.00  0.00     0.000 A 
HETATM   28  C17 UNL     1       9.185 -39.576   9.034  1.00  0.00     0.001 A 
HETATM   29  C18 UNL     1      10.181 -40.253   8.343  1.00  0.00     0.014 A 
ENDBRANCH  21  24
ENDBRANCH   1  16
TORSDOF 7
ENDMDL
