MODEL 1
REMARK VINA RESULT: -8.320239462      0.000      0.000
REMARK  11 active torsions:
REMARK  status: ('A' for Active; 'I' for Inactive)
REMARK    1  A    between atoms: N1_1  and  C1_5 
REMARK    2  A    between atoms: C1_5  and  C2_6 
REMARK    3  A    between atoms: C3_8  and  O1_9 
REMARK    4  A    between atoms: O1_9  and  C4_10 
REMARK    5  A    between atoms: C5_12  and  N2_13 
REMARK    6  A    between atoms: N2_13  and  C6_16 
REMARK    7  A    between atoms: C8_20  and  C9_21 
REMARK    8  A    between atoms: C10_24  and  N4_25 
REMARK    9  A    between atoms: C12_30  and  N5_31 
REMARK   10  A    between atoms: C13_35  and  N6_36 
REMARK   11  A    between atoms: C14_40  and  O6_41 
ROOT
HETATM    1  C4  UNL     1       3.781   1.232  23.769  1.00  0.00     0.294 C 
HETATM    2  O2  UNL     1       3.594   0.511  22.601  1.00  0.00    -0.324 OA
HETATM    3  C5  UNL     1       4.424   0.939  21.566  1.00  0.00     0.357 C 
HETATM    4  C10 UNL     1       5.868   0.552  21.815  1.00  0.00     0.241 C 
HETATM    5  C11 UNL     1       6.009   0.382  23.338  1.00  0.00     0.075 C 
HETATM    6  C12 UNL     1       5.257   1.581  23.930  1.00  0.00     0.240 C 
ENDROOT
BRANCH   1   7
HETATM    7  O1  UNL     1       2.958   2.337  23.870  1.00  0.00    -0.341 OA
BRANCH   7   8
HETATM    8  C3  UNL     1       1.775   2.070  24.510  1.00  0.00     0.219 C 
HETATM    9  S1  UNL     1       1.539   0.270  24.813  1.00  0.00    -0.126 SA
HETATM   10  C2  UNL     1      -0.170   0.123  24.221  1.00  0.00     0.106 C 
HETATM   11  C14 UNL     1      -0.567   1.574  24.099  1.00  0.00     0.167 C 
HETATM   12  C13 UNL     1       0.630   2.299  23.551  1.00  0.00     0.252 C 
BRANCH  10  13
HETATM   13  C1  UNL     1      -1.037  -0.625  25.201  1.00  0.00     0.247 C 
BRANCH  13  14
HETATM   14  N1  UNL     1      -2.416  -0.274  24.957  1.00  0.00    -0.078 N 
ATOM     15  H13 UNL     1      -2.580   0.019  23.994  1.00  0.00     0.274 HD
ATOM     16  H12 UNL     1      -3.033  -1.086  24.963  1.00  0.00     0.274 HD
ATOM     17  H11 UNL     1      -2.696   0.436  25.634  1.00  0.00     0.274 HD
ENDBRANCH  13  14
ENDBRANCH  10  13
BRANCH  11  18
HETATM   18  O6  UNL     1      -1.015   2.125  25.297  1.00  0.00    -0.392 OA
ATOM     19  H6  UNL     1      -1.386   2.994  25.195  1.00  0.00     0.210 HD
ENDBRANCH  11  18
BRANCH  12  20
HETATM   20  N6  UNL     1       0.923   1.740  22.244  1.00  0.00    -0.069 N 
ATOM     21  H63 UNL     1       1.821   2.069  21.887  1.00  0.00     0.275 HD
ATOM     22  H62 UNL     1       1.133   0.743  22.299  1.00  0.00     0.275 HD
ATOM     23  H61 UNL     1       0.167   1.928  21.585  1.00  0.00     0.275 HD
ENDBRANCH  12  20
ENDBRANCH   7   8
ENDBRANCH   1   7
BRANCH   6  24
HETATM   24  N5  UNL     1       5.630   1.820  25.294  1.00  0.00    -0.070 N 
ATOM     25  H53 UNL     1       5.074   1.247  25.929  1.00  0.00     0.274 HD
ATOM     26  H52 UNL     1       6.555   1.438  25.492  1.00  0.00     0.274 HD
ATOM     27  H51 UNL     1       5.579   2.806  25.553  1.00  0.00     0.274 HD
ENDBRANCH   6  24
BRANCH   3  28
HETATM   28  N2  UNL     1       4.000   0.341  20.334  1.00  0.00    -0.017 N 
ATOM     29  H22 UNL     1       3.787  -0.648  20.463  1.00  0.00     0.283 HD
ATOM     30  H21 UNL     1       3.075   0.676  20.065  1.00  0.00     0.283 HD
BRANCH  28  31
HETATM   31  C6  UNL     1       4.944   0.530  19.271  1.00  0.00     0.364 C 
HETATM   32  O3  UNL     1       5.173  -0.602  18.499  1.00  0.00    -0.332 OA
HETATM   33  C7  UNL     1       5.781  -0.022  17.366  1.00  0.00     0.342 C 
HETATM   34  O4  UNL     1       4.788   0.895  17.011  1.00  0.00    -0.348 OA
HETATM   35  C8  UNL     1       4.462   1.510  18.221  1.00  0.00     0.269 C 
BRANCH  35  36
HETATM   36  C9  UNL     1       5.243   2.772  18.283  1.00  0.00     0.264 C 
HETATM   37  N3  UNL     1       6.560   2.769  18.827  1.00  0.00    -0.060 NA
HETATM   38  O5  UNL     1       4.790   3.864  17.869  1.00  0.00    -0.274 OA
ENDBRANCH  35  36
ENDBRANCH  28  31
ENDBRANCH   3  28
BRANCH   4  39
HETATM   39  N4  UNL     1       6.774   1.639  21.493  1.00  0.00    -0.071 N 
ATOM     40  H43 UNL     1       7.220   1.496  20.587  1.00  0.00     0.274 HD
ATOM     41  H42 UNL     1       6.266   2.499  21.286  1.00  0.00     0.274 HD
ATOM     42  H41 UNL     1       7.464   1.782  22.230  1.00  0.00     0.274 HD
ENDBRANCH   4  39
TORSDOF 11
ENDMDL
MODEL 2
REMARK VINA RESULT: -8.298679824      2.911      6.828
REMARK  11 active torsions:
REMARK  status: ('A' for Active; 'I' for Inactive)
REMARK    1  A    between atoms: N1_1  and  C1_5 
REMARK    2  A    between atoms: C1_5  and  C2_6 
REMARK    3  A    between atoms: C3_8  and  O1_9 
REMARK    4  A    between atoms: O1_9  and  C4_10 
REMARK    5  A    between atoms: C5_12  and  N2_13 
REMARK    6  A    between atoms: N2_13  and  C6_16 
REMARK    7  A    between atoms: C8_20  and  C9_21 
REMARK    8  A    between atoms: C10_24  and  N4_25 
REMARK    9  A    between atoms: C12_30  and  N5_31 
REMARK   10  A    between atoms: C13_35  and  N6_36 
REMARK   11  A    between atoms: C14_40  and  O6_41 
ROOT
HETATM    1  C4  UNL     1       2.921   1.622  22.512  1.00  0.00     0.294 C 
HETATM    2  O2  UNL     1       3.521   0.632  23.273  1.00  0.00    -0.324 OA
HETATM    3  C5  UNL     1       4.359   1.147  24.261  1.00  0.00     0.357 C 
HETATM    4  C10 UNL     1       3.569   1.807  25.372  1.00  0.00     0.241 C 
HETATM    5  C11 UNL     1       2.219   2.214  24.754  1.00  0.00     0.075 C 
HETATM    6  C12 UNL     1       2.587   2.820  23.394  1.00  0.00     0.240 C 
ENDROOT
BRANCH   1   7
HETATM    7  O1  UNL     1       3.651   1.971  21.392  1.00  0.00    -0.341 OA
BRANCH   7   8
HETATM    8  C3  UNL     1       3.963   0.899  20.596  1.00  0.00     0.219 C 
HETATM    9  S1  UNL     1       5.781   0.675  20.414  1.00  0.00    -0.126 SA
HETATM   10  C2  UNL     1       5.841   0.459  18.612  1.00  0.00     0.106 C 
HETATM   11  C14 UNL     1       4.379   0.270  18.288  1.00  0.00     0.167 C 
HETATM   12  C13 UNL     1       3.621   1.228  19.163  1.00  0.00     0.252 C 
BRANCH  10  13
HETATM   13  C1  UNL     1       6.670  -0.737  18.222  1.00  0.00     0.247 C 
BRANCH  13  14
HETATM   14  N1  UNL     1       6.468  -0.999  16.817  1.00  0.00    -0.078 N 
ATOM     15  H13 UNL     1       5.527  -1.333  16.613  1.00  0.00     0.274 HD
ATOM     16  H12 UNL     1       6.437  -0.144  16.261  1.00  0.00     0.274 HD
ATOM     17  H11 UNL     1       7.190  -1.646  16.499  1.00  0.00     0.274 HD
ENDBRANCH  13  14
ENDBRANCH  10  13
BRANCH  11  18
HETATM   18  O6  UNL     1       3.945  -1.044  18.445  1.00  0.00    -0.392 OA
ATOM     19  H6  UNL     1       3.068  -1.109  18.804  1.00  0.00     0.210 HD
ENDBRANCH  11  18
BRANCH  12  20
HETATM   20  N6  UNL     1       4.049   2.573  18.819  1.00  0.00    -0.069 N 
ATOM     21  H63 UNL     1       4.064   3.182  19.636  1.00  0.00     0.275 HD
ATOM     22  H62 UNL     1       5.041   2.602  18.583  1.00  0.00     0.275 HD
ATOM     23  H61 UNL     1       3.474   2.962  18.071  1.00  0.00     0.275 HD
ENDBRANCH  12  20
ENDBRANCH   7   8
ENDBRANCH   1   7
BRANCH   6  24
HETATM   24  N5  UNL     1       1.523   3.624  22.866  1.00  0.00    -0.070 N 
ATOM     25  H53 UNL     1       1.795   4.054  21.982  1.00  0.00     0.274 HD
ATOM     26  H52 UNL     1       0.754   3.039  22.536  1.00  0.00     0.274 HD
ATOM     27  H51 UNL     1       1.189   4.326  23.526  1.00  0.00     0.274 HD
ENDBRANCH   6  24
BRANCH   3  28
HETATM   28  N2  UNL     1       5.139   0.086  24.828  1.00  0.00    -0.017 N 
ATOM     29  H22 UNL     1       4.833  -0.125  25.778  1.00  0.00     0.283 HD
ATOM     30  H21 UNL     1       4.922  -0.805  24.383  1.00  0.00     0.283 HD
BRANCH  28  31
HETATM   31  C6  UNL     1       6.548   0.350  24.789  1.00  0.00     0.364 C 
HETATM   32  O3  UNL     1       6.981   0.988  23.634  1.00  0.00    -0.332 OA
HETATM   33  C7  UNL     1       8.246   1.451  24.053  1.00  0.00     0.342 C 
HETATM   34  O4  UNL     1       7.863   2.190  25.176  1.00  0.00    -0.348 OA
HETATM   35  C8  UNL     1       6.993   1.334  25.853  1.00  0.00     0.269 C 
BRANCH  35  36
HETATM   36  C9  UNL     1       7.797   0.648  26.897  1.00  0.00     0.264 C 
HETATM   37  N3  UNL     1       7.455  -0.673  27.308  1.00  0.00    -0.060 NA
HETATM   38  O5  UNL     1       8.785   1.188  27.447  1.00  0.00    -0.274 OA
ENDBRANCH  35  36
ENDBRANCH  28  31
ENDBRANCH   3  28
BRANCH   4  39
HETATM   39  N4  UNL     1       4.167   3.064  25.778  1.00  0.00    -0.071 N 
ATOM     40  H43 UNL     1       5.182   2.989  25.849  1.00  0.00     0.274 HD
ATOM     41  H42 UNL     1       4.111   3.761  25.035  1.00  0.00     0.274 HD
ATOM     42  H41 UNL     1       3.758   3.412  26.646  1.00  0.00     0.274 HD
ENDBRANCH   4  39
TORSDOF 11
ENDMDL
MODEL 3
REMARK VINA RESULT: -8.221103321      2.544      6.886
REMARK  11 active torsions:
REMARK  status: ('A' for Active; 'I' for Inactive)
REMARK    1  A    between atoms: N1_1  and  C1_5 
REMARK    2  A    between atoms: C1_5  and  C2_6 
REMARK    3  A    between atoms: C3_8  and  O1_9 
REMARK    4  A    between atoms: O1_9  and  C4_10 
REMARK    5  A    between atoms: C5_12  and  N2_13 
REMARK    6  A    between atoms: N2_13  and  C6_16 
REMARK    7  A    between atoms: C8_20  and  C9_21 
REMARK    8  A    between atoms: C10_24  and  N4_25 
REMARK    9  A    between atoms: C12_30  and  N5_31 
REMARK   10  A    between atoms: C13_35  and  N6_36 
REMARK   11  A    between atoms: C14_40  and  O6_41 
ROOT
HETATM    1  C4  UNL     1       2.293   1.070  22.350  1.00  0.00     0.294 C 
HETATM    2  O2  UNL     1       3.380   1.293  23.178  1.00  0.00    -0.324 OA
HETATM    3  C5  UNL     1       3.301   2.509  23.854  1.00  0.00     0.357 C 
HETATM    4  C10 UNL     1       2.230   2.481  24.925  1.00  0.00     0.241 C 
HETATM    5  C11 UNL     1       1.229   1.392  24.503  1.00  0.00     0.075 C 
HETATM    6  C12 UNL     1       1.027   1.619  22.999  1.00  0.00     0.240 C 
ENDROOT
BRANCH   1   7
HETATM    7  O1  UNL     1       2.478   1.537  21.063  1.00  0.00    -0.341 OA
BRANCH   7   8
HETATM    8  C3  UNL     1       3.679   1.159  20.520  1.00  0.00     0.219 C 
HETATM    9  S1  UNL     1       4.253   2.329  19.220  1.00  0.00    -0.126 SA
HETATM   10  C2  UNL     1       4.697   1.113  17.947  1.00  0.00     0.106 C 
HETATM   11  C14 UNL     1       4.653  -0.172  18.737  1.00  0.00     0.167 C 
HETATM   12  C13 UNL     1       3.472  -0.065  19.660  1.00  0.00     0.252 C 
BRANCH  10  13
HETATM   13  C1  UNL     1       6.063   1.383  17.372  1.00  0.00     0.247 C 
BRANCH  13  14
HETATM   14  N1  UNL     1       6.893   1.953  18.406  1.00  0.00    -0.078 N 
ATOM     15  H13 UNL     1       6.839   2.971  18.434  1.00  0.00     0.274 HD
ATOM     16  H12 UNL     1       6.533   1.768  19.343  1.00  0.00     0.274 HD
ATOM     17  H11 UNL     1       7.848   1.616  18.280  1.00  0.00     0.274 HD
ENDBRANCH  13  14
ENDBRANCH  10  13
BRANCH  11  18
HETATM   18  O6  UNL     1       5.836  -0.437  19.424  1.00  0.00    -0.392 OA
ATOM     19  H6  UNL     1       5.724  -1.046  20.144  1.00  0.00     0.210 HD
ENDBRANCH  11  18
BRANCH  12  20
HETATM   20  N6  UNL     1       2.282   0.067  18.839  1.00  0.00    -0.069 N 
ATOM     21  H63 UNL     1       1.518   0.506  19.353  1.00  0.00     0.275 HD
ATOM     22  H62 UNL     1       2.404   0.771  18.110  1.00  0.00     0.275 HD
ATOM     23  H61 UNL     1       2.002  -0.832  18.449  1.00  0.00     0.275 HD
ENDBRANCH  12  20
ENDBRANCH   7   8
ENDBRANCH   1   7
BRANCH   6  24
HETATM   24  N5  UNL     1      -0.167   0.984  22.522  1.00  0.00    -0.070 N 
ATOM     25  H53 UNL     1      -0.032  -0.023  22.429  1.00  0.00     0.274 HD
ATOM     26  H52 UNL     1      -0.894   0.989  23.238  1.00  0.00     0.274 HD
ATOM     27  H51 UNL     1      -0.512   1.388  21.651  1.00  0.00     0.274 HD
ENDBRANCH   6  24
BRANCH   3  28
HETATM   28  N2  UNL     1       4.560   2.794  24.478  1.00  0.00    -0.017 N 
ATOM     29  H22 UNL     1       5.054   3.534  23.979  1.00  0.00     0.283 HD
ATOM     30  H21 UNL     1       4.426   3.260  25.375  1.00  0.00     0.283 HD
BRANCH  28  31
HETATM   31  C6  UNL     1       5.385   1.631  24.621  1.00  0.00     0.364 C 
HETATM   32  O3  UNL     1       6.159   1.335  23.506  1.00  0.00    -0.332 OA
HETATM   33  C7  UNL     1       7.100   0.450  24.074  1.00  0.00     0.342 C 
HETATM   34  O4  UNL     1       7.601   1.264  25.093  1.00  0.00    -0.348 OA
HETATM   35  C8  UNL     1       6.452   1.792  25.686  1.00  0.00     0.269 C 
BRANCH  35  36
HETATM   36  C9  UNL     1       6.149   0.941  26.865  1.00  0.00     0.264 C 
HETATM   37  N3  UNL     1       4.852   0.973  27.453  1.00  0.00    -0.060 NA
HETATM   38  O5  UNL     1       7.000   0.177  27.378  1.00  0.00    -0.274 OA
ENDBRANCH  35  36
ENDBRANCH  28  31
ENDBRANCH   3  28
BRANCH   4  39
HETATM   39  N4  UNL     1       1.447   3.703  24.929  1.00  0.00    -0.071 N 
ATOM     40  H43 UNL     1       1.885   4.425  25.500  1.00  0.00     0.274 HD
ATOM     41  H42 UNL     1       1.484   4.171  24.024  1.00  0.00     0.274 HD
ATOM     42  H41 UNL     1       0.484   3.530  25.220  1.00  0.00     0.274 HD
ENDBRANCH   4  39
TORSDOF 11
ENDMDL
MODEL 4
REMARK VINA RESULT: -8.168407387      1.411      1.523
REMARK  11 active torsions:
REMARK  status: ('A' for Active; 'I' for Inactive)
REMARK    1  A    between atoms: N1_1  and  C1_5 
REMARK    2  A    between atoms: C1_5  and  C2_6 
REMARK    3  A    between atoms: C3_8  and  O1_9 
REMARK    4  A    between atoms: O1_9  and  C4_10 
REMARK    5  A    between atoms: C5_12  and  N2_13 
REMARK    6  A    between atoms: N2_13  and  C6_16 
REMARK    7  A    between atoms: C8_20  and  C9_21 
REMARK    8  A    between atoms: C10_24  and  N4_25 
REMARK    9  A    between atoms: C12_30  and  N5_31 
REMARK   10  A    between atoms: C13_35  and  N6_36 
REMARK   11  A    between atoms: C14_40  and  O6_41 
ROOT
HETATM    1  C4  UNL     1       4.426   1.109  23.586  1.00  0.00     0.294 C 
HETATM    2  O2  UNL     1       4.743   0.304  22.504  1.00  0.00    -0.324 OA
HETATM    3  C5  UNL     1       5.957   0.652  21.913  1.00  0.00     0.357 C 
HETATM    4  C10 UNL     1       7.131   0.281  22.795  1.00  0.00     0.241 C 
HETATM    5  C11 UNL     1       6.586   0.224  24.233  1.00  0.00     0.075 C 
HETATM    6  C12 UNL     1       5.694   1.466  24.355  1.00  0.00     0.240 C 
ENDROOT
BRANCH   1   7
HETATM    7  O1  UNL     1       3.681   2.221  23.243  1.00  0.00    -0.341 OA
BRANCH   7   8
HETATM    8  C3  UNL     1       2.421   2.214  23.786  1.00  0.00     0.219 C 
HETATM    9  S1  UNL     1       2.068   0.656  24.700  1.00  0.00    -0.126 SA
HETATM   10  C2  UNL     1       0.430   0.304  24.000  1.00  0.00     0.106 C 
HETATM   11  C14 UNL     1       0.119   1.607  23.305  1.00  0.00     0.167 C 
HETATM   12  C13 UNL     1       1.403   2.074  22.679  1.00  0.00     0.252 C 
BRANCH  10  13
HETATM   13  C1  UNL     1      -0.576  -0.023  25.073  1.00  0.00     0.247 C 
BRANCH  13  14
HETATM   14  N1  UNL     1      -1.901   0.172  24.537  1.00  0.00    -0.078 N 
ATOM     15  H13 UNL     1      -2.050   1.123  24.199  1.00  0.00     0.274 HD
ATOM     16  H12 UNL     1      -2.040  -0.314  23.651  1.00  0.00     0.274 HD
ATOM     17  H11 UNL     1      -2.583  -0.102  25.245  1.00  0.00     0.274 HD
ENDBRANCH  13  14
ENDBRANCH  10  13
BRANCH  11  18
HETATM   18  O6  UNL     1      -0.433   2.566  24.152  1.00  0.00    -0.392 OA
ATOM     19  H6  UNL     1       0.204   2.964  24.734  1.00  0.00     0.210 HD
ENDBRANCH  11  18
BRANCH  12  20
HETATM   20  N6  UNL     1       1.815   1.069  21.715  1.00  0.00    -0.069 N 
ATOM     21  H63 UNL     1       1.453   0.146  21.958  1.00  0.00     0.275 HD
ATOM     22  H62 UNL     1       1.342   1.191  20.820  1.00  0.00     0.275 HD
ATOM     23  H61 UNL     1       2.829   1.057  21.605  1.00  0.00     0.275 HD
ENDBRANCH  12  20
ENDBRANCH   7   8
ENDBRANCH   1   7
BRANCH   6  24
HETATM   24  N5  UNL     1       5.440   1.805  25.725  1.00  0.00    -0.070 N 
ATOM     25  H53 UNL     1       4.457   1.666  25.959  1.00  0.00     0.274 HD
ATOM     26  H52 UNL     1       5.859   1.120  26.354  1.00  0.00     0.274 HD
ATOM     27  H51 UNL     1       5.741   2.750  25.963  1.00  0.00     0.274 HD
ENDBRANCH   6  24
BRANCH   3  28
HETATM   28  N2  UNL     1       6.094  -0.035  20.662  1.00  0.00    -0.017 N 
ATOM     29  H22 UNL     1       7.068  -0.052  20.361  1.00  0.00     0.283 HD
ATOM     30  H21 UNL     1       5.938  -1.036  20.776  1.00  0.00     0.283 HD
BRANCH  28  31
HETATM   31  C6  UNL     1       5.249   0.504  19.637  1.00  0.00     0.364 C 
HETATM   32  O3  UNL     1       3.984  -0.066  19.577  1.00  0.00    -0.332 OA
HETATM   33  C7  UNL     1       3.303   0.897  18.803  1.00  0.00     0.342 C 
HETATM   34  O4  UNL     1       3.538   2.032  19.583  1.00  0.00    -0.348 OA
HETATM   35  C8  UNL     1       4.904   1.962  19.862  1.00  0.00     0.269 C 
BRANCH  35  36
HETATM   36  C9  UNL     1       5.588   2.823  18.862  1.00  0.00     0.264 C 
HETATM   37  N3  UNL     1       4.826   3.681  18.019  1.00  0.00    -0.060 NA
HETATM   38  O5  UNL     1       6.833   2.830  18.722  1.00  0.00    -0.274 OA
ENDBRANCH  35  36
ENDBRANCH  28  31
ENDBRANCH   3  28
BRANCH   4  39
HETATM   39  N4  UNL     1       8.124   1.338  22.833  1.00  0.00    -0.071 N 
ATOM     40  H43 UNL     1       7.759   2.177  23.283  1.00  0.00     0.274 HD
ATOM     41  H42 UNL     1       8.876   1.120  23.487  1.00  0.00     0.274 HD
ATOM     42  H41 UNL     1       8.489   1.544  21.902  1.00  0.00     0.274 HD
ENDBRANCH   4  39
TORSDOF 11
ENDMDL
MODEL 5
REMARK VINA RESULT: -8.105766847      3.267      5.435
REMARK  11 active torsions:
REMARK  status: ('A' for Active; 'I' for Inactive)
REMARK    1  A    between atoms: N1_1  and  C1_5 
REMARK    2  A    between atoms: C1_5  and  C2_6 
REMARK    3  A    between atoms: C3_8  and  O1_9 
REMARK    4  A    between atoms: O1_9  and  C4_10 
REMARK    5  A    between atoms: C5_12  and  N2_13 
REMARK    6  A    between atoms: N2_13  and  C6_16 
REMARK    7  A    between atoms: C8_20  and  C9_21 
REMARK    8  A    between atoms: C10_24  and  N4_25 
REMARK    9  A    between atoms: C12_30  and  N5_31 
REMARK   10  A    between atoms: C13_35  and  N6_36 
REMARK   11  A    between atoms: C14_40  and  O6_41 
ROOT
HETATM    1  C4  UNL     1       4.369   1.140  20.214  1.00  0.00     0.294 C 
HETATM    2  O2  UNL     1       5.632   1.442  19.733  1.00  0.00    -0.324 OA
HETATM    3  C5  UNL     1       6.162   0.427  18.938  1.00  0.00     0.357 C 
HETATM    4  C10 UNL     1       5.452   0.336  17.604  1.00  0.00     0.241 C 
HETATM    5  C11 UNL     1       4.056   0.947  17.819  1.00  0.00     0.075 C 
HETATM    6  C12 UNL     1       3.585   0.366  19.159  1.00  0.00     0.240 C 
ENDROOT
BRANCH   1   7
HETATM    7  O1  UNL     1       4.386   0.501  21.439  1.00  0.00    -0.341 OA
BRANCH   7   8
HETATM    8  C3  UNL     1       5.069   1.200  22.401  1.00  0.00     0.219 C 
HETATM    9  S1  UNL     1       6.360   0.174  23.220  1.00  0.00    -0.126 SA
HETATM   10  C2  UNL     1       5.973   0.588  24.944  1.00  0.00     0.106 C 
HETATM   11  C14 UNL     1       5.036   1.759  24.765  1.00  0.00     0.167 C 
HETATM   12  C13 UNL     1       4.162   1.428  23.587  1.00  0.00     0.252 C 
BRANCH  10  13
HETATM   13  C1  UNL     1       7.210   0.963  25.719  1.00  0.00     0.247 C 
BRANCH  13  14
HETATM   14  N1  UNL     1       6.811   1.439  27.022  1.00  0.00    -0.078 N 
ATOM     15  H13 UNL     1       5.816   1.306  27.198  1.00  0.00     0.274 HD
ATOM     16  H12 UNL     1       7.167   0.854  27.778  1.00  0.00     0.274 HD
ATOM     17  H11 UNL     1       7.097   2.414  27.113  1.00  0.00     0.274 HD
ENDBRANCH  13  14
ENDBRANCH  10  13
BRANCH  11  18
HETATM   18  O6  UNL     1       5.698   2.974  24.605  1.00  0.00    -0.392 OA
ATOM     19  H6  UNL     1       6.627   2.876  24.434  1.00  0.00     0.210 HD
ENDBRANCH  11  18
BRANCH  12  20
HETATM   20  N6  UNL     1       3.417   0.226  23.915  1.00  0.00    -0.069 N 
ATOM     21  H63 UNL     1       3.029   0.270  24.857  1.00  0.00     0.275 HD
ATOM     22  H62 UNL     1       2.545   0.169  23.389  1.00  0.00     0.275 HD
ATOM     23  H61 UNL     1       3.989  -0.608  23.784  1.00  0.00     0.275 HD
ENDBRANCH  12  20
ENDBRANCH   7   8
ENDBRANCH   1   7
BRANCH   6  24
HETATM   24  N5  UNL     1       2.165   0.484  19.319  1.00  0.00    -0.070 N 
ATOM     25  H53 UNL     1       1.835  -0.099  20.088  1.00  0.00     0.274 HD
ATOM     26  H52 UNL     1       1.914   1.402  19.687  1.00  0.00     0.274 HD
ATOM     27  H51 UNL     1       1.650   0.282  18.461  1.00  0.00     0.274 HD
ENDBRANCH   6  24
BRANCH   3  28
HETATM   28  N2  UNL     1       7.552   0.684  18.697  1.00  0.00    -0.017 N 
ATOM     29  H22 UNL     1       7.691   1.095  17.774  1.00  0.00     0.283 HD
ATOM     30  H21 UNL     1       7.886   1.456  19.274  1.00  0.00     0.283 HD
BRANCH  28  31
HETATM   31  C6  UNL     1       8.371  -0.480  18.871  1.00  0.00     0.364 C 
HETATM   32  O3  UNL     1       7.692  -1.594  19.346  1.00  0.00    -0.332 OA
HETATM   33  C7  UNL     1       8.616  -2.613  19.031  1.00  0.00     0.342 C 
HETATM   34  O4  UNL     1       8.750  -2.391  17.658  1.00  0.00    -0.348 OA
HETATM   35  C8  UNL     1       8.929  -1.009  17.565  1.00  0.00     0.269 C 
BRANCH  35  36
HETATM   36  C9  UNL     1      10.393  -0.772  17.485  1.00  0.00     0.264 C 
HETATM   37  N3  UNL     1      11.010  -0.538  16.223  1.00  0.00    -0.060 NA
HETATM   38  O5  UNL     1      11.129  -0.768  18.499  1.00  0.00    -0.274 OA
ENDBRANCH  35  36
ENDBRANCH  28  31
ENDBRANCH   3  28
BRANCH   4  39
HETATM   39  N4  UNL     1       5.184  -1.041  17.234  1.00  0.00    -0.071 N 
ATOM     40  H43 UNL     1       5.983  -1.461  16.758  1.00  0.00     0.274 HD
ATOM     41  H42 UNL     1       5.151  -1.647  18.054  1.00  0.00     0.274 HD
ATOM     42  H41 UNL     1       4.334  -1.121  16.676  1.00  0.00     0.274 HD
ENDBRANCH   4  39
TORSDOF 11
ENDMDL
