MODEL 1
REMARK VINA RESULT: -7.503119319      0.000      0.000
REMARK  19 active torsions:
REMARK  status: ('A' for Active; 'I' for Inactive)
REMARK    1  A    between atoms: C2_2  and  O1_3 
REMARK    2  A    between atoms: C2_2  and  C3_5 
REMARK    3  A    between atoms: C3_5  and  N1_6 
REMARK    4  A    between atoms: C3_5  and  C23_59 
REMARK    5  A    between atoms: N1_6  and  C4_8 
REMARK    6  A    between atoms: C5_10  and  C6_11 
REMARK    7  A    between atoms: C9_14  and  O3_15 
REMARK    8  A    between atoms: C11_18  and  N2_19 
REMARK    9  A    between atoms: N2_19  and  C12_21 
REMARK   10  A    between atoms: C12_21  and  O4_22 
REMARK   11  A    between atoms: C12_21  and  O5_24 
REMARK   12  A    between atoms: C13_28  and  C14_29 
REMARK   13  A    between atoms: C15_30  and  N4_31 
REMARK   14  A    between atoms: N4_31  and  O6_32 
REMARK   15  A    between atoms: N4_31  and  C16_34 
REMARK   16  A    between atoms: C17_36  and  O8_37 
REMARK   17  A    between atoms: C17_36  and  C18_39 
REMARK   18  A    between atoms: C18_39  and  O9_40 
REMARK   19  A    between atoms: C22_55  and  N10_56 
ROOT
HETATM    1  C4  UNL     1       9.562  44.518  -5.549  1.00  0.00     0.174 A 
HETATM    2  O2  UNL     1       9.464  45.198  -6.651  1.00  0.00    -0.274 OA
HETATM    3  C5  UNL     1      10.046  44.575  -7.665  1.00  0.00     0.163 A 
HETATM    4  N3  UNL     1      10.526  43.450  -7.156  1.00  0.00    -0.331 N 
ATOM      5  H3  UNL     1      11.033  42.749  -7.696  1.00  0.00     0.168 HD
HETATM    6  C13 UNL     1      10.265  43.344  -5.845  1.00  0.00     0.104 A 
ENDROOT
BRANCH   6   7
HETATM    7  C14 UNL     1      10.647  42.342  -4.904  1.00  0.00     0.088 C 
HETATM    8  C15 UNL     1      11.755  42.496  -4.154  1.00  0.00     0.162 C 
HETATM    9  N5  UNL     1      12.116  41.754  -3.030  1.00  0.00    -0.269 N 
HETATM   10  N6  UNL     1      11.754  40.528  -2.704  1.00  0.00    -0.128 N 
ATOM     11  H5  UNL     1      12.743  42.221  -2.373  1.00  0.00     0.189 HD
HETATM   12  C20 UNL     1      10.894  39.698  -3.325  1.00  0.00     0.720 A 
ATOM     13  H6  UNL     1      12.188  40.155  -1.860  1.00  0.00     0.205 HD
HETATM   14  N7  UNL     1      10.751  38.373  -3.099  1.00  0.00    -0.183 N 
HETATM   15  N9  UNL     1      10.007  40.029  -4.299  1.00  0.00    -0.067 N 
HETATM   16  C21 UNL     1       9.793  37.879  -3.911  1.00  0.00     0.216 A 
ATOM     17  H7  UNL     1      11.285  37.830  -2.420  1.00  0.00     0.185 HD
HETATM   18  N8  UNL     1       9.348  38.914  -4.643  1.00  0.00    -0.273 N 
ATOM     19  H8  UNL     1       8.618  38.860  -5.354  1.00  0.00     0.189 HD
HETATM   20  C22 UNL     1       9.786  41.233  -4.853  1.00  0.00     0.155 C 
BRANCH   8  21
HETATM   21  N4  UNL     1      12.696  43.496  -4.477  1.00  0.00    -0.205 N 
BRANCH  21  22
HETATM   22  O6  UNL     1      12.646  44.758  -4.037  1.00  0.00    -0.283 OA
ATOM     23  H6  UNL     1      13.344  45.394  -4.140  1.00  0.00     0.245 HD
ENDBRANCH  21  22
BRANCH  21  24
HETATM   24  C16 UNL     1      13.829  43.201  -5.358  1.00  0.00     0.332 A 
HETATM   25  O7  UNL     1      13.566  43.394  -6.707  1.00  0.00    -0.312 OA
HETATM   26  C17 UNL     1      13.844  42.063  -7.077  1.00  0.00     0.253 A 
HETATM   27  C19 UNL     1      14.056  41.782  -5.637  1.00  0.00     0.241 A 
HETATM   28  O10 UNL     1      14.310  40.774  -5.006  1.00  0.00    -0.287 OA
BRANCH  26  29
HETATM   29  O8  UNL     1      12.762  41.411  -7.662  1.00  0.00    -0.358 OA
ATOM     30  H8  UNL     1      12.671  41.586  -8.591  1.00  0.00     0.213 HD
ENDBRANCH  26  29
BRANCH  26  31
HETATM   31  C18 UNL     1      15.068  41.925  -7.950  1.00  0.00     0.241 C 
BRANCH  31  32
HETATM   32  O9  UNL     1      15.071  43.050  -8.807  1.00  0.00    -0.395 OA
ATOM     33  H9  UNL     1      15.717  43.651  -8.455  1.00  0.00     0.209 HD
ENDBRANCH  31  32
ENDBRANCH  26  31
ENDBRANCH  21  24
ENDBRANCH   8  21
BRANCH  20  34
HETATM   34  N10 UNL     1       8.626  41.343  -5.396  1.00  0.00    -0.383 N 
ATOM     35 2H10 UNL     1       8.084  42.132  -5.044  1.00  0.00     0.157 HD
ATOM     36 1H10 UNL     1       8.360  40.658  -6.104  1.00  0.00     0.157 HD
ENDBRANCH  20  34
ENDBRANCH   6   7
BRANCH   1  37
HETATM   37  N1  UNL     1       9.062  44.863  -4.256  1.00  0.00    -0.352 N 
ATOM     38  H1  UNL     1       9.214  44.240  -3.463  1.00  0.00     0.162 HD
BRANCH  37  39
HETATM   39  C3  UNL     1       8.339  46.102  -4.080  1.00  0.00     0.213 C 
BRANCH  39  40
HETATM   40  C2  UNL     1       9.288  47.269  -3.875  1.00  0.00     0.147 C 
HETATM   41  C1  UNL     1       8.803  48.195  -2.792  1.00  0.00     0.042 C 
BRANCH  40  42
HETATM   42  O1  UNL     1       9.343  48.028  -5.066  1.00  0.00    -0.393 OA
ATOM     43  H1  UNL     1       8.906  47.517  -5.737  1.00  0.00     0.210 HD
ENDBRANCH  40  42
ENDBRANCH  39  40
BRANCH  39  44
HETATM   44  C23 UNL     1       7.418  46.046  -2.915  1.00  0.00     0.199 C 
HETATM   45  O11 UNL     1       7.768  45.373  -1.915  1.00  0.00    -0.646 OA
HETATM   46  O12 UNL     1       6.210  46.685  -2.867  1.00  0.00    -0.646 OA
ENDBRANCH  39  44
ENDBRANCH  37  39
ENDBRANCH   1  37
BRANCH   3  47
HETATM   47  C6  UNL     1      10.070  45.144  -9.017  1.00  0.00     0.042 A 
HETATM   48  C7  UNL     1      10.433  46.483  -9.121  1.00  0.00     0.021 A 
HETATM   49  C8  UNL     1      10.485  47.090 -10.348  1.00  0.00     0.037 A 
HETATM   50  C9  UNL     1      10.185  46.415 -11.501  1.00  0.00     0.067 A 
HETATM   51  C10 UNL     1       9.823  45.080 -11.388  1.00  0.00     0.066 A 
HETATM   52  C11 UNL     1       9.770  44.467 -10.158  1.00  0.00     0.049 A 
BRANCH  50  53
HETATM   53  O3  UNL     1      10.236  47.019 -12.732  1.00  0.00    -0.361 OA
ATOM     54  H3  UNL     1       9.459  47.370 -13.153  1.00  0.00     0.217 HD
ENDBRANCH  50  53
BRANCH  52  55
HETATM   55  N2  UNL     1       9.380  43.114 -10.134  1.00  0.00    -0.341 N 
ATOM     56  H2  UNL     1       8.384  42.896 -10.125  1.00  0.00     0.164 HD
BRANCH  55  57
HETATM   57  C12 UNL     1      10.332  42.008 -10.121  1.00  0.00     0.365 C 
BRANCH  57  58
HETATM   58  O4  UNL     1      10.063  41.085  -9.128  1.00  0.00    -0.355 OA
ATOM     59  H4  UNL     1      10.178  40.188  -9.421  1.00  0.00     0.214 HD
ENDBRANCH  57  58
BRANCH  57  60
HETATM   60  O5  UNL     1      11.652  42.425 -10.107  1.00  0.00    -0.355 OA
ATOM     61  H5  UNL     1      12.210  41.921 -10.688  1.00  0.00     0.214 HD
ENDBRANCH  57  60
ENDBRANCH  55  57
ENDBRANCH  52  55
ENDBRANCH   3  47
TORSDOF 19
ENDMDL
MODEL 2
REMARK VINA RESULT: -7.477562902      2.457      6.147
REMARK  19 active torsions:
REMARK  status: ('A' for Active; 'I' for Inactive)
REMARK    1  A    between atoms: C2_2  and  O1_3 
REMARK    2  A    between atoms: C2_2  and  C3_5 
REMARK    3  A    between atoms: C3_5  and  N1_6 
REMARK    4  A    between atoms: C3_5  and  C23_59 
REMARK    5  A    between atoms: N1_6  and  C4_8 
REMARK    6  A    between atoms: C5_10  and  C6_11 
REMARK    7  A    between atoms: C9_14  and  O3_15 
REMARK    8  A    between atoms: C11_18  and  N2_19 
REMARK    9  A    between atoms: N2_19  and  C12_21 
REMARK   10  A    between atoms: C12_21  and  O4_22 
REMARK   11  A    between atoms: C12_21  and  O5_24 
REMARK   12  A    between atoms: C13_28  and  C14_29 
REMARK   13  A    between atoms: C15_30  and  N4_31 
REMARK   14  A    between atoms: N4_31  and  O6_32 
REMARK   15  A    between atoms: N4_31  and  C16_34 
REMARK   16  A    between atoms: C17_36  and  O8_37 
REMARK   17  A    between atoms: C17_36  and  C18_39 
REMARK   18  A    between atoms: C18_39  and  O9_40 
REMARK   19  A    between atoms: C22_55  and  N10_56 
ROOT
HETATM    1  C4  UNL     1       9.344  43.681  -8.232  1.00  0.00     0.174 A 
HETATM    2  O2  UNL     1       9.155  44.508  -7.248  1.00  0.00    -0.274 OA
HETATM    3  C5  UNL     1       9.099  43.879  -6.083  1.00  0.00     0.163 A 
HETATM    4  N3  UNL     1       9.264  42.596  -6.369  1.00  0.00    -0.331 N 
ATOM      5  H3  UNL     1       9.271  41.851  -5.672  1.00  0.00     0.168 HD
HETATM    6  C13 UNL     1       9.422  42.395  -7.685  1.00  0.00     0.104 A 
ENDROOT
BRANCH   6   7
HETATM    7  C14 UNL     1       9.564  41.183  -8.424  1.00  0.00     0.088 C 
HETATM    8  C15 UNL     1      10.782  40.751  -8.804  1.00  0.00     0.162 C 
HETATM    9  N5  UNL     1      11.110  39.486  -9.289  1.00  0.00    -0.269 N 
HETATM   10  N6  UNL     1      10.329  38.609  -9.891  1.00  0.00    -0.128 N 
ATOM     11  H5  UNL     1      12.082  39.201  -9.163  1.00  0.00     0.189 HD
HETATM   12  C20 UNL     1       9.005  38.670 -10.133  1.00  0.00     0.720 A 
ATOM     13  H6  UNL     1      10.794  37.764 -10.220  1.00  0.00     0.205 HD
HETATM   14  N7  UNL     1       8.304  37.873 -10.969  1.00  0.00    -0.183 N 
HETATM   15  N9  UNL     1       8.120  39.543  -9.587  1.00  0.00    -0.067 N 
HETATM   16  C21 UNL     1       7.004  38.234 -10.951  1.00  0.00     0.216 A 
ATOM     17  H7  UNL     1       8.697  37.115 -11.528  1.00  0.00     0.185 HD
HETATM   18  N8  UNL     1       6.910  39.265 -10.095  1.00  0.00    -0.273 N 
ATOM     19  H8  UNL     1       6.049  39.761  -9.865  1.00  0.00     0.189 HD
HETATM   20  C22 UNL     1       8.353  40.525  -8.700  1.00  0.00     0.155 C 
BRANCH   8  21
HETATM   21  N4  UNL     1      11.894  41.615  -8.728  1.00  0.00    -0.205 N 
BRANCH  21  22
HETATM   22  O6  UNL     1      12.241  42.494  -9.674  1.00  0.00    -0.283 OA
ATOM     23  H6  UNL     1      12.988  43.078  -9.622  1.00  0.00     0.245 HD
ENDBRANCH  21  22
BRANCH  21  24
HETATM   24  C16 UNL     1      12.780  41.594  -7.561  1.00  0.00     0.332 A 
HETATM   25  O7  UNL     1      12.171  41.987  -6.377  1.00  0.00    -0.312 OA
HETATM   26  C17 UNL     1      13.049  43.064  -6.139  1.00  0.00     0.253 A 
HETATM   27  C19 UNL     1      13.685  42.739  -7.438  1.00  0.00     0.241 A 
HETATM   28  O10 UNL     1      14.581  43.247  -8.085  1.00  0.00    -0.287 OA
BRANCH  26  29
HETATM   29  O8  UNL     1      12.409  44.299  -6.077  1.00  0.00    -0.358 OA
ATOM     30  H8  UNL     1      12.613  44.792  -5.291  1.00  0.00     0.213 HD
ENDBRANCH  26  29
BRANCH  26  31
HETATM   31  C18 UNL     1      13.923  42.868  -4.924  1.00  0.00     0.241 C 
BRANCH  31  32
HETATM   32  O9  UNL     1      13.533  43.859  -3.994  1.00  0.00    -0.395 OA
ATOM     33  H9  UNL     1      14.225  43.901  -3.344  1.00  0.00     0.209 HD
ENDBRANCH  31  32
ENDBRANCH  26  31
ENDBRANCH  21  24
ENDBRANCH   8  21
BRANCH  20  34
HETATM   34  N10 UNL     1       7.309  40.879  -8.039  1.00  0.00    -0.383 N 
ATOM     35 2H10 UNL     1       7.494  41.599  -7.340  1.00  0.00     0.157 HD
ATOM     36 1H10 UNL     1       6.423  40.425  -8.263  1.00  0.00     0.157 HD
ENDBRANCH  20  34
ENDBRANCH   6   7
BRANCH   1  37
HETATM   37  N1  UNL     1       9.458  43.983  -9.623  1.00  0.00    -0.352 N 
ATOM     38  H1  UNL     1       9.492  43.230 -10.312  1.00  0.00     0.162 HD
BRANCH  37  39
HETATM   39  C3  UNL     1       9.525  45.362 -10.049  1.00  0.00     0.213 C 
BRANCH  39  40
HETATM   40  C2  UNL     1       9.234  45.495 -11.533  1.00  0.00     0.147 C 
HETATM   41  C1  UNL     1       9.410  44.185 -12.252  1.00  0.00     0.042 C 
BRANCH  40  42
HETATM   42  O1  UNL     1      10.160  46.399 -12.101  1.00  0.00    -0.393 OA
ATOM     43  H1  UNL     1      11.011  46.185 -11.737  1.00  0.00     0.210 HD
ENDBRANCH  40  42
ENDBRANCH  39  40
BRANCH  39  44
HETATM   44  C23 UNL     1      10.860  45.960  -9.786  1.00  0.00     0.199 C 
HETATM   45  O11 UNL     1      10.915  47.176  -9.480  1.00  0.00    -0.646 OA
HETATM   46  O12 UNL     1      12.034  45.262  -9.854  1.00  0.00    -0.646 OA
ENDBRANCH  39  44
ENDBRANCH  37  39
ENDBRANCH   1  37
BRANCH   3  47
HETATM   47  C6  UNL     1       8.892  44.598  -4.821  1.00  0.00     0.042 A 
HETATM   48  C7  UNL     1       7.836  45.504  -4.788  1.00  0.00     0.021 A 
HETATM   49  C8  UNL     1       7.570  46.212  -3.646  1.00  0.00     0.037 A 
HETATM   50  C9  UNL     1       8.322  46.061  -2.512  1.00  0.00     0.067 A 
HETATM   51  C10 UNL     1       9.374  45.156  -2.553  1.00  0.00     0.066 A 
HETATM   52  C11 UNL     1       9.643  44.443  -3.698  1.00  0.00     0.049 A 
BRANCH  50  53
HETATM   53  O3  UNL     1       8.059  46.769  -1.365  1.00  0.00    -0.361 OA
ATOM     54  H3  UNL     1       8.141  46.378  -0.503  1.00  0.00     0.217 HD
ENDBRANCH  50  53
BRANCH  52  55
HETATM   55  N2  UNL     1      10.737  43.557  -3.657  1.00  0.00    -0.341 N 
ATOM     56  H2  UNL     1      11.631  43.873  -4.030  1.00  0.00     0.164 HD
BRANCH  55  57
HETATM   57  C12 UNL     1      10.653  42.208  -3.105  1.00  0.00     0.365 C 
BRANCH  57  58
HETATM   58  O4  UNL     1      11.750  41.880  -2.332  1.00  0.00    -0.355 OA
ATOM     59  H4  UNL     1      11.572  41.940  -1.400  1.00  0.00     0.214 HD
ENDBRANCH  57  58
BRANCH  57  60
HETATM   60  O5  UNL     1      10.376  41.245  -4.061  1.00  0.00    -0.355 OA
ATOM     61  H5  UNL     1       9.855  40.525  -3.726  1.00  0.00     0.214 HD
ENDBRANCH  57  60
ENDBRANCH  55  57
ENDBRANCH  52  55
ENDBRANCH   3  47
TORSDOF 19
ENDMDL
MODEL 3
REMARK VINA RESULT: -7.458625525      2.968      8.332
REMARK  19 active torsions:
REMARK  status: ('A' for Active; 'I' for Inactive)
REMARK    1  A    between atoms: C2_2  and  O1_3 
REMARK    2  A    between atoms: C2_2  and  C3_5 
REMARK    3  A    between atoms: C3_5  and  N1_6 
REMARK    4  A    between atoms: C3_5  and  C23_59 
REMARK    5  A    between atoms: N1_6  and  C4_8 
REMARK    6  A    between atoms: C5_10  and  C6_11 
REMARK    7  A    between atoms: C9_14  and  O3_15 
REMARK    8  A    between atoms: C11_18  and  N2_19 
REMARK    9  A    between atoms: N2_19  and  C12_21 
REMARK   10  A    between atoms: C12_21  and  O4_22 
REMARK   11  A    between atoms: C12_21  and  O5_24 
REMARK   12  A    between atoms: C13_28  and  C14_29 
REMARK   13  A    between atoms: C15_30  and  N4_31 
REMARK   14  A    between atoms: N4_31  and  O6_32 
REMARK   15  A    between atoms: N4_31  and  C16_34 
REMARK   16  A    between atoms: C17_36  and  O8_37 
REMARK   17  A    between atoms: C17_36  and  C18_39 
REMARK   18  A    between atoms: C18_39  and  O9_40 
REMARK   19  A    between atoms: C22_55  and  N10_56 
ROOT
HETATM    1  C4  UNL     1      10.926  42.172  -3.283  1.00  0.00     0.174 A 
HETATM    2  O2  UNL     1      10.403  41.391  -2.387  1.00  0.00    -0.274 OA
HETATM    3  C5  UNL     1       9.233  40.908  -2.780  1.00  0.00     0.163 A 
HETATM    4  N3  UNL     1       9.029  41.422  -3.984  1.00  0.00    -0.331 N 
ATOM      5  H3  UNL     1       8.204  41.233  -4.553  1.00  0.00     0.168 HD
HETATM    6  C13 UNL     1      10.039  42.218  -4.364  1.00  0.00     0.104 A 
ENDROOT
BRANCH   6   7
HETATM    7  C14 UNL     1      10.198  43.011  -5.540  1.00  0.00     0.088 C 
HETATM    8  C15 UNL     1       9.952  44.335  -5.510  1.00  0.00     0.162 C 
HETATM    9  N5  UNL     1      10.303  45.275  -6.477  1.00  0.00    -0.269 N 
HETATM   10  N6  UNL     1      10.529  45.085  -7.763  1.00  0.00    -0.128 N 
ATOM     11  H5  UNL     1      10.398  46.236  -6.148  1.00  0.00     0.189 HD
HETATM   12  C20 UNL     1      10.549  43.937  -8.466  1.00  0.00     0.720 A 
ATOM     13  H6  UNL     1      10.715  45.930  -8.303  1.00  0.00     0.205 HD
HETATM   14  N7  UNL     1      10.531  43.818  -9.813  1.00  0.00    -0.183 N 
HETATM   15  N9  UNL     1      10.587  42.676  -7.961  1.00  0.00    -0.067 N 
HETATM   16  C21 UNL     1      10.560  42.512 -10.150  1.00  0.00     0.216 A 
ATOM     17  H7  UNL     1      10.501  44.596 -10.473  1.00  0.00     0.185 HD
HETATM   18  N8  UNL     1      10.593  41.824  -8.995  1.00  0.00    -0.273 N 
ATOM     19  H8  UNL     1      10.620  40.807  -8.918  1.00  0.00     0.189 HD
HETATM   20  C22 UNL     1      10.616  42.293  -6.674  1.00  0.00     0.155 C 
BRANCH   8  21
HETATM   21  N4  UNL     1       9.272  44.904  -4.413  1.00  0.00    -0.205 N 
BRANCH  21  22
HETATM   22  O6  UNL     1       7.974  44.721  -4.144  1.00  0.00    -0.283 OA
ATOM     23  H6  UNL     1       7.296  44.615  -4.801  1.00  0.00     0.245 HD
ENDBRANCH  21  22
BRANCH  21  24
HETATM   24  C16 UNL     1       9.974  45.774  -3.466  1.00  0.00     0.332 A 
HETATM   25  O7  UNL     1       9.685  45.515  -2.133  1.00  0.00    -0.312 OA
HETATM   26  C17 UNL     1       9.191  46.806  -1.862  1.00  0.00     0.253 A 
HETATM   27  C19 UNL     1       9.402  47.111  -3.297  1.00  0.00     0.241 A 
HETATM   28  O10 UNL     1       9.176  48.083  -3.992  1.00  0.00    -0.287 OA
BRANCH  26  29
HETATM   29  O8  UNL     1       7.865  46.815  -1.436  1.00  0.00    -0.358 OA
ATOM     30  H8  UNL     1       7.254  47.094  -2.107  1.00  0.00     0.213 HD
ENDBRANCH  26  29
BRANCH  26  31
HETATM   31  C18 UNL     1      10.052  47.589  -0.901  1.00  0.00     0.241 C 
BRANCH  31  32
HETATM   32  O9  UNL     1      10.204  46.776   0.246  1.00  0.00    -0.395 OA
ATOM     33  H9  UNL     1      10.844  47.210   0.796  1.00  0.00     0.209 HD
ENDBRANCH  31  32
ENDBRANCH  26  31
ENDBRANCH  21  24
ENDBRANCH   8  21
BRANCH  20  34
HETATM   34  N10 UNL     1      11.093  41.113  -6.499  1.00  0.00    -0.383 N 
ATOM     35 2H10 UNL     1      10.455  40.483  -6.013  1.00  0.00     0.157 HD
ATOM     36 1H10 UNL     1      12.032  40.918  -6.849  1.00  0.00     0.157 HD
ENDBRANCH  20  34
ENDBRANCH   6   7
BRANCH   1  37
HETATM   37  N1  UNL     1      12.170  42.871  -3.220  1.00  0.00    -0.352 N 
ATOM     38  H1  UNL     1      12.208  43.821  -2.849  1.00  0.00     0.162 HD
BRANCH  37  39
HETATM   39  C3  UNL     1      13.375  42.223  -3.686  1.00  0.00     0.213 C 
BRANCH  39  40
HETATM   40  C2  UNL     1      14.247  41.782  -2.524  1.00  0.00     0.147 C 
HETATM   41  C1  UNL     1      14.981  40.505  -2.835  1.00  0.00     0.042 C 
BRANCH  40  42
HETATM   42  O1  UNL     1      13.421  41.515  -1.408  1.00  0.00    -0.393 OA
ATOM     43  H1  UNL     1      13.140  42.356  -1.068  1.00  0.00     0.210 HD
ENDBRANCH  40  42
ENDBRANCH  39  40
BRANCH  39  44
HETATM   44  C23 UNL     1      14.184  43.117  -4.556  1.00  0.00     0.199 C 
HETATM   45  O11 UNL     1      14.895  43.993  -4.006  1.00  0.00    -0.646 OA
HETATM   46  O12 UNL     1      14.200  43.041  -5.920  1.00  0.00    -0.646 OA
ENDBRANCH  39  44
ENDBRANCH  37  39
ENDBRANCH   1  37
BRANCH   3  47
HETATM   47  C6  UNL     1       8.444  40.001  -1.939  1.00  0.00     0.042 A 
HETATM   48  C7  UNL     1       7.898  38.887  -2.569  1.00  0.00     0.021 A 
HETATM   49  C8  UNL     1       7.153  37.987  -1.855  1.00  0.00     0.037 A 
HETATM   50  C9  UNL     1       6.917  38.147  -0.515  1.00  0.00     0.067 A 
HETATM   51  C10 UNL     1       7.465  39.261   0.105  1.00  0.00     0.066 A 
HETATM   52  C11 UNL     1       8.214  40.166  -0.609  1.00  0.00     0.049 A 
BRANCH  50  53
HETATM   53  O3  UNL     1       6.170  37.247   0.204  1.00  0.00    -0.361 OA
ATOM     54  H3  UNL     1       5.433  37.519   0.738  1.00  0.00     0.217 HD
ENDBRANCH  50  53
BRANCH  52  55
HETATM   55  N2  UNL     1       8.721  41.275   0.097  1.00  0.00    -0.341 N 
ATOM     56  H2  UNL     1       8.275  42.182  -0.041  1.00  0.00     0.164 HD
BRANCH  55  57
HETATM   57  C12 UNL     1       9.852  41.189   1.015  1.00  0.00     0.365 C 
BRANCH  57  58
HETATM   58  O4  UNL     1       9.942  42.286   1.852  1.00  0.00    -0.355 OA
ATOM     59  H4  UNL     1      10.264  42.061   2.716  1.00  0.00     0.214 HD
ENDBRANCH  57  58
BRANCH  57  60
HETATM   60  O5  UNL     1      11.050  40.913   0.379  1.00  0.00    -0.355 OA
ATOM     61  H5  UNL     1      11.507  40.168   0.751  1.00  0.00     0.214 HD
ENDBRANCH  57  60
ENDBRANCH  55  57
ENDBRANCH  52  55
ENDBRANCH   3  47
TORSDOF 19
ENDMDL
MODEL 4
REMARK VINA RESULT: -7.339618033      2.890      8.265
REMARK  19 active torsions:
REMARK  status: ('A' for Active; 'I' for Inactive)
REMARK    1  A    between atoms: C2_2  and  O1_3 
REMARK    2  A    between atoms: C2_2  and  C3_5 
REMARK    3  A    between atoms: C3_5  and  N1_6 
REMARK    4  A    between atoms: C3_5  and  C23_59 
REMARK    5  A    between atoms: N1_6  and  C4_8 
REMARK    6  A    between atoms: C5_10  and  C6_11 
REMARK    7  A    between atoms: C9_14  and  O3_15 
REMARK    8  A    between atoms: C11_18  and  N2_19 
REMARK    9  A    between atoms: N2_19  and  C12_21 
REMARK   10  A    between atoms: C12_21  and  O4_22 
REMARK   11  A    between atoms: C12_21  and  O5_24 
REMARK   12  A    between atoms: C13_28  and  C14_29 
REMARK   13  A    between atoms: C15_30  and  N4_31 
REMARK   14  A    between atoms: N4_31  and  O6_32 
REMARK   15  A    between atoms: N4_31  and  C16_34 
REMARK   16  A    between atoms: C17_36  and  O8_37 
REMARK   17  A    between atoms: C17_36  and  C18_39 
REMARK   18  A    between atoms: C18_39  and  O9_40 
REMARK   19  A    between atoms: C22_55  and  N10_56 
ROOT
HETATM    1  C4  UNL     1      11.056  40.485  -4.335  1.00  0.00     0.174 A 
HETATM    2  O2  UNL     1      10.450  39.734  -3.467  1.00  0.00    -0.274 OA
HETATM    3  C5  UNL     1       9.170  40.053  -3.350  1.00  0.00     0.163 A 
HETATM    4  N3  UNL     1       8.980  41.055  -4.195  1.00  0.00    -0.331 N 
ATOM      5  H3  UNL     1       8.085  41.523  -4.335  1.00  0.00     0.168 HD
HETATM    6  C13 UNL     1      10.108  41.380  -4.844  1.00  0.00     0.104 A 
ENDROOT
BRANCH   6   7
HETATM    7  C14 UNL     1      10.366  42.424  -5.782  1.00  0.00     0.088 C 
HETATM    8  C15 UNL     1      10.654  43.669  -5.356  1.00  0.00     0.162 C 
HETATM    9  N5  UNL     1      11.178  44.715  -6.115  1.00  0.00    -0.269 N 
HETATM   10  N6  UNL     1      11.103  44.901  -7.419  1.00  0.00    -0.128 N 
ATOM     11  H5  UNL     1      11.685  45.431  -5.594  1.00  0.00     0.189 HD
HETATM   12  C20 UNL     1      10.568  44.106  -8.365  1.00  0.00     0.720 A 
ATOM     13  H6  UNL     1      11.509  45.772  -7.760  1.00  0.00     0.205 HD
HETATM   14  N7  UNL     1      10.289  44.451  -9.642  1.00  0.00    -0.183 N 
HETATM   15  N9  UNL     1      10.202  42.805  -8.221  1.00  0.00    -0.067 N 
HETATM   16  C21 UNL     1       9.760  43.392 -10.290  1.00  0.00     0.216 A 
ATOM     17  H7  UNL     1      10.453  45.371 -10.053  1.00  0.00     0.185 HD
HETATM   18  N8  UNL     1       9.714  42.388  -9.398  1.00  0.00    -0.273 N 
ATOM     19  H8  UNL     1       9.361  41.450  -9.588  1.00  0.00     0.189 HD
HETATM   20  C22 UNL     1      10.289  42.029  -7.128  1.00  0.00     0.155 C 
BRANCH   8  21
HETATM   21  N4  UNL     1      10.430  44.027  -4.010  1.00  0.00    -0.205 N 
BRANCH  21  22
HETATM   22  O6  UNL     1      11.295  43.812  -3.012  1.00  0.00    -0.283 OA
ATOM     23  H6  UNL     1      12.139  44.240  -2.927  1.00  0.00     0.245 HD
ENDBRANCH  21  22
BRANCH  21  24
HETATM   24  C16 UNL     1       9.181  44.677  -3.606  1.00  0.00     0.332 A 
HETATM   25  O7  UNL     1       8.699  45.603  -4.520  1.00  0.00    -0.312 OA
HETATM   26  C17 UNL     1       8.727  46.688  -3.622  1.00  0.00     0.253 A 
HETATM   27  C19 UNL     1       9.322  45.760  -2.631  1.00  0.00     0.241 A 
HETATM   28  O10 UNL     1       9.738  45.896  -1.496  1.00  0.00    -0.287 OA
BRANCH  26  29
HETATM   29  O8  UNL     1       9.551  47.731  -4.036  1.00  0.00    -0.358 OA
ATOM     30  H8  UNL     1      10.093  47.511  -4.784  1.00  0.00     0.213 HD
ENDBRANCH  26  29
BRANCH  26  31
HETATM   31  C18 UNL     1       7.356  47.214  -3.273  1.00  0.00     0.241 C 
BRANCH  31  32
HETATM   32  O9  UNL     1       6.843  46.351  -2.278  1.00  0.00    -0.395 OA
ATOM     33  H9  UNL     1       6.828  46.853  -1.472  1.00  0.00     0.209 HD
ENDBRANCH  31  32
ENDBRANCH  26  31
ENDBRANCH  21  24
ENDBRANCH   8  21
BRANCH  20  34
HETATM   34  N10 UNL     1      10.299  40.771  -7.390  1.00  0.00    -0.383 N 
ATOM     35 2H10 UNL     1      10.730  40.206  -6.659  1.00  0.00     0.157 HD
ATOM     36 1H10 UNL     1       9.893  40.462  -8.273  1.00  0.00     0.157 HD
ENDBRANCH  20  34
ENDBRANCH   6   7
BRANCH   1  37
HETATM   37  N1  UNL     1      12.428  40.440  -4.730  1.00  0.00    -0.352 N 
ATOM     38  H1  UNL     1      12.723  39.839  -5.500  1.00  0.00     0.162 HD
BRANCH  37  39
HETATM   39  C3  UNL     1      13.396  41.255  -4.031  1.00  0.00     0.213 C 
BRANCH  39  40
HETATM   40  C2  UNL     1      14.787  41.079  -4.614  1.00  0.00     0.147 C 
HETATM   41  C1  UNL     1      14.881  39.838  -5.460  1.00  0.00     0.042 C 
BRANCH  40  42
HETATM   42  O1  UNL     1      15.710  40.922  -3.555  1.00  0.00    -0.393 OA
ATOM     43  H1  UNL     1      16.151  41.756  -3.450  1.00  0.00     0.210 HD
ENDBRANCH  40  42
ENDBRANCH  39  40
BRANCH  39  44
HETATM   44  C23 UNL     1      13.457  40.923  -2.584  1.00  0.00     0.199 C 
HETATM   45  O11 UNL     1      13.342  41.860  -1.756  1.00  0.00    -0.646 OA
HETATM   46  O12 UNL     1      13.631  39.657  -2.099  1.00  0.00    -0.646 OA
ENDBRANCH  39  44
ENDBRANCH  37  39
ENDBRANCH   1  37
BRANCH   3  47
HETATM   47  C6  UNL     1       8.273  39.347  -2.428  1.00  0.00     0.042 A 
HETATM   48  C7  UNL     1       7.309  38.527  -3.005  1.00  0.00     0.021 A 
HETATM   49  C8  UNL     1       6.435  37.829  -2.214  1.00  0.00     0.037 A 
HETATM   50  C9  UNL     1       6.474  37.910  -0.848  1.00  0.00     0.067 A 
HETATM   51  C10 UNL     1       7.439  38.730  -0.280  1.00  0.00     0.066 A 
HETATM   52  C11 UNL     1       8.318  39.433  -1.071  1.00  0.00     0.049 A 
BRANCH  50  53
HETATM   53  O3  UNL     1       5.600  37.211  -0.052  1.00  0.00    -0.361 OA
ATOM     54  H3  UNL     1       5.578  37.325   0.891  1.00  0.00     0.217 HD
ENDBRANCH  50  53
BRANCH  52  55
HETATM   55  N2  UNL     1       9.255  40.252  -0.413  1.00  0.00    -0.341 N 
ATOM     56  H2  UNL     1      10.168  39.858  -0.184  1.00  0.00     0.164 HD
BRANCH  55  57
HETATM   57  C12 UNL     1       8.985  41.637  -0.041  1.00  0.00     0.365 C 
BRANCH  57  58
HETATM   58  O4  UNL     1       9.212  42.521  -1.078  1.00  0.00    -0.355 OA
ATOM     59  H4  UNL     1       8.708  43.322  -0.994  1.00  0.00     0.214 HD
ENDBRANCH  57  58
BRANCH  57  60
HETATM   60  O5  UNL     1       9.621  42.022   1.127  1.00  0.00    -0.355 OA
ATOM     61  H5  UNL     1      10.018  42.883   1.070  1.00  0.00     0.214 HD
ENDBRANCH  57  60
ENDBRANCH  55  57
ENDBRANCH  52  55
ENDBRANCH   3  47
TORSDOF 19
ENDMDL
MODEL 5
REMARK VINA RESULT: -7.326259393      1.487      5.335
REMARK  19 active torsions:
REMARK  status: ('A' for Active; 'I' for Inactive)
REMARK    1  A    between atoms: C2_2  and  O1_3 
REMARK    2  A    between atoms: C2_2  and  C3_5 
REMARK    3  A    between atoms: C3_5  and  N1_6 
REMARK    4  A    between atoms: C3_5  and  C23_59 
REMARK    5  A    between atoms: N1_6  and  C4_8 
REMARK    6  A    between atoms: C5_10  and  C6_11 
REMARK    7  A    between atoms: C9_14  and  O3_15 
REMARK    8  A    between atoms: C11_18  and  N2_19 
REMARK    9  A    between atoms: N2_19  and  C12_21 
REMARK   10  A    between atoms: C12_21  and  O4_22 
REMARK   11  A    between atoms: C12_21  and  O5_24 
REMARK   12  A    between atoms: C13_28  and  C14_29 
REMARK   13  A    between atoms: C15_30  and  N4_31 
REMARK   14  A    between atoms: N4_31  and  O6_32 
REMARK   15  A    between atoms: N4_31  and  C16_34 
REMARK   16  A    between atoms: C17_36  and  O8_37 
REMARK   17  A    between atoms: C17_36  and  C18_39 
REMARK   18  A    between atoms: C18_39  and  O9_40 
REMARK   19  A    between atoms: C22_55  and  N10_56 
ROOT
HETATM    1  C4  UNL     1      11.796  42.959  -6.776  1.00  0.00     0.174 A 
HETATM    2  O2  UNL     1      11.790  43.594  -7.909  1.00  0.00    -0.274 OA
HETATM    3  C5  UNL     1      10.596  44.096  -8.184  1.00  0.00     0.163 A 
HETATM    4  N3  UNL     1       9.826  43.750  -7.163  1.00  0.00    -0.331 N 
ATOM      5  H3  UNL     1       8.839  43.994  -7.082  1.00  0.00     0.168 HD
HETATM    6  C13 UNL     1      10.502  43.041  -6.247  1.00  0.00     0.104 A 
ENDROOT
BRANCH   6   7
HETATM    7  C14 UNL     1      10.054  42.423  -5.041  1.00  0.00     0.088 C 
HETATM    8  C15 UNL     1      10.186  43.056  -3.860  1.00  0.00     0.162 C 
HETATM    9  N5  UNL     1       9.577  42.715  -2.653  1.00  0.00    -0.269 N 
HETATM   10  N6  UNL     1       9.128  41.536  -2.264  1.00  0.00    -0.128 N 
ATOM     11  H5  UNL     1       9.463  43.476  -1.982  1.00  0.00     0.189 HD
HETATM   12  C20 UNL     1       9.075  40.376  -2.945  1.00  0.00     0.720 A 
ATOM     13  H6  UNL     1       8.770  41.499  -1.310  1.00  0.00     0.205 HD
HETATM   14  N7  UNL     1       8.846  39.149  -2.426  1.00  0.00    -0.183 N 
HETATM   15  N9  UNL     1       9.242  40.212  -4.283  1.00  0.00    -0.067 N 
HETATM   16  C21 UNL     1       8.867  38.230  -3.415  1.00  0.00     0.216 A 
ATOM     17  H7  UNL     1       8.683  38.948  -1.439  1.00  0.00     0.185 HD
HETATM   18  N8  UNL     1       9.114  38.905  -4.551  1.00  0.00    -0.273 N 
ATOM     19  H8  UNL     1       9.191  38.485  -5.478  1.00  0.00     0.189 HD
HETATM   20  C22 UNL     1       9.492  41.147  -5.215  1.00  0.00     0.155 C 
BRANCH   8  21
HETATM   21  N4  UNL     1      11.010  44.196  -3.755  1.00  0.00    -0.205 N 
BRANCH  21  22
HETATM   22  O6  UNL     1      12.345  44.180  -3.837  1.00  0.00    -0.283 OA
ATOM     23  H6  UNL     1      12.905  43.544  -3.408  1.00  0.00     0.245 HD
ENDBRANCH  21  22
BRANCH  21  24
HETATM   24  C16 UNL     1      10.429  45.523  -3.532  1.00  0.00     0.332 A 
HETATM   25  O7  UNL     1      10.032  45.757  -2.222  1.00  0.00    -0.312 OA
HETATM   26  C17 UNL     1       8.682  45.998  -2.545  1.00  0.00     0.253 A 
HETATM   27  C19 UNL     1       9.034  45.675  -3.948  1.00  0.00     0.241 A 
HETATM   28  O10 UNL     1       8.390  45.589  -4.977  1.00  0.00    -0.287 OA
BRANCH  26  29
HETATM   29  O8  UNL     1       7.797  45.116  -1.930  1.00  0.00    -0.358 OA
ATOM     30  H8  UNL     1       7.139  45.548  -1.400  1.00  0.00     0.213 HD
ENDBRANCH  26  29
BRANCH  26  31
HETATM   31  C18 UNL     1       8.251  47.424  -2.298  1.00  0.00     0.241 C 
BRANCH  31  32
HETATM   32  O9  UNL     1       8.238  47.595  -0.894  1.00  0.00    -0.395 OA
ATOM     33  H9  UNL     1       7.894  48.466  -0.736  1.00  0.00     0.209 HD
ENDBRANCH  31  32
ENDBRANCH  26  31
ENDBRANCH  21  24
ENDBRANCH   8  21
BRANCH  20  34
HETATM   34  N10 UNL     1       9.161  40.789  -6.404  1.00  0.00    -0.383 N 
ATOM     35 2H10 UNL     1       9.296  41.521  -7.102  1.00  0.00     0.157 HD
ATOM     36 1H10 UNL     1       8.805  39.843  -6.539  1.00  0.00     0.157 HD
ENDBRANCH  20  34
ENDBRANCH   6   7
BRANCH   1  37
HETATM   37  N1  UNL     1      12.891  42.290  -6.149  1.00  0.00    -0.352 N 
ATOM     38  H1  UNL     1      13.279  42.646  -5.275  1.00  0.00     0.162 HD
BRANCH  37  39
HETATM   39  C3  UNL     1      13.444  41.103  -6.761  1.00  0.00     0.213 C 
BRANCH  39  40
HETATM   40  C2  UNL     1      14.377  40.376  -5.809  1.00  0.00     0.147 C 
HETATM   41  C1  UNL     1      14.629  41.177  -4.560  1.00  0.00     0.042 C 
BRANCH  40  42
HETATM   42  O1  UNL     1      15.629  40.202  -6.441  1.00  0.00    -0.393 OA
ATOM     43  H1  UNL     1      15.891  39.302  -6.287  1.00  0.00     0.210 HD
ENDBRANCH  40  42
ENDBRANCH  39  40
BRANCH  39  44
HETATM   44  C23 UNL     1      14.204  41.422  -7.998  1.00  0.00     0.199 C 
HETATM   45  O11 UNL     1      14.074  40.658  -8.987  1.00  0.00    -0.646 OA
HETATM   46  O12 UNL     1      15.037  42.498  -8.125  1.00  0.00    -0.646 OA
ENDBRANCH  39  44
ENDBRANCH  37  39
ENDBRANCH   1  37
BRANCH   3  47
HETATM   47  C6  UNL     1      10.336  44.856  -9.412  1.00  0.00     0.042 A 
HETATM   48  C7  UNL     1      10.602  46.221  -9.365  1.00  0.00     0.021 A 
HETATM   49  C8  UNL     1      10.392  47.003 -10.470  1.00  0.00     0.037 A 
HETATM   50  C9  UNL     1       9.917  46.481 -11.643  1.00  0.00     0.067 A 
HETATM   51  C10 UNL     1       9.653  45.120 -11.682  1.00  0.00     0.066 A 
HETATM   52  C11 UNL     1       9.864  44.332 -10.574  1.00  0.00     0.049 A 
BRANCH  50  53
HETATM   53  O3  UNL     1       9.704  47.262 -12.753  1.00  0.00    -0.361 OA
ATOM     54  H3  UNL     1       8.929  47.802 -12.847  1.00  0.00     0.217 HD
ENDBRANCH  50  53
BRANCH  52  55
HETATM   55  N2  UNL     1       9.556  42.963 -10.696  1.00  0.00    -0.341 N 
ATOM     56  H2  UNL     1       8.620  42.651 -10.438  1.00  0.00     0.164 HD
BRANCH  55  57
HETATM   57  C12 UNL     1      10.512  41.968 -11.174  1.00  0.00     0.365 C 
BRANCH  57  58
HETATM   58  O4  UNL     1      11.688  41.967 -10.447  1.00  0.00    -0.355 OA
ATOM     59  H4  UNL     1      12.370  41.449 -10.856  1.00  0.00     0.214 HD
ENDBRANCH  57  58
BRANCH  57  60
HETATM   60  O5  UNL     1      10.737  42.041 -12.538  1.00  0.00    -0.355 OA
ATOM     61  H5  UNL     1      11.258  41.320 -12.870  1.00  0.00     0.214 HD
ENDBRANCH  57  60
ENDBRANCH  55  57
ENDBRANCH  52  55
ENDBRANCH   3  47
TORSDOF 19
ENDMDL
