MODEL 1
REMARK VINA RESULT: -7.171384498      0.000      0.000
REMARK  4 active torsions:
REMARK  status: ('A' for Active; 'I' for Inactive)
REMARK       I    between atoms: C1_2  and  N1_3 
REMARK       I    between atoms: C1_2  and  N3_13 
REMARK    1  A    between atoms: N1_3  and  C2_5 
REMARK    2  A    between atoms: C4_8  and  O3_9 
REMARK    3  A    between atoms: O3_9  and  N2_10 
REMARK    4  A    between atoms: N3_13  and  S1_15 
ROOT
HETATM    1  O1  UNL     1      32.760  44.634  21.214  1.00  0.00    -0.246 OA
HETATM    2  C1  UNL     1      32.680  45.006  22.403  1.00  0.00     0.332 C 
HETATM    3  N1  UNL     1      33.475  46.089  22.828  1.00  0.00    -0.328 N 
ATOM      4  H1  UNL     1      33.402  46.385  23.801  1.00  0.00     0.165 HD
HETATM    5  N3  UNL     1      31.804  44.341  23.283  1.00  0.00    -0.217 N 
ATOM      6  H3  UNL     1      31.739  44.645  24.254  1.00  0.00     0.186 HD
ENDROOT
BRANCH   3   7
HETATM    7  C2  UNL     1      34.389  46.807  21.965  1.00  0.00     0.198 A 
HETATM    8  C3  UNL     1      35.821  46.678  22.250  1.00  0.00     0.186 A 
HETATM    9  O2  UNL     1      36.940  46.163  22.332  1.00  0.00    -0.293 OA
HETATM   10  C4  UNL     1      35.060  47.977  22.519  1.00  0.00     0.260 A 
BRANCH  10  11
HETATM   11  O3  UNL     1      35.555  49.028  21.755  1.00  0.00    -0.205 OA
BRANCH  11  12
HETATM   12  N2  UNL     1      35.345  50.317  22.148  1.00  0.00     0.005 N 
HETATM   13  O4  UNL     1      35.141  51.207  21.312  1.00  0.00    -0.511 OA
HETATM   14  O5  UNL     1      35.361  50.622  23.479  1.00  0.00    -0.511 OA
ENDBRANCH  11  12
ENDBRANCH  10  11
ENDBRANCH   3   7
BRANCH   5  15
HETATM   15  S1  UNL     1      30.837  43.011  22.736  1.00  0.00     0.212 S 
HETATM   16  O6  UNL     1      30.032  42.485  23.895  1.00  0.00    -0.578 OA
HETATM   17  O7  UNL     1      31.713  41.867  22.263  1.00  0.00    -0.578 OA
HETATM   18  O8  UNL     1      29.851  43.504  21.468  1.00  0.00    -0.578 OA
ENDBRANCH   5  15
TORSDOF 4
ENDMDL
MODEL 2
REMARK VINA RESULT: -7.163707091      0.078      1.103
REMARK  4 active torsions:
REMARK  status: ('A' for Active; 'I' for Inactive)
REMARK       I    between atoms: C1_2  and  N1_3 
REMARK       I    between atoms: C1_2  and  N3_13 
REMARK    1  A    between atoms: N1_3  and  C2_5 
REMARK    2  A    between atoms: C4_8  and  O3_9 
REMARK    3  A    between atoms: O3_9  and  N2_10 
REMARK    4  A    between atoms: N3_13  and  S1_15 
ROOT
HETATM    1  O1  UNL     1      32.753  44.660  21.226  1.00  0.00    -0.246 OA
HETATM    2  C1  UNL     1      32.690  45.027  22.417  1.00  0.00     0.332 C 
HETATM    3  N1  UNL     1      33.492  46.106  22.836  1.00  0.00    -0.328 N 
ATOM      4  H1  UNL     1      33.433  46.399  23.812  1.00  0.00     0.165 HD
HETATM    5  N3  UNL     1      31.823  44.361  23.306  1.00  0.00    -0.217 N 
ATOM      6  H3  UNL     1      31.771  44.662  24.279  1.00  0.00     0.186 HD
ENDROOT
BRANCH   3   7
HETATM    7  C2  UNL     1      34.398  46.825  21.964  1.00  0.00     0.198 A 
HETATM    8  C3  UNL     1      35.832  46.714  22.249  1.00  0.00     0.186 A 
HETATM    9  O2  UNL     1      36.956  46.213  22.334  1.00  0.00    -0.293 OA
HETATM   10  C4  UNL     1      35.057  48.008  22.505  1.00  0.00     0.260 A 
BRANCH  10  11
HETATM   11  O3  UNL     1      35.540  49.056  21.729  1.00  0.00    -0.205 OA
BRANCH  11  12
HETATM   12  N2  UNL     1      35.346  50.346  22.126  1.00  0.00     0.005 N 
HETATM   13  O4  UNL     1      35.151  51.241  21.294  1.00  0.00    -0.511 OA
HETATM   14  O5  UNL     1      35.371  50.647  23.459  1.00  0.00    -0.511 OA
ENDBRANCH  11  12
ENDBRANCH  10  11
ENDBRANCH   3   7
BRANCH   5  15
HETATM   15  S1  UNL     1      30.845  43.037  22.766  1.00  0.00     0.212 S 
HETATM   16  O6  UNL     1      29.908  43.529  21.695  1.00  0.00    -0.578 OA
HETATM   17  O7  UNL     1      29.976  42.515  23.895  1.00  0.00    -0.578 OA
HETATM   18  O8  UNL     1      31.824  41.790  22.211  1.00  0.00    -0.578 OA
ENDBRANCH   5  15
TORSDOF 4
ENDMDL
MODEL 3
REMARK VINA RESULT: -6.532514176      2.157      2.762
REMARK  4 active torsions:
REMARK  status: ('A' for Active; 'I' for Inactive)
REMARK       I    between atoms: C1_2  and  N1_3 
REMARK       I    between atoms: C1_2  and  N3_13 
REMARK    1  A    between atoms: N1_3  and  C2_5 
REMARK    2  A    between atoms: C4_8  and  O3_9 
REMARK    3  A    between atoms: O3_9  and  N2_10 
REMARK    4  A    between atoms: N3_13  and  S1_15 
ROOT
HETATM    1  O1  UNL     1      31.979  44.177  21.857  1.00  0.00    -0.246 OA
HETATM    2  C1  UNL     1      32.453  43.036  21.681  1.00  0.00     0.332 C 
HETATM    3  N1  UNL     1      33.772  42.917  21.203  1.00  0.00    -0.328 N 
ATOM      4  H1  UNL     1      34.149  41.980  21.063  1.00  0.00     0.165 HD
HETATM    5  N3  UNL     1      31.663  41.904  21.963  1.00  0.00    -0.217 N 
ATOM      6  H3  UNL     1      32.050  40.971  21.820  1.00  0.00     0.186 HD
ENDROOT
BRANCH   3   7
HETATM    7  C2  UNL     1      34.626  44.047  20.899  1.00  0.00     0.198 A 
HETATM    8  C3  UNL     1      36.052  43.911  21.207  1.00  0.00     0.186 A 
HETATM    9  O2  UNL     1      37.220  43.522  21.119  1.00  0.00    -0.293 OA
HETATM   10  C4  UNL     1      35.136  44.827  22.020  1.00  0.00     0.260 A 
BRANCH  10  11
HETATM   11  O3  UNL     1      35.531  46.157  21.930  1.00  0.00    -0.205 OA
BRANCH  11  12
HETATM   12  N2  UNL     1      34.680  47.151  22.315  1.00  0.00     0.005 N 
HETATM   13  O4  UNL     1      33.755  46.919  23.104  1.00  0.00    -0.511 OA
HETATM   14  O5  UNL     1      34.855  48.411  21.820  1.00  0.00    -0.511 OA
ENDBRANCH  11  12
ENDBRANCH  10  11
ENDBRANCH   3   7
BRANCH   5  15
HETATM   15  S1  UNL     1      30.042  42.076  22.551  1.00  0.00     0.212 S 
HETATM   16  O6  UNL     1      30.082  42.754  23.896  1.00  0.00    -0.578 OA
HETATM   17  O7  UNL     1      29.402  40.719  22.769  1.00  0.00    -0.578 OA
HETATM   18  O8  UNL     1      29.121  42.943  21.445  1.00  0.00    -0.578 OA
ENDBRANCH   5  15
TORSDOF 4
ENDMDL
MODEL 4
REMARK VINA RESULT: -6.514771615      4.480      6.926
REMARK  4 active torsions:
REMARK  status: ('A' for Active; 'I' for Inactive)
REMARK       I    between atoms: C1_2  and  N1_3 
REMARK       I    between atoms: C1_2  and  N3_13 
REMARK    1  A    between atoms: N1_3  and  C2_5 
REMARK    2  A    between atoms: C4_8  and  O3_9 
REMARK    3  A    between atoms: O3_9  and  N2_10 
REMARK    4  A    between atoms: N3_13  and  S1_15 
ROOT
HETATM    1  O1  UNL     1      33.544  44.672  18.911  1.00  0.00    -0.246 OA
HETATM    2  C1  UNL     1      32.323  44.766  18.674  1.00  0.00     0.332 C 
HETATM    3  N1  UNL     1      31.449  43.815  19.237  1.00  0.00    -0.328 N 
ATOM      4  H1  UNL     1      30.452  43.901  19.038  1.00  0.00     0.165 HD
HETATM    5  N3  UNL     1      31.850  45.813  17.858  1.00  0.00    -0.217 N 
ATOM      6  H3  UNL     1      30.851  45.889  17.664  1.00  0.00     0.186 HD
ENDROOT
BRANCH   3   7
HETATM    7  C2  UNL     1      31.882  42.723  20.083  1.00  0.00     0.198 A 
HETATM    8  C3  UNL     1      30.859  42.059  20.896  1.00  0.00     0.186 A 
HETATM    9  O2  UNL     1      29.884  41.355  21.176  1.00  0.00    -0.293 OA
HETATM   10  C4  UNL     1      31.925  42.960  21.521  1.00  0.00     0.260 A 
BRANCH  10  11
HETATM   11  O3  UNL     1      32.736  42.256  22.405  1.00  0.00    -0.205 OA
BRANCH  11  12
HETATM   12  N2  UNL     1      34.077  42.504  22.446  1.00  0.00     0.005 N 
HETATM   13  O4  UNL     1      34.875  41.611  22.760  1.00  0.00    -0.511 OA
HETATM   14  O5  UNL     1      34.537  43.752  22.137  1.00  0.00    -0.511 OA
ENDBRANCH  11  12
ENDBRANCH  10  11
ENDBRANCH   3   7
BRANCH   5  15
HETATM   15  S1  UNL     1      32.945  46.971  17.177  1.00  0.00     0.212 S 
HETATM   16  O6  UNL     1      33.430  47.883  18.273  1.00  0.00    -0.578 OA
HETATM   17  O7  UNL     1      32.236  47.850  16.164  1.00  0.00    -0.578 OA
HETATM   18  O8  UNL     1      34.217  46.179  16.418  1.00  0.00    -0.578 OA
ENDBRANCH   5  15
TORSDOF 4
ENDMDL
MODEL 5
REMARK VINA RESULT: -6.474560815      2.211      2.923
REMARK  4 active torsions:
REMARK  status: ('A' for Active; 'I' for Inactive)
REMARK       I    between atoms: C1_2  and  N1_3 
REMARK       I    between atoms: C1_2  and  N3_13 
REMARK    1  A    between atoms: N1_3  and  C2_5 
REMARK    2  A    between atoms: C4_8  and  O3_9 
REMARK    3  A    between atoms: O3_9  and  N2_10 
REMARK    4  A    between atoms: N3_13  and  S1_15 
ROOT
HETATM    1  O1  UNL     1      32.039  44.253  21.744  1.00  0.00    -0.246 OA
HETATM    2  C1  UNL     1      32.459  43.126  21.411  1.00  0.00     0.332 C 
HETATM    3  N1  UNL     1      33.767  43.014  20.902  1.00  0.00    -0.328 N 
ATOM      4  H1  UNL     1      34.100  42.088  20.633  1.00  0.00     0.165 HD
HETATM    5  N3  UNL     1      31.621  42.002  21.552  1.00  0.00    -0.217 N 
ATOM      6  H3  UNL     1      31.964  41.081  21.280  1.00  0.00     0.186 HD
ENDROOT
BRANCH   3   7
HETATM    7  C2  UNL     1      34.668  44.136  20.738  1.00  0.00     0.198 A 
HETATM    8  C3  UNL     1      36.062  43.941  21.148  1.00  0.00     0.186 A 
HETATM    9  O2  UNL     1      37.224  43.526  21.128  1.00  0.00    -0.293 OA
HETATM   10  C4  UNL     1      35.105  44.831  21.943  1.00  0.00     0.260 A 
BRANCH  10  11
HETATM   11  O3  UNL     1      35.537  46.153  21.969  1.00  0.00    -0.205 OA
BRANCH  11  12
HETATM   12  N2  UNL     1      34.684  47.143  22.359  1.00  0.00     0.005 N 
HETATM   13  O4  UNL     1      33.715  46.892  23.087  1.00  0.00    -0.511 OA
HETATM   14  O5  UNL     1      34.907  48.423  21.938  1.00  0.00    -0.511 OA
ENDBRANCH  11  12
ENDBRANCH  10  11
ENDBRANCH   3   7
BRANCH   5  15
HETATM   15  S1  UNL     1      30.015  42.165  22.182  1.00  0.00     0.212 S 
HETATM   16  O6  UNL     1      29.300  40.847  22.039  1.00  0.00    -0.578 OA
HETATM   17  O7  UNL     1      29.222  43.176  21.376  1.00  0.00    -0.578 OA
HETATM   18  O8  UNL     1      30.076  42.669  23.783  1.00  0.00    -0.578 OA
ENDBRANCH   5  15
TORSDOF 4
ENDMDL
