MODEL 1
REMARK VINA RESULT: -6.952162156      0.000      0.000
REMARK  4 active torsions:
REMARK  status: ('A' for Active; 'I' for Inactive)
REMARK    1  A    between atoms: C9_9  and  C10_10 
REMARK    2  A    between atoms: C13_15  and  C14_16 
REMARK    3  A    between atoms: C14_16  and  N2_17 
REMARK    4  A    between atoms: N2_17  and  O1_19 
ROOT
HETATM    1  C1  UNL     1       0.506  40.463  -1.226  1.00  0.00     0.011 C 
HETATM    2  C2  UNL     1       0.552  39.052  -0.777  1.00  0.00    -0.010 C 
HETATM    3  C3  UNL     1      -0.784  38.352  -0.786  1.00  0.00    -0.009 C 
HETATM    4  C4  UNL     1      -1.305  38.040  -2.148  1.00  0.00     0.010 C 
HETATM    5  C5  UNL     1      -0.331  37.196  -2.897  1.00  0.00    -0.013 C 
HETATM    6  C6  UNL     1       0.972  38.000  -3.009  1.00  0.00     0.010 C 
HETATM    7  C7  UNL     1       1.470  38.174  -1.608  1.00  0.00    -0.009 C 
HETATM    8  C8  UNL     1       1.630  36.890  -0.891  1.00  0.00     0.019 C 
HETATM    9  C9  UNL     1       0.278  36.120  -0.799  1.00  0.00    -0.011 C 
HETATM   10  C15 UNL     1      -0.037  35.876  -2.223  1.00  0.00     0.019 C 
HETATM   11  C16 UNL     1      -0.589  37.055  -0.032  1.00  0.00     0.019 C 
ENDROOT
BRANCH   9  12
HETATM   12  C10 UNL     1       0.579  34.845  -0.025  1.00  0.00    -0.029 A 
HETATM   13  C11 UNL     1       1.870  34.529   0.304  1.00  0.00     0.060 A 
HETATM   14  S1  UNL     1       1.772  33.060   1.154  1.00  0.00    -0.086 SA
HETATM   15  C12 UNL     1       0.071  32.859   1.082  1.00  0.00     0.099 A 
HETATM   16  N1  UNL     1      -0.652  31.739   1.659  1.00  0.00    -0.093 NA
HETATM   17  C13 UNL     1      -0.376  33.946   0.396  1.00  0.00     0.020 A 
BRANCH  17  18
HETATM   18  C14 UNL     1      -1.838  34.126   0.118  1.00  0.00     0.128 C 
BRANCH  18  19
HETATM   19  N2  UNL     1      -2.791  33.790   0.758  1.00  0.00    -0.280 N 
ATOM     20  H2  UNL     1      -3.588  34.089   0.196  1.00  0.00     0.193 HD
BRANCH  19  21
HETATM   21  O1  UNL     1      -3.312  33.254   1.771  1.00  0.00    -0.290 OA
ATOM     22  H1  UNL     1      -4.067  32.950   2.261  1.00  0.00     0.244 HD
ENDBRANCH  19  21
ENDBRANCH  18  19
ENDBRANCH  17  18
ENDBRANCH   9  12
TORSDOF 4
ENDMDL
MODEL 2
REMARK VINA RESULT: -6.788956418      2.278      3.360
REMARK  4 active torsions:
REMARK  status: ('A' for Active; 'I' for Inactive)
REMARK    1  A    between atoms: C9_9  and  C10_10 
REMARK    2  A    between atoms: C13_15  and  C14_16 
REMARK    3  A    between atoms: C14_16  and  N2_17 
REMARK    4  A    between atoms: N2_17  and  O1_19 
ROOT
HETATM    1  C1  UNL     1       0.246  38.185  -5.381  1.00  0.00     0.011 C 
HETATM    2  C2  UNL     1       0.068  37.267  -4.231  1.00  0.00    -0.010 C 
HETATM    3  C3  UNL     1       1.090  37.436  -3.136  1.00  0.00    -0.009 C 
HETATM    4  C4  UNL     1       0.931  38.683  -2.334  1.00  0.00     0.010 C 
HETATM    5  C5  UNL     1      -0.425  38.737  -1.718  1.00  0.00    -0.013 C 
HETATM    6  C6  UNL     1      -1.444  38.721  -2.867  1.00  0.00     0.010 C 
HETATM    7  C7  UNL     1      -1.280  37.398  -3.546  1.00  0.00    -0.009 C 
HETATM    8  C8  UNL     1      -1.422  36.254  -2.618  1.00  0.00     0.019 C 
HETATM    9  C9  UNL     1      -0.360  36.314  -1.479  1.00  0.00    -0.011 C 
HETATM   10  C15 UNL     1      -0.712  37.577  -0.794  1.00  0.00     0.019 C 
HETATM   11  C16 UNL     1       0.929  36.245  -2.217  1.00  0.00     0.019 C 
ENDROOT
BRANCH   9  12
HETATM   12  C10 UNL     1      -0.602  35.080  -0.621  1.00  0.00    -0.029 A 
HETATM   13  C11 UNL     1      -1.789  34.404  -0.711  1.00  0.00     0.060 A 
HETATM   14  S1  UNL     1      -1.654  33.110   0.386  1.00  0.00    -0.086 SA
HETATM   15  C12 UNL     1      -0.071  33.448   0.953  1.00  0.00     0.099 A 
HETATM   16  N1  UNL     1       0.632  32.657   1.949  1.00  0.00    -0.093 NA
HETATM   17  C13 UNL     1       0.310  34.562   0.271  1.00  0.00     0.020 A 
BRANCH  17  18
HETATM   18  C14 UNL     1       1.657  35.177   0.506  1.00  0.00     0.128 C 
BRANCH  18  19
HETATM   19  N2  UNL     1       2.716  34.659   0.705  1.00  0.00    -0.280 N 
ATOM     20  H2  UNL     1       3.347  35.441   0.880  1.00  0.00     0.193 HD
BRANCH  19  21
HETATM   21  O1  UNL     1       3.450  33.641   0.809  1.00  0.00    -0.290 OA
ATOM     22  H1  UNL     1       3.652  32.792   1.182  1.00  0.00     0.244 HD
ENDBRANCH  19  21
ENDBRANCH  18  19
ENDBRANCH  17  18
ENDBRANCH   9  12
TORSDOF 4
ENDMDL
MODEL 3
REMARK VINA RESULT: -6.760348837      2.544      3.514
REMARK  4 active torsions:
REMARK  status: ('A' for Active; 'I' for Inactive)
REMARK    1  A    between atoms: C9_9  and  C10_10 
REMARK    2  A    between atoms: C13_15  and  C14_16 
REMARK    3  A    between atoms: C14_16  and  N2_17 
REMARK    4  A    between atoms: N2_17  and  O1_19 
ROOT
HETATM    1  C1  UNL     1      -0.049  39.742  -5.166  1.00  0.00     0.011 C 
HETATM    2  C2  UNL     1       0.018  38.650  -4.167  1.00  0.00    -0.010 C 
HETATM    3  C3  UNL     1       1.051  38.856  -3.088  1.00  0.00    -0.009 C 
HETATM    4  C4  UNL     1       0.702  39.916  -2.099  1.00  0.00     0.010 C 
HETATM    5  C5  UNL     1      -0.601  39.610  -1.445  1.00  0.00    -0.013 C 
HETATM    6  C6  UNL     1      -1.663  39.561  -2.553  1.00  0.00     0.010 C 
HETATM    7  C7  UNL     1      -1.288  38.410  -3.432  1.00  0.00    -0.009 C 
HETATM    8  C8  UNL     1      -1.155  37.138  -2.689  1.00  0.00     0.019 C 
HETATM    9  C9  UNL     1      -0.060  37.240  -1.584  1.00  0.00    -0.011 C 
HETATM   10  C15 UNL     1      -0.607  38.294  -0.703  1.00  0.00     0.019 C 
HETATM   11  C16 UNL     1       1.174  37.536  -2.360  1.00  0.00     0.019 C 
ENDROOT
BRANCH   9  12
HETATM   12  C10 UNL     1      -0.012  35.870  -0.921  1.00  0.00    -0.029 A 
HETATM   13  C11 UNL     1      -0.942  34.918  -1.242  1.00  0.00     0.060 A 
HETATM   14  S1  UNL     1      -0.537  33.559  -0.304  1.00  0.00    -0.086 SA
HETATM   15  C12 UNL     1       0.826  34.223   0.497  1.00  0.00     0.099 A 
HETATM   16  N1  UNL     1       1.637  33.512   1.470  1.00  0.00    -0.093 NA
HETATM   17  C13 UNL     1       0.929  35.490   0.010  1.00  0.00     0.020 A 
BRANCH  17  18
HETATM   18  C14 UNL     1       2.017  36.405   0.486  1.00  0.00     0.128 C 
BRANCH  18  19
HETATM   19  N2  UNL     1       2.506  36.519   1.571  1.00  0.00    -0.280 N 
ATOM     20  H2  UNL     1       2.192  37.435   1.892  1.00  0.00     0.193 HD
BRANCH  19  21
HETATM   21  O1  UNL     1       3.212  36.086   2.520  1.00  0.00    -0.290 OA
ATOM     22  H1  UNL     1       3.382  35.960   3.446  1.00  0.00     0.244 HD
ENDBRANCH  19  21
ENDBRANCH  18  19
ENDBRANCH  17  18
ENDBRANCH   9  12
TORSDOF 4
ENDMDL
MODEL 4
REMARK VINA RESULT: -6.671249164      0.981      1.138
REMARK  4 active torsions:
REMARK  status: ('A' for Active; 'I' for Inactive)
REMARK    1  A    between atoms: C9_9  and  C10_10 
REMARK    2  A    between atoms: C13_15  and  C14_16 
REMARK    3  A    between atoms: C14_16  and  N2_17 
REMARK    4  A    between atoms: N2_17  and  O1_19 
ROOT
HETATM    1  C1  UNL     1       1.799  40.776   0.315  1.00  0.00     0.011 C 
HETATM    2  C2  UNL     1       1.627  39.310   0.454  1.00  0.00    -0.010 C 
HETATM    3  C3  UNL     1       0.198  38.840   0.359  1.00  0.00    -0.009 C 
HETATM    4  C4  UNL     1      -0.382  38.910  -1.013  1.00  0.00     0.010 C 
HETATM    5  C5  UNL     1       0.437  38.109  -1.966  1.00  0.00    -0.013 C 
HETATM    6  C6  UNL     1       1.849  38.712  -1.965  1.00  0.00     0.010 C 
HETATM    7  C7  UNL     1       2.385  38.503  -0.584  1.00  0.00    -0.009 C 
HETATM    8  C8  UNL     1       2.350  37.086  -0.161  1.00  0.00     0.019 C 
HETATM    9  C9  UNL     1       0.895  36.528  -0.172  1.00  0.00    -0.011 C 
HETATM   10  C15 UNL     1       0.528  36.647  -1.600  1.00  0.00     0.019 C 
HETATM   11  C16 UNL     1       0.195  37.396   0.813  1.00  0.00     0.019 C 
ENDROOT
BRANCH   9  12
HETATM   12  C10 UNL     1       1.000  35.085   0.302  1.00  0.00    -0.029 A 
HETATM   13  C11 UNL     1       2.220  34.559   0.632  1.00  0.00     0.060 A 
HETATM   14  S1  UNL     1       1.904  32.957   1.107  1.00  0.00    -0.086 SA
HETATM   15  C12 UNL     1       0.205  32.974   0.879  1.00  0.00     0.099 A 
HETATM   16  N1  UNL     1      -0.671  31.842   1.130  1.00  0.00    -0.093 NA
HETATM   17  C13 UNL     1      -0.071  34.231   0.437  1.00  0.00     0.020 A 
BRANCH  17  18
HETATM   18  C14 UNL     1      -1.478  34.634   0.113  1.00  0.00     0.128 C 
BRANCH  18  19
HETATM   19  N2  UNL     1      -2.509  34.320   0.632  1.00  0.00    -0.280 N 
ATOM     20  H2  UNL     1      -3.195  34.958   0.230  1.00  0.00     0.193 HD
BRANCH  19  21
HETATM   21  O1  UNL     1      -3.178  33.603   1.422  1.00  0.00    -0.290 OA
ATOM     22  H1  UNL     1      -3.633  32.797   1.637  1.00  0.00     0.244 HD
ENDBRANCH  19  21
ENDBRANCH  18  19
ENDBRANCH  17  18
ENDBRANCH   9  12
TORSDOF 4
ENDMDL
MODEL 5
REMARK VINA RESULT: -6.635210211      0.486      1.805
REMARK  4 active torsions:
REMARK  status: ('A' for Active; 'I' for Inactive)
REMARK    1  A    between atoms: C9_9  and  C10_10 
REMARK    2  A    between atoms: C13_15  and  C14_16 
REMARK    3  A    between atoms: C14_16  and  N2_17 
REMARK    4  A    between atoms: N2_17  and  O1_19 
ROOT
HETATM    1  C1  UNL     1      -1.611  39.383  -2.757  1.00  0.00     0.011 C 
HETATM    2  C2  UNL     1      -1.106  38.165  -2.080  1.00  0.00    -0.010 C 
HETATM    3  C3  UNL     1      -0.031  37.431  -2.840  1.00  0.00    -0.009 C 
HETATM    4  C4  UNL     1       1.289  38.125  -2.862  1.00  0.00     0.010 C 
HETATM    5  C5  UNL     1       1.777  38.360  -1.473  1.00  0.00    -0.013 C 
HETATM    6  C6  UNL     1       0.735  39.242  -0.772  1.00  0.00     0.010 C 
HETATM    7  C7  UNL     1      -0.518  38.427  -0.706  1.00  0.00    -0.009 C 
HETATM    8  C8  UNL     1      -0.318  37.117  -0.048  1.00  0.00     0.019 C 
HETATM    9  C9  UNL     1       0.741  36.260  -0.805  1.00  0.00    -0.011 C 
HETATM   10  C15 UNL     1       1.959  37.089  -0.677  1.00  0.00     0.019 C 
HETATM   11  C16 UNL     1       0.137  36.093  -2.154  1.00  0.00     0.019 C 
ENDROOT
BRANCH   9  12
HETATM   12  C10 UNL     1       0.830  34.944  -0.045  1.00  0.00    -0.029 A 
HETATM   13  C11 UNL     1       2.050  34.454   0.340  1.00  0.00     0.060 A 
HETATM   14  S1  UNL     1       1.714  32.998   1.152  1.00  0.00    -0.086 SA
HETATM   15  C12 UNL     1       0.007  33.028   0.992  1.00  0.00     0.099 A 
HETATM   16  N1  UNL     1      -0.887  32.005   1.509  1.00  0.00    -0.093 NA
HETATM   17  C13 UNL     1      -0.256  34.175   0.309  1.00  0.00     0.020 A 
BRANCH  17  18
HETATM   18  C14 UNL     1      -1.665  34.552  -0.037  1.00  0.00     0.128 C 
BRANCH  18  19
HETATM   19  N2  UNL     1      -2.694  34.261   0.499  1.00  0.00    -0.280 N 
ATOM     20  H2  UNL     1      -3.403  34.767  -0.030  1.00  0.00     0.193 HD
BRANCH  19  21
HETATM   21  O1  UNL     1      -3.348  33.648   1.384  1.00  0.00    -0.290 OA
ATOM     22  H1  UNL     1      -3.579  33.487   2.291  1.00  0.00     0.244 HD
ENDBRANCH  19  21
ENDBRANCH  18  19
ENDBRANCH  17  18
ENDBRANCH   9  12
TORSDOF 4
ENDMDL
