MODEL 1
REMARK VINA RESULT: -8.370284681      0.000      0.000
REMARK  9 active torsions:
REMARK  status: ('A' for Active; 'I' for Inactive)
REMARK    1  A    between atoms: N1_2  and  C2_3 
REMARK    2  A    between atoms: N1_2  and  C4_8 
REMARK    3  A    between atoms: C2_3  and  O1_4 
REMARK    4  A    between atoms: C8_15  and  C9_16 
REMARK       I    between atoms: C9_16  and  N3_18 
REMARK    5  A    between atoms: N3_18  and  C10_20 
REMARK    6  A    between atoms: C10_20  and  C11_21 
REMARK    7  A    between atoms: C11_21  and  C12_22 
REMARK    8  A    between atoms: C17_31  and  C18_32 
REMARK    9  A    between atoms: C18_32  and  C19_33 
ROOT
HETATM    1  C9  UNL     1       9.264  65.545   2.552  1.00  0.00     0.225 C 
HETATM    2  O2  UNL     1       8.942  66.224   1.556  1.00  0.00    -0.273 OA
HETATM    3  N3  UNL     1       8.477  65.587   3.718  1.00  0.00    -0.361 N 
ATOM      4  H3  UNL     1       8.757  65.010   4.511  1.00  0.00     0.162 HD
ENDROOT
BRANCH   3   5
HETATM    5  C10 UNL     1       7.302  66.397   3.850  1.00  0.00     0.125 C 
BRANCH   5   6
HETATM    6  C11 UNL     1       6.072  65.532   3.865  1.00  0.00     0.052 C 
BRANCH   6   7
HETATM    7  C12 UNL     1       6.283  64.189   4.564  1.00  0.00     0.132 C 
HETATM    8  C13 UNL     1       5.097  63.754   5.339  1.00  0.00     0.108 C 
HETATM    9  C14 UNL     1       4.000  63.307   4.407  1.00  0.00     0.088 A 
HETATM   10  N4  UNL     1       2.679  63.480   4.347  1.00  0.00    -0.339 N 
HETATM   11  N5  UNL     1       4.468  62.574   3.373  1.00  0.00    -0.317 N 
HETATM   12  C15 UNL     1       2.230  62.849   3.239  1.00  0.00     0.096 A 
ATOM     13  H4  UNL     1       2.109  63.996   5.017  1.00  0.00     0.168 HD
HETATM   14 BR1  UNL     1       0.432  62.732   2.601  1.00  0.00    -0.030 Br
HETATM   15  C16 UNL     1       3.332  62.304   2.657  1.00  0.00     0.132 A 
HETATM   16  C17 UNL     1       5.849  62.283   3.244  1.00  0.00     0.229 C 
HETATM   17  O3  UNL     1       6.704  63.324   3.588  1.00  0.00    -0.360 OA
BRANCH  16  18
HETATM   18  C18 UNL     1       6.394  61.059   3.854  1.00  0.00     0.062 C 
BRANCH  18  19
HETATM   19  C19 UNL     1       6.778  59.904   3.031  1.00  0.00    -0.047 C 
HETATM   20  C20 UNL     1       5.877  59.613   1.857  1.00  0.00     0.014 C 
HETATM   21  C21 UNL     1       8.136  60.274   2.343  1.00  0.00     0.014 C 
HETATM   22  C22 UNL     1       7.074  58.655   3.798  1.00  0.00     0.014 C 
ENDBRANCH  18  19
ENDBRANCH  16  18
ENDBRANCH   6   7
ENDBRANCH   5   6
ENDBRANCH   3   5
BRANCH   1  23
HETATM   23  C8  UNL     1      10.498  64.701   2.462  1.00  0.00     0.126 C 
HETATM   24  C4  UNL     1      11.701  65.565   2.344  1.00  0.00     0.102 C 
HETATM   25  C5  UNL     1      12.376  65.590   1.012  1.00  0.00     0.054 C 
HETATM   26  C6  UNL     1      11.870  64.647  -0.014  1.00  0.00     0.234 C 
HETATM   27  N2  UNL     1      10.450  64.369   0.105  1.00  0.00    -0.074 N 
HETATM   28  C7  UNL     1      10.290  63.692   1.381  1.00  0.00     0.248 C 
ATOM     29  H22 UNL     1       9.860  65.196   0.003  1.00  0.00     0.277 HD
ATOM     30  H21 UNL     1      10.066  63.850  -0.684  1.00  0.00     0.277 HD
BRANCH  24  31
HETATM   31  N1  UNL     1      12.691  65.271   3.424  1.00  0.00    -0.360 N 
HETATM   32  C1  UNL     1      13.844  64.463   3.090  1.00  0.00     0.152 C 
BRANCH  31  33
HETATM   33  C2  UNL     1      12.497  65.759   4.720  1.00  0.00     0.149 C 
HETATM   34  C3  UNL     1      13.382  65.755   5.861  1.00  0.00     0.140 C 
HETATM   35 CL1  UNL     1      14.912  64.914   5.719  1.00  0.00    -0.092 Cl
BRANCH  33  36
HETATM   36  O1  UNL     1      11.331  66.301   4.926  1.00  0.00    -0.346 OA
ATOM     37  H1  UNL     1      10.799  65.859   5.577  1.00  0.00     0.219 HD
ENDBRANCH  33  36
ENDBRANCH  31  33
ENDBRANCH  24  31
ENDBRANCH   1  23
TORSDOF 9
ENDMDL
MODEL 2
REMARK VINA RESULT: -8.338692746      4.187      6.445
REMARK  9 active torsions:
REMARK  status: ('A' for Active; 'I' for Inactive)
REMARK    1  A    between atoms: N1_2  and  C2_3 
REMARK    2  A    between atoms: N1_2  and  C4_8 
REMARK    3  A    between atoms: C2_3  and  O1_4 
REMARK    4  A    between atoms: C8_15  and  C9_16 
REMARK       I    between atoms: C9_16  and  N3_18 
REMARK    5  A    between atoms: N3_18  and  C10_20 
REMARK    6  A    between atoms: C10_20  and  C11_21 
REMARK    7  A    between atoms: C11_21  and  C12_22 
REMARK    8  A    between atoms: C17_31  and  C18_32 
REMARK    9  A    between atoms: C18_32  and  C19_33 
ROOT
HETATM    1  C9  UNL     1       7.721  66.834   1.489  1.00  0.00     0.225 C 
HETATM    2  O2  UNL     1       6.875  65.952   1.738  1.00  0.00    -0.273 OA
HETATM    3  N3  UNL     1       8.371  66.856   0.241  1.00  0.00    -0.361 N 
ATOM      4  H3  UNL     1       9.047  67.598   0.061  1.00  0.00     0.162 HD
ENDROOT
BRANCH   3   5
HETATM    5  C10 UNL     1       8.133  65.889  -0.791  1.00  0.00     0.125 C 
BRANCH   5   6
HETATM    6  C11 UNL     1       9.416  65.196  -1.160  1.00  0.00     0.052 C 
BRANCH   6   7
HETATM    7  C12 UNL     1       9.412  63.702  -0.837  1.00  0.00     0.132 C 
HETATM    8  C13 UNL     1      10.776  63.153  -0.648  1.00  0.00     0.108 C 
HETATM    9  C14 UNL     1      11.352  63.625   0.663  1.00  0.00     0.088 A 
HETATM   10  N4  UNL     1      12.539  64.080   1.067  1.00  0.00    -0.339 N 
HETATM   11  N5  UNL     1      10.444  63.603   1.663  1.00  0.00    -0.317 N 
HETATM   12  C15 UNL     1      12.439  64.380   2.382  1.00  0.00     0.096 A 
ATOM     13  H4  UNL     1      13.372  64.185   0.488  1.00  0.00     0.168 HD
HETATM   14 BR1  UNL     1      13.798  65.074   3.534  1.00  0.00    -0.030 Br
HETATM   15  C16 UNL     1      11.158  64.084   2.728  1.00  0.00     0.132 A 
HETATM   16  C17 UNL     1       9.116  63.161   1.440  1.00  0.00     0.229 C 
HETATM   17  O3  UNL     1       8.561  63.554   0.228  1.00  0.00    -0.360 OA
BRANCH  16  18
HETATM   18  C18 UNL     1       8.782  61.739   1.627  1.00  0.00     0.062 C 
BRANCH  18  19
HETATM   19  C19 UNL     1       7.696  61.323   2.524  1.00  0.00    -0.047 C 
HETATM   20  C20 UNL     1       6.307  61.391   1.940  1.00  0.00     0.014 C 
HETATM   21  C21 UNL     1       7.889  59.791   2.783  1.00  0.00     0.014 C 
HETATM   22  C22 UNL     1       7.732  61.942   3.886  1.00  0.00     0.014 C 
ENDBRANCH  18  19
ENDBRANCH  16  18
ENDBRANCH   6   7
ENDBRANCH   5   6
ENDBRANCH   3   5
BRANCH   1  23
HETATM   23  C8  UNL     1       8.014  67.850   2.550  1.00  0.00     0.126 C 
HETATM   24  C4  UNL     1       9.355  68.449   2.326  1.00  0.00     0.102 C 
HETATM   25  C5  UNL     1      10.431  68.055   3.284  1.00  0.00     0.054 C 
HETATM   26  C6  UNL     1      10.024  67.224   4.443  1.00  0.00     0.234 C 
HETATM   27  N2  UNL     1       8.908  66.339   4.158  1.00  0.00    -0.074 N 
HETATM   28  C7  UNL     1       7.780  67.211   3.879  1.00  0.00     0.248 C 
ATOM     29  H22 UNL     1       9.099  65.665   3.415  1.00  0.00     0.277 HD
ATOM     30  H21 UNL     1       8.727  65.658   4.895  1.00  0.00     0.277 HD
BRANCH  24  31
HETATM   31  N1  UNL     1       9.275  69.938   2.217  1.00  0.00    -0.360 N 
HETATM   32  C1  UNL     1      10.283  70.726   2.892  1.00  0.00     0.152 C 
BRANCH  31  33
HETATM   33  C2  UNL     1       8.246  70.544   1.489  1.00  0.00     0.149 C 
HETATM   34  C3  UNL     1       7.210  71.454   1.918  1.00  0.00     0.140 C 
HETATM   35 CL1  UNL     1       7.073  71.805   3.628  1.00  0.00    -0.092 Cl
BRANCH  33  36
HETATM   36  O1  UNL     1       8.223  70.235   0.224  1.00  0.00    -0.346 OA
ATOM     37  H1  UNL     1       8.242  70.980  -0.365  1.00  0.00     0.219 HD
ENDBRANCH  33  36
ENDBRANCH  31  33
ENDBRANCH  24  31
ENDBRANCH   1  23
TORSDOF 9
ENDMDL
MODEL 3
REMARK VINA RESULT: -8.001436388      2.401      3.723
REMARK  9 active torsions:
REMARK  status: ('A' for Active; 'I' for Inactive)
REMARK    1  A    between atoms: N1_2  and  C2_3 
REMARK    2  A    between atoms: N1_2  and  C4_8 
REMARK    3  A    between atoms: C2_3  and  O1_4 
REMARK    4  A    between atoms: C8_15  and  C9_16 
REMARK       I    between atoms: C9_16  and  N3_18 
REMARK    5  A    between atoms: N3_18  and  C10_20 
REMARK    6  A    between atoms: C10_20  and  C11_21 
REMARK    7  A    between atoms: C11_21  and  C12_22 
REMARK    8  A    between atoms: C17_31  and  C18_32 
REMARK    9  A    between atoms: C18_32  and  C19_33 
ROOT
HETATM    1  C9  UNL     1       8.319  66.460   3.809  1.00  0.00     0.225 C 
HETATM    2  O2  UNL     1       8.238  67.450   4.563  1.00  0.00    -0.273 OA
HETATM    3  N3  UNL     1       7.369  65.425   3.899  1.00  0.00    -0.361 N 
ATOM      4  H3  UNL     1       7.452  64.635   3.259  1.00  0.00     0.162 HD
ENDROOT
BRANCH   3   5
HETATM    5  C10 UNL     1       6.290  65.423   4.843  1.00  0.00     0.125 C 
BRANCH   5   6
HETATM    6  C11 UNL     1       5.013  64.994   4.173  1.00  0.00     0.052 C 
BRANCH   6   7
HETATM    7  C12 UNL     1       4.753  63.491   4.268  1.00  0.00     0.132 C 
HETATM    8  C13 UNL     1       3.985  62.968   3.113  1.00  0.00     0.108 C 
HETATM    9  C14 UNL     1       4.855  62.928   1.882  1.00  0.00     0.088 A 
HETATM   10  N4  UNL     1       4.693  63.243   0.597  1.00  0.00    -0.339 N 
HETATM   11  N5  UNL     1       6.105  62.489   2.149  1.00  0.00    -0.317 N 
HETATM   12  C15 UNL     1       5.867  63.014  -0.035  1.00  0.00     0.096 A 
ATOM     13  H4  UNL     1       3.837  63.594   0.167  1.00  0.00     0.168 HD
HETATM   14 BR1  UNL     1       6.273  63.272  -1.885  1.00  0.00    -0.030 Br
HETATM   15  C16 UNL     1       6.715  62.557   0.924  1.00  0.00     0.132 A 
HETATM   16  C17 UNL     1       6.488  62.112   3.460  1.00  0.00     0.229 C 
HETATM   17  O3  UNL     1       5.979  62.914   4.475  1.00  0.00    -0.360 OA
BRANCH  16  18
HETATM   18  C18 UNL     1       6.322  60.714   3.891  1.00  0.00     0.062 C 
BRANCH  18  19
HETATM   19  C19 UNL     1       6.953  59.611   3.155  1.00  0.00    -0.047 C 
HETATM   20  C20 UNL     1       7.120  58.325   3.926  1.00  0.00     0.014 C 
HETATM   21  C21 UNL     1       5.958  59.204   2.015  1.00  0.00     0.014 C 
HETATM   22  C22 UNL     1       8.216  59.971   2.440  1.00  0.00     0.014 C 
ENDBRANCH  18  19
ENDBRANCH  16  18
ENDBRANCH   6   7
ENDBRANCH   5   6
ENDBRANCH   3   5
BRANCH   1  23
HETATM   23  C8  UNL     1       9.445  66.413   2.822  1.00  0.00     0.126 C 
HETATM   24  C4  UNL     1       9.679  65.015   2.379  1.00  0.00     0.102 C 
HETATM   25  C5  UNL     1      10.919  64.353   2.883  1.00  0.00     0.054 C 
HETATM   26  C6  UNL     1      11.863  65.197   3.653  1.00  0.00     0.234 C 
HETATM   27  N2  UNL     1      11.212  66.252   4.410  1.00  0.00    -0.074 N 
HETATM   28  C7  UNL     1      10.612  67.129   3.419  1.00  0.00     0.248 C 
ATOM     29  H22 UNL     1      10.551  65.908   5.107  1.00  0.00     0.277 HD
ATOM     30  H21 UNL     1      11.833  66.733   5.060  1.00  0.00     0.277 HD
BRANCH  24  31
HETATM   31  N1  UNL     1       9.590  64.893   0.891  1.00  0.00    -0.360 N 
HETATM   32  C1  UNL     1       8.606  65.697   0.199  1.00  0.00     0.152 C 
BRANCH  31  33
HETATM   33  C2  UNL     1      10.433  64.020   0.198  1.00  0.00     0.149 C 
HETATM   34  C3  UNL     1      11.793  64.196  -0.255  1.00  0.00     0.140 C 
HETATM   35 CL1  UNL     1      12.534  65.771  -0.052  1.00  0.00    -0.092 Cl
BRANCH  33  36
HETATM   36  O1  UNL     1       9.902  62.865  -0.084  1.00  0.00    -0.346 OA
ATOM     37  H1  UNL     1      10.478  62.267  -0.546  1.00  0.00     0.219 HD
ENDBRANCH  33  36
ENDBRANCH  31  33
ENDBRANCH  24  31
ENDBRANCH   1  23
TORSDOF 9
ENDMDL
MODEL 4
REMARK VINA RESULT: -7.869878440      2.516      3.407
REMARK  9 active torsions:
REMARK  status: ('A' for Active; 'I' for Inactive)
REMARK    1  A    between atoms: N1_2  and  C2_3 
REMARK    2  A    between atoms: N1_2  and  C4_8 
REMARK    3  A    between atoms: C2_3  and  O1_4 
REMARK    4  A    between atoms: C8_15  and  C9_16 
REMARK       I    between atoms: C9_16  and  N3_18 
REMARK    5  A    between atoms: N3_18  and  C10_20 
REMARK    6  A    between atoms: C10_20  and  C11_21 
REMARK    7  A    between atoms: C11_21  and  C12_22 
REMARK    8  A    between atoms: C17_31  and  C18_32 
REMARK    9  A    between atoms: C18_32  and  C19_33 
ROOT
HETATM    1  C9  UNL     1       7.621  66.558   4.017  1.00  0.00     0.225 C 
HETATM    2  O2  UNL     1       7.270  67.619   4.571  1.00  0.00    -0.273 OA
HETATM    3  N3  UNL     1       6.899  65.371   4.246  1.00  0.00    -0.361 N 
ATOM      4  H3  UNL     1       7.200  64.523   3.767  1.00  0.00     0.162 HD
ENDROOT
BRANCH   3   5
HETATM    5  C10 UNL     1       5.763  65.292   5.116  1.00  0.00     0.125 C 
BRANCH   5   6
HETATM    6  C11 UNL     1       4.561  64.799   4.360  1.00  0.00     0.052 C 
BRANCH   6   7
HETATM    7  C12 UNL     1       4.435  63.276   4.348  1.00  0.00     0.132 C 
HETATM    8  C13 UNL     1       3.754  62.766   3.134  1.00  0.00     0.108 C 
HETATM    9  C14 UNL     1       4.663  62.886   1.936  1.00  0.00     0.088 A 
HETATM   10  N4  UNL     1       4.513  63.272   0.669  1.00  0.00    -0.339 N 
HETATM   11  N5  UNL     1       5.939  62.543   2.221  1.00  0.00    -0.317 N 
HETATM   12  C15 UNL     1       5.722  63.191   0.068  1.00  0.00     0.096 A 
ATOM     13  H4  UNL     1       3.643  63.574   0.230  1.00  0.00     0.168 HD
HETATM   14 BR1  UNL     1       6.162  63.608  -1.745  1.00  0.00    -0.030 Br
HETATM   15  C16 UNL     1       6.578  62.747   1.027  1.00  0.00     0.132 A 
HETATM   16  C17 UNL     1       6.313  62.113   3.519  1.00  0.00     0.229 C 
HETATM   17  O3  UNL     1       5.701  62.796   4.563  1.00  0.00    -0.360 OA
BRANCH  16  18
HETATM   18  C18 UNL     1       6.260  60.680   3.852  1.00  0.00     0.062 C 
BRANCH  18  19
HETATM   19  C19 UNL     1       6.844  59.669   2.959  1.00  0.00    -0.047 C 
HETATM   20  C20 UNL     1       8.231  59.973   2.451  1.00  0.00     0.014 C 
HETATM   21  C21 UNL     1       7.065  58.381   3.822  1.00  0.00     0.014 C 
HETATM   22  C22 UNL     1       5.952  59.225   1.843  1.00  0.00     0.014 C 
ENDBRANCH  18  19
ENDBRANCH  16  18
ENDBRANCH   6   7
ENDBRANCH   5   6
ENDBRANCH   3   5
BRANCH   1  23
HETATM   23  C8  UNL     1       8.817  66.593   3.116  1.00  0.00     0.126 C 
HETATM   24  C4  UNL     1      10.034  66.933   3.896  1.00  0.00     0.102 C 
HETATM   25  C5  UNL     1      10.608  68.295   3.678  1.00  0.00     0.054 C 
HETATM   26  C6  UNL     1       9.997  69.116   2.606  1.00  0.00     0.234 C 
HETATM   27  N2  UNL     1       8.581  68.856   2.413  1.00  0.00    -0.074 N 
HETATM   28  C7  UNL     1       8.496  67.479   1.957  1.00  0.00     0.248 C 
ATOM     29  H22 UNL     1       8.013  69.051   3.238  1.00  0.00     0.277 HD
ATOM     30  H21 UNL     1       8.123  69.522   1.791  1.00  0.00     0.277 HD
BRANCH  24  31
HETATM   31  N1  UNL     1      11.093  65.890   3.736  1.00  0.00    -0.360 N 
HETATM   32  C1  UNL     1      12.343  66.074   4.441  1.00  0.00     0.152 C 
BRANCH  31  33
HETATM   33  C2  UNL     1      10.876  64.776   2.919  1.00  0.00     0.149 C 
HETATM   34  C3  UNL     1      11.327  64.503   1.574  1.00  0.00     0.140 C 
HETATM   35 CL1  UNL     1      12.179  65.768   0.714  1.00  0.00    -0.092 Cl
BRANCH  33  36
HETATM   36  O1  UNL     1      10.152  63.840   3.461  1.00  0.00    -0.346 OA
ATOM     37  H1  UNL     1       9.488  63.473   2.889  1.00  0.00     0.219 HD
ENDBRANCH  33  36
ENDBRANCH  31  33
ENDBRANCH  24  31
ENDBRANCH   1  23
TORSDOF 9
ENDMDL
MODEL 5
REMARK VINA RESULT: -7.839404578      2.094      3.203
REMARK  9 active torsions:
REMARK  status: ('A' for Active; 'I' for Inactive)
REMARK    1  A    between atoms: N1_2  and  C2_3 
REMARK    2  A    between atoms: N1_2  and  C4_8 
REMARK    3  A    between atoms: C2_3  and  O1_4 
REMARK    4  A    between atoms: C8_15  and  C9_16 
REMARK       I    between atoms: C9_16  and  N3_18 
REMARK    5  A    between atoms: N3_18  and  C10_20 
REMARK    6  A    between atoms: C10_20  and  C11_21 
REMARK    7  A    between atoms: C11_21  and  C12_22 
REMARK    8  A    between atoms: C17_31  and  C18_32 
REMARK    9  A    between atoms: C18_32  and  C19_33 
ROOT
HETATM    1  C9  UNL     1       8.697  66.549   2.357  1.00  0.00     0.225 C 
HETATM    2  O2  UNL     1       8.148  67.629   2.654  1.00  0.00    -0.273 OA
HETATM    3  N3  UNL     1       7.924  65.380   2.221  1.00  0.00    -0.361 N 
ATOM      4  H3  UNL     1       8.398  64.515   1.962  1.00  0.00     0.162 HD
ENDROOT
BRANCH   3   5
HETATM    5  C10 UNL     1       6.506  65.341   2.426  1.00  0.00     0.125 C 
BRANCH   5   6
HETATM    6  C11 UNL     1       6.191  65.398   3.896  1.00  0.00     0.052 C 
BRANCH   6   7
HETATM    7  C12 UNL     1       6.340  64.050   4.600  1.00  0.00     0.132 C 
HETATM    8  C13 UNL     1       5.126  63.663   5.359  1.00  0.00     0.108 C 
HETATM    9  C14 UNL     1       4.025  63.257   4.413  1.00  0.00     0.088 A 
HETATM   10  N4  UNL     1       2.713  63.483   4.333  1.00  0.00    -0.339 N 
HETATM   11  N5  UNL     1       4.479  62.504   3.386  1.00  0.00    -0.317 N 
HETATM   12  C15 UNL     1       2.256  62.866   3.220  1.00  0.00     0.096 A 
ATOM     13  H4  UNL     1       2.155  64.023   4.994  1.00  0.00     0.168 HD
HETATM   14 BR1  UNL     1       0.464  62.819   2.557  1.00  0.00    -0.030 Br
HETATM   15  C16 UNL     1       3.343  62.277   2.655  1.00  0.00     0.132 A 
HETATM   16  C17 UNL     1       5.849  62.159   3.278  1.00  0.00     0.229 C 
HETATM   17  O3  UNL     1       6.740  63.166   3.632  1.00  0.00    -0.360 OA
BRANCH  16  18
HETATM   18  C18 UNL     1       6.336  60.916   3.898  1.00  0.00     0.062 C 
BRANCH  18  19
HETATM   19  C19 UNL     1       6.922  59.839   3.088  1.00  0.00    -0.047 C 
HETATM   20  C20 UNL     1       7.089  58.514   3.789  1.00  0.00     0.014 C 
HETATM   21  C21 UNL     1       5.886  59.508   1.962  1.00  0.00     0.014 C 
HETATM   22  C22 UNL     1       8.170  60.213   2.353  1.00  0.00     0.014 C 
ENDBRANCH  18  19
ENDBRANCH  16  18
ENDBRANCH   6   7
ENDBRANCH   5   6
ENDBRANCH   3   5
BRANCH   1  23
HETATM   23  C8  UNL     1      10.181  66.542   2.155  1.00  0.00     0.126 C 
HETATM   24  C4  UNL     1      10.691  65.147   2.162  1.00  0.00     0.102 C 
HETATM   25  C5  UNL     1      11.479  64.730   3.360  1.00  0.00     0.054 C 
HETATM   26  C6  UNL     1      11.797  65.784   4.353  1.00  0.00     0.234 C 
HETATM   27  N2  UNL     1      10.784  66.820   4.441  1.00  0.00    -0.074 N 
HETATM   28  C7  UNL     1      10.786  67.480   3.147  1.00  0.00     0.248 C 
ATOM     29  H22 UNL     1       9.867  66.474   4.723  1.00  0.00     0.277 HD
ATOM     30  H21 UNL     1      10.918  67.458   5.226  1.00  0.00     0.277 HD
BRANCH  24  31
HETATM   31  N1  UNL     1      11.445  64.837   0.908  1.00  0.00    -0.360 N 
HETATM   32  C1  UNL     1      12.564  65.685   0.559  1.00  0.00     0.152 C 
BRANCH  31  33
HETATM   33  C2  UNL     1      11.067  63.762   0.098  1.00  0.00     0.149 C 
HETATM   34  C3  UNL     1      10.074  63.685  -0.948  1.00  0.00     0.140 C 
HETATM   35 CL1  UNL     1       9.052  65.081  -1.223  1.00  0.00    -0.092 Cl
BRANCH  33  36
HETATM   36  O1  UNL     1      11.715  62.656   0.329  1.00  0.00    -0.346 OA
ATOM     37  H1  UNL     1      12.277  62.373  -0.383  1.00  0.00     0.219 HD
ENDBRANCH  33  36
ENDBRANCH  31  33
ENDBRANCH  24  31
ENDBRANCH   1  23
TORSDOF 9
ENDMDL
