MODEL 1
REMARK VINA RESULT: -8.128020014      0.000      0.000
REMARK  10 active torsions:
REMARK  status: ('A' for Active; 'I' for Inactive)
REMARK    1  A    between atoms: C3_3  and  C4_4 
REMARK    2  A    between atoms: C4_4  and  N1_5 
REMARK    3  A    between atoms: C6_8  and  C7_9 
REMARK    4  A    between atoms: C7_9  and  N2_10 
REMARK    5  A    between atoms: N2_10  and  C9_12 
REMARK    6  A    between atoms: C9_12  and  C10_13 
REMARK    7  A    between atoms: C10_13  and  N3_14 
REMARK    8  A    between atoms: C18_24  and  C19_25 
REMARK    9  A    between atoms: C19_25  and  O4_26 
REMARK   10  A    between atoms: C22_31  and  O5_32 
ROOT
HETATM    1  N1  UNL     1       6.988  62.758   1.366  1.00  0.00    -0.336 N 
HETATM    2  C5  UNL     1       8.303  63.288   1.070  1.00  0.00     0.261 C 
HETATM    3  O1  UNL     1       8.852  62.874   0.057  1.00  0.00    -0.269 OA
HETATM    4  C6  UNL     1       9.066  64.316   1.906  1.00  0.00     0.175 C 
HETATM    5  C13 UNL     1       9.009  65.561   1.157  1.00  0.00     0.080 C 
HETATM    6  C14 UNL     1       8.893  66.839   1.884  1.00  0.00     0.171 C 
HETATM    7  O2  UNL     1       8.676  66.681   3.252  1.00  0.00    -0.391 OA
HETATM    8  C15 UNL     1       7.367  66.880   3.615  1.00  0.00     0.170 C 
HETATM    9  C16 UNL     1       6.549  65.568   3.729  1.00  0.00     0.060 C 
HETATM   10  C17 UNL     1       6.991  64.676   2.663  1.00  0.00     0.150 C 
HETATM   11  O3  UNL     1       8.236  64.179   3.044  1.00  0.00    -0.357 OA
HETATM   12  C18 UNL     1       6.172  63.433   2.344  1.00  0.00     0.140 C 
ENDROOT
BRANCH   1  13
HETATM   13  C4  UNL     1       6.687  61.512   0.706  1.00  0.00     0.165 C 
BRANCH  13  14
HETATM   14  C3  UNL     1       6.126  60.412   1.487  1.00  0.00    -0.031 A 
HETATM   15  C2  UNL     1       6.749  59.538   2.312  1.00  0.00    -0.029 A 
HETATM   16  C1  UNL     1       8.015  60.097   2.957  1.00  0.00     0.050 C 
HETATM   17  C23 UNL     1       6.290  58.311   2.657  1.00  0.00     0.075 A 
HETATM   18  C22 UNL     1       5.133  57.855   2.167  1.00  0.00     0.105 A 
HETATM   19 CL1  UNL     1       7.217  57.315   3.803  1.00  0.00    -0.081 Cl
HETATM   20  C21 UNL     1       4.391  58.667   1.311  1.00  0.00     0.046 A 
HETATM   21  C20 UNL     1       4.854  59.933   0.968  1.00  0.00     0.031 A 
HETATM   22 BR1  UNL     1       2.741  57.997   0.600  1.00  0.00    -0.048 Br
BRANCH  18  23
HETATM   23  O5  UNL     1       4.625  56.551   2.491  1.00  0.00    -0.358 OA
ATOM     24  H5  UNL     1       5.056  56.051   3.173  1.00  0.00     0.217 HD
ENDBRANCH  18  23
ENDBRANCH  13  14
ENDBRANCH   1  13
BRANCH  12  25
HETATM   25  C19 UNL     1       4.845  63.840   1.836  1.00  0.00     0.192 C 
BRANCH  25  26
HETATM   26  O4  UNL     1       3.868  63.115   2.539  1.00  0.00    -0.399 OA
ATOM     27  H4  UNL     1       3.693  63.569   3.354  1.00  0.00     0.209 HD
ENDBRANCH  25  26
ENDBRANCH  12  25
BRANCH   4  28
HETATM   28  C7  UNL     1      10.426  63.776   2.260  1.00  0.00     0.110 C 
BRANCH  28  29
HETATM   29  N2  UNL     1      11.583  64.430   1.878  1.00  0.00    -0.370 N 
HETATM   30  C8  UNL     1      12.285  63.889   0.754  1.00  0.00     0.154 C 
BRANCH  29  31
HETATM   31  C9  UNL     1      12.263  65.404   2.574  1.00  0.00     0.101 C 
BRANCH  31  32
HETATM   32  C10 UNL     1      13.580  64.912   3.166  1.00  0.00     0.076 C 
BRANCH  32  33
HETATM   33  N3  UNL     1      13.696  64.706   4.525  1.00  0.00    -0.300 NA
HETATM   34  C11 UNL     1      15.046  64.609   5.029  1.00  0.00     0.115 C 
HETATM   35  C12 UNL     1      12.988  65.708   5.259  1.00  0.00     0.115 C 
ENDBRANCH  32  33
ENDBRANCH  31  32
ENDBRANCH  29  31
ENDBRANCH  28  29
ENDBRANCH   4  28
TORSDOF 10
ENDMDL
MODEL 2
REMARK VINA RESULT: -7.518277142      1.332      1.636
REMARK  10 active torsions:
REMARK  status: ('A' for Active; 'I' for Inactive)
REMARK    1  A    between atoms: C3_3  and  C4_4 
REMARK    2  A    between atoms: C4_4  and  N1_5 
REMARK    3  A    between atoms: C6_8  and  C7_9 
REMARK    4  A    between atoms: C7_9  and  N2_10 
REMARK    5  A    between atoms: N2_10  and  C9_12 
REMARK    6  A    between atoms: C9_12  and  C10_13 
REMARK    7  A    between atoms: C10_13  and  N3_14 
REMARK    8  A    between atoms: C18_24  and  C19_25 
REMARK    9  A    between atoms: C19_25  and  O4_26 
REMARK   10  A    between atoms: C22_31  and  O5_32 
ROOT
HETATM    1  N1  UNL     1       7.373  62.228   2.398  1.00  0.00    -0.336 N 
HETATM    2  C5  UNL     1       7.932  63.104   1.389  1.00  0.00     0.261 C 
HETATM    3  O1  UNL     1       8.158  62.611   0.291  1.00  0.00    -0.269 OA
HETATM    4  C6  UNL     1       8.265  64.586   1.569  1.00  0.00     0.175 C 
HETATM    5  C13 UNL     1       7.243  65.316   0.838  1.00  0.00     0.080 C 
HETATM    6  C14 UNL     1       6.749  66.600   1.371  1.00  0.00     0.171 C 
HETATM    7  O2  UNL     1       7.222  66.888   2.650  1.00  0.00    -0.391 OA
HETATM    8  C15 UNL     1       6.295  66.645   3.634  1.00  0.00     0.170 C 
HETATM    9  C16 UNL     1       6.457  65.258   4.309  1.00  0.00     0.060 C 
HETATM   10  C17 UNL     1       6.844  64.305   3.276  1.00  0.00     0.150 C 
HETATM   11  O3  UNL     1       8.184  64.552   2.982  1.00  0.00    -0.357 OA
HETATM   12  C18 UNL     1       6.795  62.814   3.581  1.00  0.00     0.140 C 
ENDROOT
BRANCH   1  13
HETATM   13  C4  UNL     1       7.571  60.823   2.141  1.00  0.00     0.165 C 
BRANCH  13  14
HETATM   14  C3  UNL     1       6.408  59.940   2.090  1.00  0.00    -0.031 A 
HETATM   15  C2  UNL     1       6.238  58.712   2.631  1.00  0.00    -0.029 A 
HETATM   16  C1  UNL     1       7.072  58.471   3.887  1.00  0.00     0.050 C 
HETATM   17  C23 UNL     1       5.352  57.777   2.209  1.00  0.00     0.075 A 
HETATM   18  C22 UNL     1       4.553  58.020   1.166  1.00  0.00     0.105 A 
HETATM   19 CL1  UNL     1       5.224  56.230   3.078  1.00  0.00    -0.081 Cl
HETATM   20  C21 UNL     1       4.626  59.257   0.527  1.00  0.00     0.046 A 
HETATM   21  C20 UNL     1       5.525  60.222   0.968  1.00  0.00     0.031 A 
HETATM   22 BR1  UNL     1       3.488  59.588  -0.980  1.00  0.00    -0.048 Br
BRANCH  18  23
HETATM   23  O5  UNL     1       3.618  57.047   0.675  1.00  0.00    -0.358 OA
ATOM     24  H5  UNL     1       3.676  56.778  -0.234  1.00  0.00     0.217 HD
ENDBRANCH  18  23
ENDBRANCH  13  14
ENDBRANCH   1  13
BRANCH  12  25
HETATM   25  C19 UNL     1       5.394  62.412   3.823  1.00  0.00     0.192 C 
BRANCH  25  26
HETATM   26  O4  UNL     1       4.600  62.957   2.800  1.00  0.00    -0.399 OA
ATOM     27  H4  UNL     1       3.738  63.132   3.157  1.00  0.00     0.209 HD
ENDBRANCH  25  26
ENDBRANCH  12  25
BRANCH   4  28
HETATM   28  C7  UNL     1       9.702  64.834   1.197  1.00  0.00     0.110 C 
BRANCH  28  29
HETATM   29  N2  UNL     1      10.631  65.238   2.139  1.00  0.00    -0.370 N 
HETATM   30  C8  UNL     1      10.767  66.649   2.342  1.00  0.00     0.154 C 
BRANCH  29  31
HETATM   31  C9  UNL     1      11.595  64.467   2.748  1.00  0.00     0.101 C 
BRANCH  31  32
HETATM   32  C10 UNL     1      13.017  64.912   2.422  1.00  0.00     0.076 C 
BRANCH  32  33
HETATM   33  N3  UNL     1      13.892  65.241   3.436  1.00  0.00    -0.300 NA
HETATM   34  C11 UNL     1      13.305  65.360   4.751  1.00  0.00     0.115 C 
HETATM   35  C12 UNL     1      14.987  64.322   3.489  1.00  0.00     0.115 C 
ENDBRANCH  32  33
ENDBRANCH  31  32
ENDBRANCH  29  31
ENDBRANCH  28  29
ENDBRANCH   4  28
TORSDOF 10
ENDMDL
MODEL 3
REMARK VINA RESULT: -7.397447240      1.041      1.381
REMARK  10 active torsions:
REMARK  status: ('A' for Active; 'I' for Inactive)
REMARK    1  A    between atoms: C3_3  and  C4_4 
REMARK    2  A    between atoms: C4_4  and  N1_5 
REMARK    3  A    between atoms: C6_8  and  C7_9 
REMARK    4  A    between atoms: C7_9  and  N2_10 
REMARK    5  A    between atoms: N2_10  and  C9_12 
REMARK    6  A    between atoms: C9_12  and  C10_13 
REMARK    7  A    between atoms: C10_13  and  N3_14 
REMARK    8  A    between atoms: C18_24  and  C19_25 
REMARK    9  A    between atoms: C19_25  and  O4_26 
REMARK   10  A    between atoms: C22_31  and  O5_32 
ROOT
HETATM    1  N1  UNL     1       6.404  62.702   1.711  1.00  0.00    -0.336 N 
HETATM    2  C5  UNL     1       7.215  63.684   1.019  1.00  0.00     0.261 C 
HETATM    3  O1  UNL     1       7.381  63.517  -0.182  1.00  0.00    -0.269 OA
HETATM    4  C6  UNL     1       7.881  64.905   1.653  1.00  0.00     0.175 C 
HETATM    5  C13 UNL     1       7.108  66.055   1.211  1.00  0.00     0.080 C 
HETATM    6  C14 UNL     1       6.905  67.188   2.133  1.00  0.00     0.171 C 
HETATM    7  O2  UNL     1       7.357  66.938   3.427  1.00  0.00    -0.391 OA
HETATM    8  C15 UNL     1       6.341  66.636   4.302  1.00  0.00     0.170 C 
HETATM    9  C16 UNL     1       6.127  65.113   4.500  1.00  0.00     0.060 C 
HETATM   10  C17 UNL     1       6.336  64.465   3.211  1.00  0.00     0.150 C 
HETATM   11  O3  UNL     1       7.711  64.454   2.983  1.00  0.00    -0.357 OA
HETATM   12  C18 UNL     1       5.913  63.014   3.030  1.00  0.00     0.140 C 
ENDROOT
BRANCH   1  13
HETATM   13  C4  UNL     1       6.274  61.444   1.019  1.00  0.00     0.165 C 
BRANCH  13  14
HETATM   14  C3  UNL     1       5.879  60.256   1.772  1.00  0.00    -0.031 A 
HETATM   15  C2  UNL     1       6.644  59.394   2.481  1.00  0.00    -0.029 A 
HETATM   16  C1  UNL     1       7.915  60.022   3.048  1.00  0.00     0.050 C 
HETATM   17  C23 UNL     1       6.320  58.113   2.783  1.00  0.00     0.075 A 
HETATM   18  C22 UNL     1       5.164  57.588   2.367  1.00  0.00     0.105 A 
HETATM   19 CL1  UNL     1       7.426  57.137   3.777  1.00  0.00    -0.081 Cl
HETATM   20  C21 UNL     1       4.283  58.381   1.633  1.00  0.00     0.046 A 
HETATM   21  C20 UNL     1       4.608  59.699   1.334  1.00  0.00     0.031 A 
HETATM   22 BR1  UNL     1       2.635  57.611   1.025  1.00  0.00    -0.048 Br
BRANCH  18  23
HETATM   23  O5  UNL     1       4.796  56.228   2.647  1.00  0.00    -0.358 OA
ATOM     24  H5  UNL     1       5.484  55.595   2.811  1.00  0.00     0.217 HD
ENDBRANCH  18  23
ENDBRANCH  13  14
ENDBRANCH   1  13
BRANCH  12  25
HETATM   25  C19 UNL     1       4.444  62.913   3.159  1.00  0.00     0.192 C 
BRANCH  25  26
HETATM   26  O4  UNL     1       3.862  63.689   2.143  1.00  0.00    -0.399 OA
ATOM     27  H4  UNL     1       2.931  63.504   2.128  1.00  0.00     0.209 HD
ENDBRANCH  25  26
ENDBRANCH  12  25
BRANCH   4  28
HETATM   28  C7  UNL     1       9.355  64.897   1.350  1.00  0.00     0.110 C 
BRANCH  28  29
HETATM   29  N2  UNL     1      10.286  65.319   2.282  1.00  0.00    -0.370 N 
HETATM   30  C8  UNL     1      10.512  66.730   2.369  1.00  0.00     0.154 C 
BRANCH  29  31
HETATM   31  C9  UNL     1      11.179  64.543   2.985  1.00  0.00     0.101 C 
BRANCH  31  32
HETATM   32  C10 UNL     1      12.622  64.718   2.522  1.00  0.00     0.076 C 
BRANCH  32  33
HETATM   33  N3  UNL     1      13.568  65.237   3.381  1.00  0.00    -0.300 NA
HETATM   34  C11 UNL     1      13.107  65.516   4.722  1.00  0.00     0.115 C 
HETATM   35  C12 UNL     1      14.723  64.395   3.444  1.00  0.00     0.115 C 
ENDBRANCH  32  33
ENDBRANCH  31  32
ENDBRANCH  29  31
ENDBRANCH  28  29
ENDBRANCH   4  28
TORSDOF 10
ENDMDL
MODEL 4
REMARK VINA RESULT: -7.359338932      1.553      1.794
REMARK  10 active torsions:
REMARK  status: ('A' for Active; 'I' for Inactive)
REMARK    1  A    between atoms: C3_3  and  C4_4 
REMARK    2  A    between atoms: C4_4  and  N1_5 
REMARK    3  A    between atoms: C6_8  and  C7_9 
REMARK    4  A    between atoms: C7_9  and  N2_10 
REMARK    5  A    between atoms: N2_10  and  C9_12 
REMARK    6  A    between atoms: C9_12  and  C10_13 
REMARK    7  A    between atoms: C10_13  and  N3_14 
REMARK    8  A    between atoms: C18_24  and  C19_25 
REMARK    9  A    between atoms: C19_25  and  O4_26 
REMARK   10  A    between atoms: C22_31  and  O5_32 
ROOT
HETATM    1  N1  UNL     1       7.210  62.522   3.366  1.00  0.00    -0.336 N 
HETATM    2  C5  UNL     1       8.202  62.534   2.309  1.00  0.00     0.261 C 
HETATM    3  O1  UNL     1       8.460  61.460   1.781  1.00  0.00    -0.269 OA
HETATM    4  C6  UNL     1       8.954  63.763   1.796  1.00  0.00     0.175 C 
HETATM    5  C13 UNL     1       8.379  64.067   0.496  1.00  0.00     0.080 C 
HETATM    6  C14 UNL     1       8.234  65.475   0.081  1.00  0.00     0.171 C 
HETATM    7  O2  UNL     1       8.524  66.385   1.096  1.00  0.00    -0.391 OA
HETATM    8  C15 UNL     1       7.399  66.917   1.678  1.00  0.00     0.170 C 
HETATM    9  C16 UNL     1       6.974  66.192   2.982  1.00  0.00     0.060 C 
HETATM   10  C17 UNL     1       7.222  64.768   2.797  1.00  0.00     0.150 C 
HETATM   11  O3  UNL     1       8.600  64.582   2.895  1.00  0.00    -0.357 OA
HETATM   12  C18 UNL     1       6.639  63.775   3.793  1.00  0.00     0.140 C 
ENDROOT
BRANCH   1  13
HETATM   13  C4  UNL     1       6.989  61.228   3.960  1.00  0.00     0.165 C 
BRANCH  13  14
HETATM   14  C3  UNL     1       6.049  60.306   3.325  1.00  0.00    -0.031 A 
HETATM   15  C2  UNL     1       6.184  58.985   3.066  1.00  0.00    -0.029 A 
HETATM   16  C1  UNL     1       7.116  58.260   4.035  1.00  0.00     0.050 C 
HETATM   17  C23 UNL     1       5.506  58.291   2.120  1.00  0.00     0.075 A 
HETATM   18  C22 UNL     1       4.619  58.905   1.332  1.00  0.00     0.105 A 
HETATM   19 CL1  UNL     1       5.770  56.539   1.956  1.00  0.00    -0.081 Cl
HETATM   20  C21 UNL     1       4.383  60.267   1.507  1.00  0.00     0.046 A 
HETATM   21  C20 UNL     1       5.068  60.978   2.486  1.00  0.00     0.031 A 
HETATM   22 BR1  UNL     1       3.122  61.142   0.357  1.00  0.00    -0.048 Br
BRANCH  18  23
HETATM   23  O5  UNL     1       3.898  58.208   0.303  1.00  0.00    -0.358 OA
ATOM     24  H5  UNL     1       3.691  57.291   0.434  1.00  0.00     0.217 HD
ENDBRANCH  18  23
ENDBRANCH  13  14
ENDBRANCH   1  13
BRANCH  12  25
HETATM   25  C19 UNL     1       5.163  63.815   3.714  1.00  0.00     0.192 C 
BRANCH  25  26
HETATM   26  O4  UNL     1       4.652  63.645   5.012  1.00  0.00    -0.399 OA
ATOM     27  H4  UNL     1       4.096  62.876   5.011  1.00  0.00     0.209 HD
ENDBRANCH  25  26
ENDBRANCH  12  25
BRANCH   4  28
HETATM   28  C7  UNL     1      10.437  63.517   1.864  1.00  0.00     0.110 C 
BRANCH  28  29
HETATM   29  N2  UNL     1      11.344  64.439   1.373  1.00  0.00    -0.370 N 
HETATM   30  C8  UNL     1      11.944  64.138   0.108  1.00  0.00     0.154 C 
BRANCH  29  31
HETATM   31  C9  UNL     1      11.905  65.502   2.044  1.00  0.00     0.101 C 
BRANCH  31  32
HETATM   32  C10 UNL     1      11.874  65.340   3.561  1.00  0.00     0.076 C 
BRANCH  32  33
HETATM   33  N3  UNL     1      12.979  64.856   4.230  1.00  0.00    -0.300 NA
HETATM   34  C11 UNL     1      14.182  64.733   3.439  1.00  0.00     0.115 C 
HETATM   35  C12 UNL     1      13.257  65.638   5.395  1.00  0.00     0.115 C 
ENDBRANCH  32  33
ENDBRANCH  31  32
ENDBRANCH  29  31
ENDBRANCH  28  29
ENDBRANCH   4  28
TORSDOF 10
ENDMDL
MODEL 5
REMARK VINA RESULT: -7.323302298      1.163      2.382
REMARK  10 active torsions:
REMARK  status: ('A' for Active; 'I' for Inactive)
REMARK    1  A    between atoms: C3_3  and  C4_4 
REMARK    2  A    between atoms: C4_4  and  N1_5 
REMARK    3  A    between atoms: C6_8  and  C7_9 
REMARK    4  A    between atoms: C7_9  and  N2_10 
REMARK    5  A    between atoms: N2_10  and  C9_12 
REMARK    6  A    between atoms: C9_12  and  C10_13 
REMARK    7  A    between atoms: C10_13  and  N3_14 
REMARK    8  A    between atoms: C18_24  and  C19_25 
REMARK    9  A    between atoms: C19_25  and  O4_26 
REMARK   10  A    between atoms: C22_31  and  O5_32 
ROOT
HETATM    1  N1  UNL     1       6.651  62.531   1.494  1.00  0.00    -0.336 N 
HETATM    2  C5  UNL     1       7.938  63.104   1.155  1.00  0.00     0.261 C 
HETATM    3  O1  UNL     1       8.468  62.706   0.125  1.00  0.00    -0.269 OA
HETATM    4  C6  UNL     1       8.695  64.157   1.966  1.00  0.00     0.175 C 
HETATM    5  C13 UNL     1       8.574  65.398   1.218  1.00  0.00     0.080 C 
HETATM    6  C14 UNL     1       8.440  66.672   1.949  1.00  0.00     0.171 C 
HETATM    7  O2  UNL     1       8.273  66.510   3.323  1.00  0.00    -0.391 OA
HETATM    8  C15 UNL     1       6.970  66.667   3.728  1.00  0.00     0.170 C 
HETATM    9  C16 UNL     1       6.199  65.329   3.869  1.00  0.00     0.060 C 
HETATM   10  C17 UNL     1       6.635  64.451   2.790  1.00  0.00     0.150 C 
HETATM   11  O3  UNL     1       7.907  63.995   3.130  1.00  0.00    -0.357 OA
HETATM   12  C18 UNL     1       5.847  63.181   2.498  1.00  0.00     0.140 C 
ENDROOT
BRANCH   1  13
HETATM   13  C4  UNL     1       6.370  61.275   0.845  1.00  0.00     0.165 C 
BRANCH  13  14
HETATM   14  C3  UNL     1       5.921  60.143   1.653  1.00  0.00    -0.031 A 
HETATM   15  C2  UNL     1       6.644  59.291   2.415  1.00  0.00    -0.029 A 
HETATM   16  C1  UNL     1       7.931  59.899   2.966  1.00  0.00     0.050 C 
HETATM   17  C23 UNL     1       6.268  58.041   2.778  1.00  0.00     0.075 A 
HETATM   18  C22 UNL     1       5.098  57.538   2.373  1.00  0.00     0.105 A 
HETATM   19 CL1  UNL     1       7.325  57.076   3.835  1.00  0.00    -0.081 Cl
HETATM   20  C21 UNL     1       4.256  58.324   1.589  1.00  0.00     0.046 A 
HETATM   21  C20 UNL     1       4.634  59.613   1.227  1.00  0.00     0.031 A 
HETATM   22 BR1  UNL     1       2.587  57.587   0.998  1.00  0.00    -0.048 Br
BRANCH  18  23
HETATM   23  O5  UNL     1       4.675  56.210   2.718  1.00  0.00    -0.358 OA
ATOM     24  H5  UNL     1       5.181  55.473   2.397  1.00  0.00     0.217 HD
ENDBRANCH  18  23
ENDBRANCH  13  14
ENDBRANCH   1  13
BRANCH  12  25
HETATM   25  C19 UNL     1       4.491  63.544   2.034  1.00  0.00     0.192 C 
BRANCH  25  26
HETATM   26  O4  UNL     1       3.562  62.781   2.760  1.00  0.00    -0.399 OA
ATOM     27  H4  UNL     1       2.817  63.336   2.961  1.00  0.00     0.209 HD
ENDBRANCH  25  26
ENDBRANCH  12  25
BRANCH   4  28
HETATM   28  C7  UNL     1      10.082  63.661   2.276  1.00  0.00     0.110 C 
BRANCH  28  29
HETATM   29  N2  UNL     1      11.183  64.494   2.182  1.00  0.00    -0.370 N 
HETATM   30  C8  UNL     1      11.535  65.227   3.360  1.00  0.00     0.154 C 
BRANCH  29  31
HETATM   31  C9  UNL     1      11.850  64.873   1.040  1.00  0.00     0.101 C 
BRANCH  31  32
HETATM   32  C10 UNL     1      11.786  63.828  -0.070  1.00  0.00     0.076 C 
BRANCH  32  33
HETATM   33  N3  UNL     1      11.789  64.219  -1.393  1.00  0.00    -0.300 NA
HETATM   34  C11 UNL     1      10.503  64.587  -1.938  1.00  0.00     0.115 C 
HETATM   35  C12 UNL     1      12.717  65.286  -1.611  1.00  0.00     0.115 C 
ENDBRANCH  32  33
ENDBRANCH  31  32
ENDBRANCH  29  31
ENDBRANCH  28  29
ENDBRANCH   4  28
TORSDOF 10
ENDMDL
