MODEL 1
REMARK VINA RESULT: -8.169163637      0.000      0.000
REMARK  15 active torsions:
REMARK  status: ('A' for Active; 'I' for Inactive)
REMARK    1  A    between atoms: C2_2  and  N1_5 
REMARK    2  A    between atoms: N1_5  and  C5_6 
REMARK    3  A    between atoms: C5_6  and  C6_7 
REMARK    4  A    between atoms: C5_6  and  N5_18 
REMARK    5  A    between atoms: C6_7  and  C7_8 
REMARK    6  A    between atoms: C7_8  and  C8_9 
REMARK    7  A    between atoms: C8_9  and  C9_10 
REMARK       I    between atoms: N2_11  and  C10_13 
REMARK    8  A    between atoms: C12_25  and  C13_26 
REMARK    9  A    between atoms: C13_26  and  C14_27 
REMARK   10  A    between atoms: C15_30  and  C16_31 
REMARK       I    between atoms: C16_31  and  N9_33 
REMARK   11  A    between atoms: N9_33  and  C17_35 
REMARK   12  A    between atoms: C17_35  and  C18_36 
REMARK   13  A    between atoms: C18_36  and  C19_37 
REMARK   14  A    between atoms: C19_37  and  C20_38 
REMARK   15  A    between atoms: C20_38  and  N10_39 
REMARK       I    between atoms: N10_39  and  C21_41 
ROOT
HETATM    1  N5  UNL     1      -7.912  24.836 -13.482  1.00  0.00    -0.314 N 
ATOM      2  H5  UNL     1      -7.930  25.726 -13.981  1.00  0.00     0.170 HD
HETATM    3  C11 UNL     1      -8.638  24.727 -12.418  1.00  0.00     0.167 A 
HETATM    4  N6  UNL     1      -8.809  23.703 -11.578  1.00  0.00    -0.279 N 
ATOM      5  H6  UNL     1      -8.316  22.823 -11.730  1.00  0.00     0.189 HD
HETATM    6  N7  UNL     1      -9.591  23.838 -10.590  1.00  0.00    -0.295 N 
ATOM      7  H7  UNL     1      -9.725  23.060  -9.944  1.00  0.00     0.187 HD
HETATM    8  C12 UNL     1     -10.234  24.974 -10.387  1.00  0.00     0.076 A 
HETATM    9  S1  UNL     1      -9.680  25.912 -11.700  1.00  0.00    -0.037 SA
ENDROOT
BRANCH   8  10
HETATM   10  C13 UNL     1     -11.194  25.329  -9.276  1.00  0.00     0.144 C 
BRANCH  10  11
HETATM   11  C14 UNL     1     -10.650  24.745  -8.002  1.00  0.00     0.103 A 
HETATM   12  N8  UNL     1      -9.416  24.792  -7.493  1.00  0.00    -0.325 N 
HETATM   13  C15 UNL     1      -9.404  24.121  -6.328  1.00  0.00     0.190 A 
ATOM     14  H8  UNL     1      -8.615  25.260  -7.917  1.00  0.00     0.169 HD
HETATM   15  N13 UNL     1     -10.659  23.646  -6.112  1.00  0.00    -0.280 N 
HETATM   16  N14 UNL     1     -11.391  24.032  -7.128  1.00  0.00    -0.287 N 
ATOM     17  H13 UNL     1     -10.971  23.095  -5.312  1.00  0.00     0.189 HD
ATOM     18  H14 UNL     1     -12.383  23.822  -7.244  1.00  0.00     0.188 HD
BRANCH  13  19
HETATM   19  C16 UNL     1      -8.253  23.940  -5.448  1.00  0.00     0.287 C 
HETATM   20  O1  UNL     1      -7.893  22.769  -5.183  1.00  0.00    -0.264 OA
HETATM   21  N9  UNL     1      -7.589  25.064  -4.929  1.00  0.00    -0.354 N 
ATOM     22  H9  UNL     1      -7.888  26.013  -5.151  1.00  0.00     0.162 HD
BRANCH  21  23
HETATM   23  C17 UNL     1      -6.435  24.802  -4.045  1.00  0.00     0.123 C 
BRANCH  23  24
HETATM   24  C18 UNL     1      -5.303  25.754  -4.342  1.00  0.00     0.021 C 
BRANCH  24  25
HETATM   25  C19 UNL     1      -4.736  25.450  -5.695  1.00  0.00     0.021 C 
BRANCH  25  26
HETATM   26  C20 UNL     1      -4.980  26.564  -6.660  1.00  0.00     0.122 C 
BRANCH  26  27
HETATM   27  N10 UNL     1      -6.007  26.211  -7.636  1.00  0.00    -0.365 N 
HETATM   28  C21 UNL     1      -5.770  25.291  -8.687  1.00  0.00     0.181 C 
HETATM   29  N11 UNL     1      -4.653  25.294  -9.307  1.00  0.00    -0.374 N 
HETATM   30  N12 UNL     1      -6.800  24.373  -9.029  1.00  0.00    -0.064 NA
ATOM     31 2H11 UNL     1      -3.914  25.953  -9.061  1.00  0.00     0.158 HD
ATOM     32 1H11 UNL     1      -4.481  24.632 -10.064  1.00  0.00     0.158 HD
ATOM     33  H10 UNL     1      -6.929  26.641  -7.558  1.00  0.00     0.162 HD
ENDBRANCH  26  27
ENDBRANCH  25  26
ENDBRANCH  24  25
ENDBRANCH  23  24
ENDBRANCH  21  23
ENDBRANCH  13  19
ENDBRANCH  10  11
ENDBRANCH   8  10
BRANCH   1  34
HETATM   34  C5  UNL     1      -7.082  23.794 -14.009  1.00  0.00     0.151 C 
BRANCH  34  35
HETATM   35  N1  UNL     1      -5.957  23.622 -13.659  1.00  0.00    -0.424 NA
BRANCH  35  36
HETATM   36  C2  UNL     1      -4.694  23.426 -13.262  1.00  0.00     0.084 C 
HETATM   37  C1  UNL     1      -4.498  22.505 -12.051  1.00  0.00     0.053 C 
HETATM   38  C3  UNL     1      -3.885  22.769 -14.404  1.00  0.00     0.053 C 
HETATM   39  C4  UNL     1      -3.882  24.677 -12.913  1.00  0.00     0.053 C 
ENDBRANCH  35  36
ENDBRANCH  34  35
BRANCH  34  40
HETATM   40  C6  UNL     1      -7.682  22.862 -15.039  1.00  0.00     0.092 C 
BRANCH  40  41
HETATM   41  C7  UNL     1      -8.589  23.486 -16.013  1.00  0.00     0.013 C 
BRANCH  41  42
HETATM   42  C8  UNL     1     -10.016  23.091 -16.037  1.00  0.00     0.045 C 
BRANCH  42  43
HETATM   43  C9  UNL     1     -10.654  22.845 -14.754  1.00  0.00     0.063 C 
HETATM   44  N2  UNL     1     -11.560  23.667 -14.352  1.00  0.00    -0.344 N 
HETATM   45  C10 UNL     1     -12.199  23.470 -13.125  1.00  0.00     0.185 C 
ATOM     46  H2  UNL     1     -11.812  24.467 -14.932  1.00  0.00     0.167 HD
HETATM   47  N3  UNL     1     -13.092  24.352 -12.774  1.00  0.00    -0.374 N 
HETATM   48  N4  UNL     1     -11.948  22.397 -12.242  1.00  0.00    -0.064 NA
ATOM     49  H32 UNL     1     -13.273  25.127 -13.411  1.00  0.00     0.158 HD
ATOM     50  H31 UNL     1     -13.559  24.209 -11.878  1.00  0.00     0.158 HD
ENDBRANCH  42  43
ENDBRANCH  41  42
ENDBRANCH  40  41
ENDBRANCH  34  40
ENDBRANCH   1  34
TORSDOF 15
ENDMDL
MODEL 2
REMARK VINA RESULT: -8.102415190      4.789      8.038
REMARK  15 active torsions:
REMARK  status: ('A' for Active; 'I' for Inactive)
REMARK    1  A    between atoms: C2_2  and  N1_5 
REMARK    2  A    between atoms: N1_5  and  C5_6 
REMARK    3  A    between atoms: C5_6  and  C6_7 
REMARK    4  A    between atoms: C5_6  and  N5_18 
REMARK    5  A    between atoms: C6_7  and  C7_8 
REMARK    6  A    between atoms: C7_8  and  C8_9 
REMARK    7  A    between atoms: C8_9  and  C9_10 
REMARK       I    between atoms: N2_11  and  C10_13 
REMARK    8  A    between atoms: C12_25  and  C13_26 
REMARK    9  A    between atoms: C13_26  and  C14_27 
REMARK   10  A    between atoms: C15_30  and  C16_31 
REMARK       I    between atoms: C16_31  and  N9_33 
REMARK   11  A    between atoms: N9_33  and  C17_35 
REMARK   12  A    between atoms: C17_35  and  C18_36 
REMARK   13  A    between atoms: C18_36  and  C19_37 
REMARK   14  A    between atoms: C19_37  and  C20_38 
REMARK   15  A    between atoms: C20_38  and  N10_39 
REMARK       I    between atoms: N10_39  and  C21_41 
ROOT
HETATM    1  N5  UNL     1      -8.001  24.475 -13.713  1.00  0.00    -0.314 N 
ATOM      2  H5  UNL     1      -8.224  25.202 -14.393  1.00  0.00     0.170 HD
HETATM    3  C11 UNL     1      -8.786  24.341 -12.695  1.00  0.00     0.167 A 
HETATM    4  N6  UNL     1      -8.744  23.493 -11.665  1.00  0.00    -0.279 N 
ATOM      5  H6  UNL     1      -7.995  22.805 -11.594  1.00  0.00     0.189 HD
HETATM    6  N7  UNL     1      -9.646  23.553 -10.778  1.00  0.00    -0.295 N 
ATOM      7  H7  UNL     1      -9.620  22.908  -9.987  1.00  0.00     0.187 HD
HETATM    8  C12 UNL     1     -10.621  24.442 -10.863  1.00  0.00     0.076 A 
HETATM    9  S1  UNL     1     -10.217  25.244 -12.313  1.00  0.00    -0.037 SA
ENDROOT
BRANCH   8  10
HETATM   10  C13 UNL     1     -11.772  24.673  -9.914  1.00  0.00     0.144 C 
BRANCH  10  11
HETATM   11  C14 UNL     1     -12.814  23.627 -10.198  1.00  0.00     0.103 A 
HETATM   12  N8  UNL     1     -14.147  23.725 -10.220  1.00  0.00    -0.325 N 
HETATM   13  C15 UNL     1     -14.663  22.520 -10.521  1.00  0.00     0.190 A 
ATOM     14  H8  UNL     1     -14.684  24.573 -10.037  1.00  0.00     0.169 HD
HETATM   15  N13 UNL     1     -13.626  21.657 -10.689  1.00  0.00    -0.280 N 
HETATM   16  N14 UNL     1     -12.526  22.341 -10.490  1.00  0.00    -0.287 N 
ATOM     17  H13 UNL     1     -13.692  20.667 -10.924  1.00  0.00     0.189 HD
ATOM     18  H14 UNL     1     -11.583  21.956 -10.548  1.00  0.00     0.188 HD
BRANCH  13  19
HETATM   19  C16 UNL     1     -16.081  22.198 -10.652  1.00  0.00     0.287 C 
HETATM   20  O1  UNL     1     -16.723  22.742 -11.581  1.00  0.00    -0.264 OA
HETATM   21  N9  UNL     1     -16.679  21.302  -9.751  1.00  0.00    -0.354 N 
ATOM     22  H9  UNL     1     -16.147  20.863  -8.999  1.00  0.00     0.162 HD
BRANCH  21  23
HETATM   23  C17 UNL     1     -18.116  21.026  -9.946  1.00  0.00     0.123 C 
BRANCH  23  24
HETATM   24  C18 UNL     1     -18.825  20.900  -8.619  1.00  0.00     0.021 C 
BRANCH  24  25
HETATM   25  C19 UNL     1     -20.306  20.886  -8.845  1.00  0.00     0.021 C 
BRANCH  25  26
HETATM   26  C20 UNL     1     -20.789  22.174  -9.427  1.00  0.00     0.122 C 
BRANCH  26  27
HETATM   27  N10 UNL     1     -20.402  23.313  -8.598  1.00  0.00    -0.365 N 
HETATM   28  C21 UNL     1     -19.846  24.495  -9.147  1.00  0.00     0.181 C 
HETATM   29  N11 UNL     1     -19.003  24.428 -10.105  1.00  0.00    -0.374 N 
HETATM   30  N12 UNL     1     -20.249  25.747  -8.607  1.00  0.00    -0.064 NA
ATOM     31 2H11 UNL     1     -18.714  23.530 -10.492  1.00  0.00     0.158 HD
ATOM     32 1H11 UNL     1     -18.603  25.279 -10.500  1.00  0.00     0.158 HD
ATOM     33  H10 UNL     1     -20.536  23.256  -7.589  1.00  0.00     0.162 HD
ENDBRANCH  26  27
ENDBRANCH  25  26
ENDBRANCH  24  25
ENDBRANCH  23  24
ENDBRANCH  21  23
ENDBRANCH  13  19
ENDBRANCH  10  11
ENDBRANCH   8  10
BRANCH   1  34
HETATM   34  C5  UNL     1      -6.838  23.673 -13.953  1.00  0.00     0.151 C 
BRANCH  34  35
HETATM   35  N1  UNL     1      -5.921  23.618 -13.194  1.00  0.00    -0.424 NA
BRANCH  35  36
HETATM   36  C2  UNL     1      -4.892  23.553 -12.342  1.00  0.00     0.084 C 
HETATM   37  C1  UNL     1      -3.933  22.370 -12.526  1.00  0.00     0.053 C 
HETATM   38  C3  UNL     1      -4.010  24.814 -12.491  1.00  0.00     0.053 C 
HETATM   39  C4  UNL     1      -5.237  23.524 -10.850  1.00  0.00     0.053 C 
ENDBRANCH  35  36
ENDBRANCH  34  35
BRANCH  34  40
HETATM   40  C6  UNL     1      -6.796  22.845 -15.219  1.00  0.00     0.092 C 
BRANCH  40  41
HETATM   41  C7  UNL     1      -7.225  23.532 -16.445  1.00  0.00     0.013 C 
BRANCH  41  42
HETATM   42  C8  UNL     1      -8.623  23.382 -16.913  1.00  0.00     0.045 C 
BRANCH  42  43
HETATM   43  C9  UNL     1      -9.329  24.598 -17.280  1.00  0.00     0.063 C 
HETATM   44  N2  UNL     1     -10.617  24.575 -17.304  1.00  0.00    -0.344 N 
HETATM   45  C10 UNL     1     -11.337  25.721 -17.653  1.00  0.00     0.185 C 
ATOM     46  H2  UNL     1     -11.113  23.716 -17.068  1.00  0.00     0.167 HD
HETATM   47  N3  UNL     1     -12.637  25.620 -17.674  1.00  0.00    -0.374 N 
HETATM   48  N4  UNL     1     -10.767  26.969 -17.985  1.00  0.00    -0.064 NA
ATOM     49  H32 UNL     1     -13.049  24.719 -17.434  1.00  0.00     0.158 HD
ATOM     50  H31 UNL     1     -13.163  26.456 -17.928  1.00  0.00     0.158 HD
ENDBRANCH  42  43
ENDBRANCH  41  42
ENDBRANCH  40  41
ENDBRANCH  34  40
ENDBRANCH   1  34
TORSDOF 15
ENDMDL
MODEL 3
REMARK VINA RESULT: -8.057361971      4.949      8.943
REMARK  15 active torsions:
REMARK  status: ('A' for Active; 'I' for Inactive)
REMARK    1  A    between atoms: C2_2  and  N1_5 
REMARK    2  A    between atoms: N1_5  and  C5_6 
REMARK    3  A    between atoms: C5_6  and  C6_7 
REMARK    4  A    between atoms: C5_6  and  N5_18 
REMARK    5  A    between atoms: C6_7  and  C7_8 
REMARK    6  A    between atoms: C7_8  and  C8_9 
REMARK    7  A    between atoms: C8_9  and  C9_10 
REMARK       I    between atoms: N2_11  and  C10_13 
REMARK    8  A    between atoms: C12_25  and  C13_26 
REMARK    9  A    between atoms: C13_26  and  C14_27 
REMARK   10  A    between atoms: C15_30  and  C16_31 
REMARK       I    between atoms: C16_31  and  N9_33 
REMARK   11  A    between atoms: N9_33  and  C17_35 
REMARK   12  A    between atoms: C17_35  and  C18_36 
REMARK   13  A    between atoms: C18_36  and  C19_37 
REMARK   14  A    between atoms: C19_37  and  C20_38 
REMARK   15  A    between atoms: C20_38  and  N10_39 
REMARK       I    between atoms: N10_39  and  C21_41 
ROOT
HETATM    1  N5  UNL     1      -9.910  22.936 -15.987  1.00  0.00    -0.314 N 
ATOM      2  H5  UNL     1     -10.212  21.985 -16.199  1.00  0.00     0.170 HD
HETATM    3  C11 UNL     1     -10.121  23.383 -14.792  1.00  0.00     0.167 A 
HETATM    4  N6  UNL     1      -9.839  24.565 -14.240  1.00  0.00    -0.279 N 
ATOM      5  H6  UNL     1      -9.384  25.295 -14.787  1.00  0.00     0.189 HD
HETATM    6  N7  UNL     1     -10.145  24.769 -13.027  1.00  0.00    -0.295 N 
ATOM      7  H7  UNL     1      -9.933  25.671 -12.599  1.00  0.00     0.187 HD
HETATM    8  C12 UNL     1     -10.734  23.827 -12.310  1.00  0.00     0.076 A 
HETATM    9  S1  UNL     1     -10.859  22.566 -13.452  1.00  0.00    -0.037 SA
ENDROOT
BRANCH   8  10
HETATM   10  C13 UNL     1     -11.178  23.879 -10.868  1.00  0.00     0.144 C 
BRANCH  10  11
HETATM   11  C14 UNL     1     -12.502  23.173 -10.773  1.00  0.00     0.103 A 
HETATM   12  N8  UNL     1     -13.731  23.670 -10.607  1.00  0.00    -0.325 N 
HETATM   13  C15 UNL     1     -14.608  22.651 -10.578  1.00  0.00     0.190 A 
ATOM     14  H8  UNL     1     -13.965  24.659 -10.516  1.00  0.00     0.169 HD
HETATM   15  N13 UNL     1     -13.905  21.497 -10.729  1.00  0.00    -0.280 N 
HETATM   16  N14 UNL     1     -12.643  21.833 -10.844  1.00  0.00    -0.287 N 
ATOM     17  H13 UNL     1     -14.286  20.552 -10.749  1.00  0.00     0.189 HD
ATOM     18  H14 UNL     1     -11.875  21.173 -10.970  1.00  0.00     0.188 HD
BRANCH  13  19
HETATM   19  C16 UNL     1     -16.055  22.762 -10.421  1.00  0.00     0.287 C 
HETATM   20  O1  UNL     1     -16.538  23.900 -10.213  1.00  0.00    -0.264 OA
HETATM   21  N9  UNL     1     -16.856  21.612 -10.506  1.00  0.00    -0.354 N 
ATOM     22  H9  UNL     1     -16.454  20.690 -10.677  1.00  0.00     0.162 HD
BRANCH  21  23
HETATM   23  C17 UNL     1     -18.310  21.803 -10.335  1.00  0.00     0.123 C 
BRANCH  23  24
HETATM   24  C18 UNL     1     -18.944  20.584  -9.711  1.00  0.00     0.021 C 
BRANCH  24  25
HETATM   25  C19 UNL     1     -18.403  20.395  -8.327  1.00  0.00     0.021 C 
BRANCH  25  26
HETATM   26  C20 UNL     1     -19.489  20.426  -7.300  1.00  0.00     0.122 C 
BRANCH  26  27
HETATM   27  N10 UNL     1     -19.024  21.019  -6.049  1.00  0.00    -0.365 N 
HETATM   28  C21 UNL     1     -18.167  20.330  -5.156  1.00  0.00     0.181 C 
HETATM   29  N11 UNL     1     -18.332  19.082  -4.938  1.00  0.00    -0.374 N 
HETATM   30  N12 UNL     1     -17.129  21.059  -4.515  1.00  0.00    -0.064 NA
ATOM     31 2H11 UNL     1     -19.077  18.559  -5.398  1.00  0.00     0.158 HD
ATOM     32 1H11 UNL     1     -17.715  18.585  -4.295  1.00  0.00     0.158 HD
ATOM     33  H10 UNL     1     -19.327  21.963  -5.809  1.00  0.00     0.162 HD
ENDBRANCH  26  27
ENDBRANCH  25  26
ENDBRANCH  24  25
ENDBRANCH  23  24
ENDBRANCH  21  23
ENDBRANCH  13  19
ENDBRANCH  10  11
ENDBRANCH   8  10
BRANCH   1  34
HETATM   34  C5  UNL     1      -9.282  23.684 -17.034  1.00  0.00     0.151 C 
BRANCH  34  35
HETATM   35  N1  UNL     1      -9.788  24.633 -17.546  1.00  0.00    -0.424 NA
BRANCH  35  36
HETATM   36  C2  UNL     1     -10.360  25.699 -18.118  1.00  0.00     0.084 C 
HETATM   37  C1  UNL     1     -10.302  25.758 -19.651  1.00  0.00     0.053 C 
HETATM   38  C3  UNL     1     -11.865  25.733 -17.771  1.00  0.00     0.053 C 
HETATM   39  C4  UNL     1      -9.851  27.073 -17.674  1.00  0.00     0.053 C 
ENDBRANCH  35  36
ENDBRANCH  34  35
BRANCH  34  40
HETATM   40  C6  UNL     1      -7.904  23.252 -17.486  1.00  0.00     0.092 C 
BRANCH  40  41
HETATM   41  C7  UNL     1      -6.788  23.690 -16.637  1.00  0.00     0.013 C 
BRANCH  41  42
HETATM   42  C8  UNL     1      -5.525  22.915 -16.635  1.00  0.00     0.045 C 
BRANCH  42  43
HETATM   43  C9  UNL     1      -4.931  22.625 -15.340  1.00  0.00     0.063 C 
HETATM   44  N2  UNL     1      -3.753  23.081 -15.091  1.00  0.00    -0.344 N 
HETATM   45  C10 UNL     1      -3.142  22.827 -13.860  1.00  0.00     0.185 C 
ATOM     46  H2  UNL     1      -3.262  23.631 -15.797  1.00  0.00     0.167 HD
HETATM   47  N3  UNL     1      -1.942  23.304 -13.684  1.00  0.00    -0.374 N 
HETATM   48  N4  UNL     1      -3.722  22.095 -12.802  1.00  0.00    -0.064 NA
ATOM     49  H32 UNL     1      -1.522  23.833 -14.449  1.00  0.00     0.158 HD
ATOM     50  H31 UNL     1      -1.496  23.119 -12.786  1.00  0.00     0.158 HD
ENDBRANCH  42  43
ENDBRANCH  41  42
ENDBRANCH  40  41
ENDBRANCH  34  40
ENDBRANCH   1  34
TORSDOF 15
ENDMDL
MODEL 4
REMARK VINA RESULT: -7.978070374      4.344      7.954
REMARK  15 active torsions:
REMARK  status: ('A' for Active; 'I' for Inactive)
REMARK    1  A    between atoms: C2_2  and  N1_5 
REMARK    2  A    between atoms: N1_5  and  C5_6 
REMARK    3  A    between atoms: C5_6  and  C6_7 
REMARK    4  A    between atoms: C5_6  and  N5_18 
REMARK    5  A    between atoms: C6_7  and  C7_8 
REMARK    6  A    between atoms: C7_8  and  C8_9 
REMARK    7  A    between atoms: C8_9  and  C9_10 
REMARK       I    between atoms: N2_11  and  C10_13 
REMARK    8  A    between atoms: C12_25  and  C13_26 
REMARK    9  A    between atoms: C13_26  and  C14_27 
REMARK   10  A    between atoms: C15_30  and  C16_31 
REMARK       I    between atoms: C16_31  and  N9_33 
REMARK   11  A    between atoms: N9_33  and  C17_35 
REMARK   12  A    between atoms: C17_35  and  C18_36 
REMARK   13  A    between atoms: C18_36  and  C19_37 
REMARK   14  A    between atoms: C19_37  and  C20_38 
REMARK   15  A    between atoms: C20_38  and  N10_39 
REMARK       I    between atoms: N10_39  and  C21_41 
ROOT
HETATM    1  N5  UNL     1      -7.202  24.643 -13.605  1.00  0.00    -0.314 N 
ATOM      2  H5  UNL     1      -7.514  25.474 -14.106  1.00  0.00     0.170 HD
HETATM    3  C11 UNL     1      -7.763  24.378 -12.471  1.00  0.00     0.167 A 
HETATM    4  N6  UNL     1      -7.562  23.377 -11.609  1.00  0.00    -0.279 N 
ATOM      5  H6  UNL     1      -6.862  22.662 -11.803  1.00  0.00     0.189 HD
HETATM    6  N7  UNL     1      -8.251  23.329 -10.547  1.00  0.00    -0.295 N 
ATOM      7  H7  UNL     1      -8.102  22.568  -9.884  1.00  0.00     0.187 HD
HETATM    8  C12 UNL     1      -9.161  24.252 -10.288  1.00  0.00     0.076 A 
HETATM    9  S1  UNL     1      -9.018  25.257 -11.659  1.00  0.00    -0.037 SA
ENDROOT
BRANCH   8  10
HETATM   10  C13 UNL     1     -10.069  24.370  -9.087  1.00  0.00     0.144 C 
BRANCH  10  11
HETATM   11  C14 UNL     1     -11.488  24.325  -9.583  1.00  0.00     0.103 A 
HETATM   12  N8  UNL     1     -12.277  23.277  -9.837  1.00  0.00    -0.325 N 
HETATM   13  C15 UNL     1     -13.468  23.728 -10.267  1.00  0.00     0.190 A 
ATOM     14  H8  UNL     1     -12.018  22.297  -9.723  1.00  0.00     0.169 HD
HETATM   15  N13 UNL     1     -13.414  25.087 -10.281  1.00  0.00    -0.280 N 
HETATM   16  N14 UNL     1     -12.218  25.424  -9.868  1.00  0.00    -0.287 N 
ATOM     17  H13 UNL     1     -14.162  25.721 -10.560  1.00  0.00     0.189 HD
ATOM     18  H14 UNL     1     -11.884  26.384  -9.774  1.00  0.00     0.188 HD
BRANCH  13  19
HETATM   19  C16 UNL     1     -14.616  22.909 -10.644  1.00  0.00     0.287 C 
HETATM   20  O1  UNL     1     -14.399  21.846 -11.272  1.00  0.00    -0.264 OA
HETATM   21  N9  UNL     1     -15.913  23.324 -10.299  1.00  0.00    -0.354 N 
ATOM     22  H9  UNL     1     -16.080  24.190  -9.787  1.00  0.00     0.162 HD
BRANCH  21  23
HETATM   23  C17 UNL     1     -17.023  22.445 -10.715  1.00  0.00     0.123 C 
BRANCH  23  24
HETATM   24  C18 UNL     1     -18.293  22.795  -9.979  1.00  0.00     0.021 C 
BRANCH  24  25
HETATM   25  C19 UNL     1     -19.291  23.356 -10.945  1.00  0.00     0.021 C 
BRANCH  25  26
HETATM   26  C20 UNL     1     -19.774  22.318 -11.906  1.00  0.00     0.122 C 
BRANCH  26  27
HETATM   27  N10 UNL     1     -20.503  21.254 -11.220  1.00  0.00    -0.365 N 
HETATM   28  C21 UNL     1     -21.000  20.116 -11.901  1.00  0.00     0.181 C 
HETATM   29  N11 UNL     1     -21.519  20.234 -13.062  1.00  0.00    -0.374 N 
HETATM   30  N12 UNL     1     -20.906  18.849 -11.262  1.00  0.00    -0.064 NA
ATOM     31 2H11 UNL     1     -21.587  21.142 -13.521  1.00  0.00     0.158 HD
ATOM     32 1H11 UNL     1     -21.877  19.414 -13.553  1.00  0.00     0.158 HD
ATOM     33  H10 UNL     1     -20.660  21.333 -10.215  1.00  0.00     0.162 HD
ENDBRANCH  26  27
ENDBRANCH  25  26
ENDBRANCH  24  25
ENDBRANCH  23  24
ENDBRANCH  21  23
ENDBRANCH  13  19
ENDBRANCH  10  11
ENDBRANCH   8  10
BRANCH   1  34
HETATM   34  C5  UNL     1      -6.172  23.850 -14.206  1.00  0.00     0.151 C 
BRANCH  34  35
HETATM   35  N1  UNL     1      -5.110  23.672 -13.695  1.00  0.00    -0.424 NA
BRANCH  35  36
HETATM   36  C2  UNL     1      -3.918  23.476 -13.122  1.00  0.00     0.084 C 
HETATM   37  C1  UNL     1      -2.696  23.581 -14.045  1.00  0.00     0.053 C 
HETATM   38  C3  UNL     1      -3.685  24.539 -12.024  1.00  0.00     0.053 C 
HETATM   39  C4  UNL     1      -3.717  22.146 -12.390  1.00  0.00     0.053 C 
ENDBRANCH  35  36
ENDBRANCH  34  35
BRANCH  34  40
HETATM   40  C6  UNL     1      -6.467  23.195 -15.538  1.00  0.00     0.092 C 
BRANCH  40  41
HETATM   41  C7  UNL     1      -7.769  23.521 -16.134  1.00  0.00     0.013 C 
BRANCH  41  42
HETATM   42  C8  UNL     1      -8.854  22.512 -16.111  1.00  0.00     0.045 C 
BRANCH  42  43
HETATM   43  C9  UNL     1      -9.543  22.314 -14.846  1.00  0.00     0.063 C 
HETATM   44  N2  UNL     1     -10.614  22.992 -14.619  1.00  0.00    -0.344 N 
HETATM   45  C10 UNL     1     -11.308  22.835 -13.416  1.00  0.00     0.185 C 
ATOM     46  H2  UNL     1     -10.957  23.649 -15.320  1.00  0.00     0.167 HD
HETATM   47  N3  UNL     1     -12.373  23.567 -13.246  1.00  0.00    -0.374 N 
HETATM   48  N4  UNL     1     -10.942  21.951 -12.378  1.00  0.00    -0.064 NA
ATOM     49  H32 UNL     1     -12.638  24.205 -13.996  1.00  0.00     0.158 HD
ATOM     50  H31 UNL     1     -12.880  23.452 -12.369  1.00  0.00     0.158 HD
ENDBRANCH  42  43
ENDBRANCH  41  42
ENDBRANCH  40  41
ENDBRANCH  34  40
ENDBRANCH   1  34
TORSDOF 15
ENDMDL
MODEL 5
REMARK VINA RESULT: -7.950757109      2.542      3.272
REMARK  15 active torsions:
REMARK  status: ('A' for Active; 'I' for Inactive)
REMARK    1  A    between atoms: C2_2  and  N1_5 
REMARK    2  A    between atoms: N1_5  and  C5_6 
REMARK    3  A    between atoms: C5_6  and  C6_7 
REMARK    4  A    between atoms: C5_6  and  N5_18 
REMARK    5  A    between atoms: C6_7  and  C7_8 
REMARK    6  A    between atoms: C7_8  and  C8_9 
REMARK    7  A    between atoms: C8_9  and  C9_10 
REMARK       I    between atoms: N2_11  and  C10_13 
REMARK    8  A    between atoms: C12_25  and  C13_26 
REMARK    9  A    between atoms: C13_26  and  C14_27 
REMARK   10  A    between atoms: C15_30  and  C16_31 
REMARK       I    between atoms: C16_31  and  N9_33 
REMARK   11  A    between atoms: N9_33  and  C17_35 
REMARK   12  A    between atoms: C17_35  and  C18_36 
REMARK   13  A    between atoms: C18_36  and  C19_37 
REMARK   14  A    between atoms: C19_37  and  C20_38 
REMARK   15  A    between atoms: C20_38  and  N10_39 
REMARK       I    between atoms: N10_39  and  C21_41 
ROOT
HETATM    1  N5  UNL     1      -9.822  22.252 -13.231  1.00  0.00    -0.314 N 
ATOM      2  H5  UNL     1     -10.216  21.319 -13.113  1.00  0.00     0.170 HD
HETATM    3  C11 UNL     1     -10.131  23.151 -12.354  1.00  0.00     0.167 A 
HETATM    4  N6  UNL     1      -9.772  24.434 -12.255  1.00  0.00    -0.279 N 
ATOM      5  H6  UNL     1      -9.155  24.852 -12.950  1.00  0.00     0.189 HD
HETATM    6  N7  UNL     1     -10.209  25.124 -11.286  1.00  0.00    -0.295 N 
ATOM      7  H7  UNL     1      -9.939  26.105 -11.205  1.00  0.00     0.187 HD
HETATM    8  C12 UNL     1     -11.009  24.588 -10.380  1.00  0.00     0.076 A 
HETATM    9  S1  UNL     1     -11.144  22.989 -10.957  1.00  0.00    -0.037 SA
ENDROOT
BRANCH   8  10
HETATM   10  C13 UNL     1     -11.632  25.241  -9.170  1.00  0.00     0.144 C 
BRANCH  10  11
HETATM   11  C14 UNL     1     -10.974  24.659  -7.949  1.00  0.00     0.103 A 
HETATM   12  N8  UNL     1      -9.705  24.738  -7.538  1.00  0.00    -0.325 N 
HETATM   13  C15 UNL     1      -9.582  24.054  -6.386  1.00  0.00     0.190 A 
ATOM     14  H8  UNL     1      -8.954  25.234  -8.017  1.00  0.00     0.169 HD
HETATM   15  N13 UNL     1     -10.802  23.540  -6.079  1.00  0.00    -0.280 N 
HETATM   16  N14 UNL     1     -11.623  23.914  -7.030  1.00  0.00    -0.287 N 
ATOM     17  H13 UNL     1     -11.035  22.971  -5.265  1.00  0.00     0.189 HD
ATOM     18  H14 UNL     1     -12.614  23.676  -7.070  1.00  0.00     0.188 HD
BRANCH  13  19
HETATM   19  C16 UNL     1      -8.361  23.899  -5.602  1.00  0.00     0.287 C 
HETATM   20  O1  UNL     1      -8.011  22.738  -5.283  1.00  0.00    -0.264 OA
HETATM   21  N9  UNL     1      -7.621  25.034  -5.230  1.00  0.00    -0.354 N 
ATOM     22  H9  UNL     1      -7.914  25.974  -5.495  1.00  0.00     0.162 HD
BRANCH  21  23
HETATM   23  C17 UNL     1      -6.399  24.798  -4.436  1.00  0.00     0.123 C 
BRANCH  23  24
HETATM   24  C18 UNL     1      -5.303  25.753  -4.838  1.00  0.00     0.021 C 
BRANCH  24  25
HETATM   25  C19 UNL     1      -5.336  25.955  -6.322  1.00  0.00     0.021 C 
BRANCH  25  26
HETATM   26  C20 UNL     1      -5.306  27.404  -6.683  1.00  0.00     0.122 C 
BRANCH  26  27
HETATM   27  N10 UNL     1      -6.633  28.007  -6.582  1.00  0.00    -0.365 N 
HETATM   28  C21 UNL     1      -7.636  27.800  -7.561  1.00  0.00     0.181 C 
HETATM   29  N11 UNL     1      -7.332  27.776  -8.801  1.00  0.00    -0.374 N 
HETATM   30  N12 UNL     1      -8.978  27.622  -7.127  1.00  0.00    -0.064 NA
ATOM     31 2H11 UNL     1      -6.369  27.903  -9.112  1.00  0.00     0.158 HD
ATOM     32 1H11 UNL     1      -8.054  27.626  -9.506  1.00  0.00     0.158 HD
ATOM     33  H10 UNL     1      -6.844  28.599  -5.779  1.00  0.00     0.162 HD
ENDBRANCH  26  27
ENDBRANCH  25  26
ENDBRANCH  24  25
ENDBRANCH  23  24
ENDBRANCH  21  23
ENDBRANCH  13  19
ENDBRANCH  10  11
ENDBRANCH   8  10
BRANCH   1  34
HETATM   34  C5  UNL     1      -8.964  22.476 -14.356  1.00  0.00     0.151 C 
BRANCH  34  35
HETATM   35  N1  UNL     1      -7.849  22.882 -14.250  1.00  0.00    -0.424 NA
BRANCH  35  36
HETATM   36  C2  UNL     1      -6.596  23.334 -14.131  1.00  0.00     0.084 C 
HETATM   37  C1  UNL     1      -5.985  23.276 -12.725  1.00  0.00     0.053 C 
HETATM   38  C3  UNL     1      -5.650  22.490 -15.016  1.00  0.00     0.053 C 
HETATM   39  C4  UNL     1      -6.338  24.772 -14.589  1.00  0.00     0.053 C 
ENDBRANCH  35  36
ENDBRANCH  34  35
BRANCH  34  40
HETATM   40  C6  UNL     1      -9.503  22.157 -15.733  1.00  0.00     0.092 C 
BRANCH  40  41
HETATM   41  C7  UNL     1      -9.937  23.312 -16.532  1.00  0.00     0.013 C 
BRANCH  41  42
HETATM   42  C8  UNL     1      -8.979  23.958 -17.459  1.00  0.00     0.045 C 
BRANCH  42  43
HETATM   43  C9  UNL     1      -9.307  25.297 -17.918  1.00  0.00     0.063 C 
HETATM   44  N2  UNL     1      -9.374  25.511 -19.186  1.00  0.00    -0.344 N 
HETATM   45  C10 UNL     1      -9.685  26.783 -19.673  1.00  0.00     0.185 C 
ATOM     46  H2  UNL     1      -9.198  24.747 -19.839  1.00  0.00     0.167 HD
HETATM   47  N3  UNL     1      -9.718  26.930 -20.968  1.00  0.00    -0.374 N 
HETATM   48  N4  UNL     1      -9.962  27.913 -18.874  1.00  0.00    -0.064 NA
ATOM     49  H32 UNL     1      -9.518  26.114 -21.546  1.00  0.00     0.158 HD
ATOM     50  H31 UNL     1      -9.945  27.859 -21.324  1.00  0.00     0.158 HD
ENDBRANCH  42  43
ENDBRANCH  41  42
ENDBRANCH  40  41
ENDBRANCH  34  40
ENDBRANCH   1  34
TORSDOF 15
ENDMDL
