MODEL 1
REMARK VINA RESULT: -7.370113046      0.000      0.000
REMARK  6 active torsions:
REMARK  status: ('A' for Active; 'I' for Inactive)
REMARK    1  A    between atoms: N2_5  and  C4_6 
REMARK    2  A    between atoms: C4_6  and  N3_8 
REMARK    3  A    between atoms: N3_8  and  C5_10 
REMARK    4  A    between atoms: C5_10  and  C6_11 
REMARK    5  A    between atoms: C6_11  and  N4_12 
REMARK       I    between atoms: N4_12  and  C7_14 
REMARK       I    between atoms: C7_14  and  N5_16 
REMARK    6  A    between atoms: N5_16  and  C8_18 
ROOT
HETATM    1  N4  UNL     1     -31.131   2.274  25.397  1.00  0.00    -0.342 N 
ATOM      2  H4  UNL     1     -31.796   1.567  25.084  1.00  0.00     0.164 HD
HETATM    3  C7  UNL     1     -29.915   1.854  25.977  1.00  0.00     0.317 C 
HETATM    4  O1  UNL     1     -29.109   2.756  26.357  1.00  0.00    -0.247 OA
HETATM    5  N5  UNL     1     -29.603   0.469  26.132  1.00  0.00    -0.315 N 
ATOM      6  H5  UNL     1     -30.279  -0.226  25.813  1.00  0.00     0.166 HD
ENDROOT
BRANCH   1   7
HETATM    7  C6  UNL     1     -31.471   3.666  25.231  1.00  0.00     0.144 C 
BRANCH   7   8
HETATM    8  C5  UNL     1     -32.476   4.056  26.318  1.00  0.00     0.141 C 
BRANCH   8   9
HETATM    9  N3  UNL     1     -33.250   5.154  25.816  1.00  0.00    -0.366 N 
ATOM     10  H3  UNL     1     -32.965   6.086  26.118  1.00  0.00     0.161 HD
BRANCH   9  11
HETATM   11  C4  UNL     1     -34.352   5.087  24.959  1.00  0.00     0.169 C 
HETATM   12  S1  UNL     1     -35.734   4.333  25.549  1.00  0.00    -0.041 SA
BRANCH  11  13
HETATM   13  N2  UNL     1     -34.405   5.593  23.654  1.00  0.00    -0.355 N 
HETATM   14  C3  UNL     1     -35.210   5.126  22.555  1.00  0.00     0.144 C 
HETATM   15  C2  UNL     1     -34.722   5.880  21.278  1.00  0.00     0.136 C 
HETATM   16  N1  UNL     1     -35.035   7.248  21.513  1.00  0.00    -0.414 N 
HETATM   17  C1  UNL     1     -35.174   8.064  20.349  1.00  0.00     0.143 C 
HETATM   18  C17 UNL     1     -34.297   7.818  22.580  1.00  0.00     0.136 C 
HETATM   19  C16 UNL     1     -33.535   6.751  23.326  1.00  0.00     0.144 C 
ENDBRANCH  11  13
ENDBRANCH   9  11
ENDBRANCH   8   9
ENDBRANCH   7   8
ENDBRANCH   1   7
BRANCH   5  20
HETATM   20  C8  UNL     1     -28.363   0.017  26.725  1.00  0.00     0.287 C 
HETATM   21  C9  UNL     1     -28.320   0.156  28.198  1.00  0.00     0.057 C 
HETATM   22  C10 UNL     1     -27.541   1.331  28.714  1.00  0.00     0.044 C 
HETATM   23  C11 UNL     1     -26.271   1.588  27.941  1.00  0.00     0.149 C 
HETATM   24  C12 UNL     1     -25.081   1.709  28.827  1.00  0.00     0.042 C 
HETATM   25  N6  UNL     1     -26.366   2.883  27.305  1.00  0.00    -0.065 N 
HETATM   26  C15 UNL     1     -26.101   0.558  26.842  1.00  0.00     0.273 C 
HETATM   27  C13 UNL     1     -24.486   3.091  28.598  1.00  0.00     0.030 C 
HETATM   28  C14 UNL     1     -25.071   3.479  27.256  1.00  0.00     0.233 C 
ATOM     29  H62 UNL     1     -26.802   2.831  26.384  1.00  0.00     0.278 HD
ATOM     30  H61 UNL     1     -27.053   3.487  27.755  1.00  0.00     0.278 HD
HETATM   31  N7  UNL     1     -27.285   0.663  26.009  1.00  0.00    -0.052 N 
ATOM     32  H72 UNL     1     -27.148   0.290  25.070  1.00  0.00     0.279 HD
ATOM     33  H71 UNL     1     -27.502   1.621  25.738  1.00  0.00     0.279 HD
ENDBRANCH   5  20
TORSDOF 6
ENDMDL
MODEL 2
REMARK VINA RESULT: -7.223939774      2.170      3.806
REMARK  6 active torsions:
REMARK  status: ('A' for Active; 'I' for Inactive)
REMARK    1  A    between atoms: N2_5  and  C4_6 
REMARK    2  A    between atoms: C4_6  and  N3_8 
REMARK    3  A    between atoms: N3_8  and  C5_10 
REMARK    4  A    between atoms: C5_10  and  C6_11 
REMARK    5  A    between atoms: C6_11  and  N4_12 
REMARK       I    between atoms: N4_12  and  C7_14 
REMARK       I    between atoms: C7_14  and  N5_16 
REMARK    6  A    between atoms: N5_16  and  C8_18 
ROOT
HETATM    1  N4  UNL     1     -31.485   2.617  25.977  1.00  0.00    -0.342 N 
ATOM      2  H4  UNL     1     -32.230   1.987  25.679  1.00  0.00     0.164 HD
HETATM    3  C7  UNL     1     -30.235   2.070  26.335  1.00  0.00     0.317 C 
HETATM    4  O1  UNL     1     -29.328   2.877  26.700  1.00  0.00    -0.247 OA
HETATM    5  N5  UNL     1     -29.998   0.662  26.290  1.00  0.00    -0.315 N 
ATOM      6  H5  UNL     1     -30.754   0.045  25.990  1.00  0.00     0.166 HD
ENDROOT
BRANCH   1   7
HETATM    7  C6  UNL     1     -31.750   4.034  26.015  1.00  0.00     0.144 C 
BRANCH   7   8
HETATM    8  C5  UNL     1     -33.057   4.306  25.266  1.00  0.00     0.141 C 
BRANCH   8   9
HETATM    9  N3  UNL     1     -32.722   4.970  24.040  1.00  0.00    -0.366 N 
ATOM     10  H3  UNL     1     -32.628   5.985  24.084  1.00  0.00     0.161 HD
BRANCH   9  11
HETATM   11  C4  UNL     1     -32.509   4.378  22.791  1.00  0.00     0.169 C 
HETATM   12  S1  UNL     1     -33.426   4.957  21.506  1.00  0.00    -0.041 SA
BRANCH  11  13
HETATM   13  N2  UNL     1     -31.601   3.348  22.518  1.00  0.00    -0.355 N 
HETATM   14  C3  UNL     1     -30.168   3.371  22.659  1.00  0.00     0.144 C 
HETATM   15  C2  UNL     1     -29.623   2.061  22.007  1.00  0.00     0.136 C 
HETATM   16  N1  UNL     1     -30.136   1.005  22.812  1.00  0.00    -0.414 N 
HETATM   17  C1  UNL     1     -29.407  -0.222  22.767  1.00  0.00     0.143 C 
HETATM   18  C17 UNL     1     -31.547   0.886  22.751  1.00  0.00     0.136 C 
HETATM   19  C16 UNL     1     -32.145   2.060  22.016  1.00  0.00     0.144 C 
ENDBRANCH  11  13
ENDBRANCH   9  11
ENDBRANCH   8   9
ENDBRANCH   7   8
ENDBRANCH   1   7
BRANCH   5  20
HETATM   20  C8  UNL     1     -28.725   0.079  26.655  1.00  0.00     0.287 C 
HETATM   21  C9  UNL     1     -28.504  -0.008  28.116  1.00  0.00     0.057 C 
HETATM   22  C10 UNL     1     -27.608   1.045  28.699  1.00  0.00     0.044 C 
HETATM   23  C11 UNL     1     -26.424   1.369  27.823  1.00  0.00     0.149 C 
HETATM   24  C12 UNL     1     -25.135   1.310  28.566  1.00  0.00     0.042 C 
HETATM   25  N6  UNL     1     -26.520   2.748  27.400  1.00  0.00    -0.065 N 
HETATM   26  C15 UNL     1     -26.438   0.513  26.573  1.00  0.00     0.273 C 
HETATM   27  C13 UNL     1     -24.496   2.688  28.470  1.00  0.00     0.030 C 
HETATM   28  C14 UNL     1     -25.209   3.297  27.282  1.00  0.00     0.233 C 
ATOM     29  H62 UNL     1     -27.061   2.853  26.542  1.00  0.00     0.278 HD
ATOM     30  H61 UNL     1     -27.117   3.301  28.015  1.00  0.00     0.278 HD
HETATM   31  N7  UNL     1     -27.703   0.786  25.915  1.00  0.00    -0.052 N 
ATOM     32  H72 UNL     1     -27.695   0.556  24.922  1.00  0.00     0.279 HD
ATOM     33  H71 UNL     1     -27.896   1.782  25.816  1.00  0.00     0.279 HD
ENDBRANCH   5  20
TORSDOF 6
ENDMDL
MODEL 3
REMARK VINA RESULT: -7.204473770      0.977      1.391
REMARK  6 active torsions:
REMARK  status: ('A' for Active; 'I' for Inactive)
REMARK    1  A    between atoms: N2_5  and  C4_6 
REMARK    2  A    between atoms: C4_6  and  N3_8 
REMARK    3  A    between atoms: N3_8  and  C5_10 
REMARK    4  A    between atoms: C5_10  and  C6_11 
REMARK    5  A    between atoms: C6_11  and  N4_12 
REMARK       I    between atoms: N4_12  and  C7_14 
REMARK       I    between atoms: C7_14  and  N5_16 
REMARK    6  A    between atoms: N5_16  and  C8_18 
ROOT
HETATM    1  N4  UNL     1     -31.289   2.362  25.578  1.00  0.00    -0.342 N 
ATOM      2  H4  UNL     1     -32.015   1.677  25.370  1.00  0.00     0.164 HD
HETATM    3  C7  UNL     1     -30.047   1.906  26.069  1.00  0.00     0.317 C 
HETATM    4  O1  UNL     1     -29.162   2.780  26.318  1.00  0.00    -0.247 OA
HETATM    5  N5  UNL     1     -29.793   0.516  26.279  1.00  0.00    -0.315 N 
ATOM      6  H5  UNL     1     -30.531  -0.156  26.066  1.00  0.00     0.166 HD
ENDROOT
BRANCH   1   7
HETATM    7  C6  UNL     1     -31.570   3.759  25.359  1.00  0.00     0.144 C 
BRANCH   7   8
HETATM    8  C5  UNL     1     -32.256   4.319  26.608  1.00  0.00     0.141 C 
BRANCH   8   9
HETATM    9  N3  UNL     1     -33.663   4.075  26.474  1.00  0.00    -0.366 N 
ATOM     10  H3  UNL     1     -34.012   3.199  26.865  1.00  0.00     0.161 HD
BRANCH   9  11
HETATM   11  C4  UNL     1     -34.609   4.905  25.865  1.00  0.00     0.169 C 
HETATM   12  S1  UNL     1     -35.844   5.499  26.839  1.00  0.00    -0.041 SA
BRANCH  11  13
HETATM   13  N2  UNL     1     -34.616   5.286  24.518  1.00  0.00    -0.355 N 
HETATM   14  C3  UNL     1     -33.926   6.392  23.906  1.00  0.00     0.144 C 
HETATM   15  C2  UNL     1     -34.452   6.505  22.440  1.00  0.00     0.136 C 
HETATM   16  N1  UNL     1     -34.031   5.306  21.801  1.00  0.00    -0.414 N 
HETATM   17  C1  UNL     1     -33.921   5.364  20.378  1.00  0.00     0.143 C 
HETATM   18  C17 UNL     1     -34.649   4.143  22.324  1.00  0.00     0.136 C 
HETATM   19  C16 UNL     1     -35.427   4.474  23.574  1.00  0.00     0.144 C 
ENDBRANCH  11  13
ENDBRANCH   9  11
ENDBRANCH   8   9
ENDBRANCH   7   8
ENDBRANCH   1   7
BRANCH   5  20
HETATM   20  C8  UNL     1     -28.528   0.028  26.783  1.00  0.00     0.287 C 
HETATM   21  C9  UNL     1     -28.395   0.120  28.254  1.00  0.00     0.057 C 
HETATM   22  C10 UNL     1     -27.568   1.266  28.758  1.00  0.00     0.044 C 
HETATM   23  C11 UNL     1     -26.343   1.529  27.920  1.00  0.00     0.149 C 
HETATM   24  C12 UNL     1     -25.100   1.605  28.737  1.00  0.00     0.042 C 
HETATM   25  N6  UNL     1     -26.454   2.845  27.330  1.00  0.00    -0.065 N 
HETATM   26  C15 UNL     1     -26.255   0.533  26.781  1.00  0.00     0.273 C 
HETATM   27  C13 UNL     1     -24.498   2.985  28.515  1.00  0.00     0.030 C 
HETATM   28  C14 UNL     1     -25.155   3.424  27.224  1.00  0.00     0.233 C 
ATOM     29  H62 UNL     1     -26.944   2.829  26.437  1.00  0.00     0.278 HD
ATOM     30  H61 UNL     1     -27.103   3.444  27.840  1.00  0.00     0.278 HD
HETATM   31  N7  UNL     1     -27.484   0.680  26.024  1.00  0.00    -0.052 N 
ATOM     32  H72 UNL     1     -27.408   0.336  25.067  1.00  0.00     0.279 HD
ATOM     33  H71 UNL     1     -27.700   1.650  25.796  1.00  0.00     0.279 HD
ENDBRANCH   5  20
TORSDOF 6
ENDMDL
MODEL 4
REMARK VINA RESULT: -7.174487250      2.945      4.157
REMARK  6 active torsions:
REMARK  status: ('A' for Active; 'I' for Inactive)
REMARK    1  A    between atoms: N2_5  and  C4_6 
REMARK    2  A    between atoms: C4_6  and  N3_8 
REMARK    3  A    between atoms: N3_8  and  C5_10 
REMARK    4  A    between atoms: C5_10  and  C6_11 
REMARK    5  A    between atoms: C6_11  and  N4_12 
REMARK       I    between atoms: N4_12  and  C7_14 
REMARK       I    between atoms: C7_14  and  N5_16 
REMARK    6  A    between atoms: N5_16  and  C8_18 
ROOT
HETATM    1  N4  UNL     1     -31.362   2.490  25.902  1.00  0.00    -0.342 N 
ATOM      2  H4  UNL     1     -32.078   1.832  25.595  1.00  0.00     0.164 HD
HETATM    3  C7  UNL     1     -30.109   1.987  26.312  1.00  0.00     0.317 C 
HETATM    4  O1  UNL     1     -29.238   2.829  26.687  1.00  0.00    -0.247 OA
HETATM    5  N5  UNL     1     -29.830   0.586  26.306  1.00  0.00    -0.315 N 
ATOM      6  H5  UNL     1     -30.558  -0.059  25.997  1.00  0.00     0.166 HD
ENDROOT
BRANCH   1   7
HETATM    7  C6  UNL     1     -31.669   3.899  25.899  1.00  0.00     0.144 C 
BRANCH   7   8
HETATM    8  C5  UNL     1     -32.505   4.213  24.656  1.00  0.00     0.141 C 
BRANCH   8   9
HETATM    9  N3  UNL     1     -31.595   4.441  23.570  1.00  0.00    -0.366 N 
ATOM     10  H3  UNL     1     -30.842   5.109  23.741  1.00  0.00     0.161 HD
BRANCH   9  11
HETATM   11  C4  UNL     1     -31.628   3.849  22.304  1.00  0.00     0.169 C 
HETATM   12  S1  UNL     1     -32.907   4.271  21.297  1.00  0.00    -0.041 SA
BRANCH  11  13
HETATM   13  N2  UNL     1     -30.690   2.938  21.803  1.00  0.00    -0.355 N 
HETATM   14  C3  UNL     1     -29.933   1.954  22.532  1.00  0.00     0.144 C 
HETATM   15  C2  UNL     1     -28.874   1.368  21.546  1.00  0.00     0.136 C 
HETATM   16  N1  UNL     1     -29.631   0.699  20.544  1.00  0.00    -0.414 N 
HETATM   17  C1  UNL     1     -28.945  -0.331  19.829  1.00  0.00     0.143 C 
HETATM   18  C17 UNL     1     -30.420   1.574  19.757  1.00  0.00     0.136 C 
HETATM   19  C16 UNL     1     -30.413   2.964  20.343  1.00  0.00     0.144 C 
ENDBRANCH  11  13
ENDBRANCH   9  11
ENDBRANCH   8   9
ENDBRANCH   7   8
ENDBRANCH   1   7
BRANCH   5  20
HETATM   20  C8  UNL     1     -28.553   0.050  26.724  1.00  0.00     0.287 C 
HETATM   21  C9  UNL     1     -28.359   0.043  28.192  1.00  0.00     0.057 C 
HETATM   22  C10 UNL     1     -27.495   1.144  28.735  1.00  0.00     0.044 C 
HETATM   23  C11 UNL     1     -26.301   1.446  27.865  1.00  0.00     0.149 C 
HETATM   24  C12 UNL     1     -25.025   1.452  28.633  1.00  0.00     0.042 C 
HETATM   25  N6  UNL     1     -26.415   2.799  27.368  1.00  0.00    -0.065 N 
HETATM   26  C15 UNL     1     -26.274   0.526  26.662  1.00  0.00     0.273 C 
HETATM   27  C13 UNL     1     -24.411   2.836  28.477  1.00  0.00     0.030 C 
HETATM   28  C14 UNL     1     -25.113   3.367  27.246  1.00  0.00     0.233 C 
ATOM     29  H62 UNL     1     -26.942   2.848  26.497  1.00  0.00     0.278 HD
ATOM     30  H61 UNL     1     -27.035   3.371  27.942  1.00  0.00     0.278 HD
HETATM   31  N7  UNL     1     -27.531   0.738  25.967  1.00  0.00    -0.052 N 
ATOM     32  H72 UNL     1     -27.499   0.457  24.988  1.00  0.00     0.279 HD
ATOM     33  H71 UNL     1     -27.741   1.724  25.813  1.00  0.00     0.279 HD
ENDBRANCH   5  20
TORSDOF 6
ENDMDL
MODEL 5
REMARK VINA RESULT: -7.046047124      1.512      1.801
REMARK  6 active torsions:
REMARK  status: ('A' for Active; 'I' for Inactive)
REMARK    1  A    between atoms: N2_5  and  C4_6 
REMARK    2  A    between atoms: C4_6  and  N3_8 
REMARK    3  A    between atoms: N3_8  and  C5_10 
REMARK    4  A    between atoms: C5_10  and  C6_11 
REMARK    5  A    between atoms: C6_11  and  N4_12 
REMARK       I    between atoms: N4_12  and  C7_14 
REMARK       I    between atoms: C7_14  and  N5_16 
REMARK    6  A    between atoms: N5_16  and  C8_18 
ROOT
HETATM    1  N4  UNL     1     -31.360   2.498  25.933  1.00  0.00    -0.342 N 
ATOM      2  H4  UNL     1     -32.075   1.840  25.625  1.00  0.00     0.164 HD
HETATM    3  C7  UNL     1     -30.105   1.997  26.340  1.00  0.00     0.317 C 
HETATM    4  O1  UNL     1     -29.235   2.839  26.716  1.00  0.00    -0.247 OA
HETATM    5  N5  UNL     1     -29.825   0.596  26.330  1.00  0.00    -0.315 N 
ATOM      6  H5  UNL     1     -30.551  -0.049  26.020  1.00  0.00     0.166 HD
ENDROOT
BRANCH   1   7
HETATM    7  C6  UNL     1     -31.669   3.907  25.935  1.00  0.00     0.144 C 
BRANCH   7   8
HETATM    8  C5  UNL     1     -32.994   4.116  25.197  1.00  0.00     0.141 C 
BRANCH   8   9
HETATM    9  N3  UNL     1     -32.803   5.188  24.262  1.00  0.00    -0.366 N 
ATOM     10  H3  UNL     1     -32.706   6.123  24.657  1.00  0.00     0.161 HD
BRANCH   9  11
HETATM   11  C4  UNL     1     -32.735   5.089  22.869  1.00  0.00     0.169 C 
HETATM   12  S1  UNL     1     -31.376   4.340  22.222  1.00  0.00    -0.041 SA
BRANCH  11  13
HETATM   13  N2  UNL     1     -33.699   5.557  21.969  1.00  0.00    -0.355 N 
HETATM   14  C3  UNL     1     -34.482   6.763  22.056  1.00  0.00     0.144 C 
HETATM   15  C2  UNL     1     -35.559   6.692  20.928  1.00  0.00     0.136 C 
HETATM   16  N1  UNL     1     -34.824   6.723  19.711  1.00  0.00    -0.414 N 
HETATM   17  C1  UNL     1     -35.539   7.181  18.562  1.00  0.00     0.143 C 
HETATM   18  C17 UNL     1     -34.012   5.578  19.515  1.00  0.00     0.136 C 
HETATM   19  C16 UNL     1     -33.979   4.733  20.764  1.00  0.00     0.144 C 
ENDBRANCH  11  13
ENDBRANCH   9  11
ENDBRANCH   8   9
ENDBRANCH   7   8
ENDBRANCH   1   7
BRANCH   5  20
HETATM   20  C8  UNL     1     -28.546   0.061  26.745  1.00  0.00     0.287 C 
HETATM   21  C9  UNL     1     -28.346   0.059  28.212  1.00  0.00     0.057 C 
HETATM   22  C10 UNL     1     -27.479   1.161  28.747  1.00  0.00     0.044 C 
HETATM   23  C11 UNL     1     -26.288   1.459  27.872  1.00  0.00     0.149 C 
HETATM   24  C12 UNL     1     -25.010   1.467  28.635  1.00  0.00     0.042 C 
HETATM   25  N6  UNL     1     -26.404   2.811  27.370  1.00  0.00    -0.065 N 
HETATM   26  C15 UNL     1     -26.267   0.535  26.672  1.00  0.00     0.273 C 
HETATM   27  C13 UNL     1     -24.396   2.851  28.471  1.00  0.00     0.030 C 
HETATM   28  C14 UNL     1     -25.102   3.378  27.241  1.00  0.00     0.233 C 
ATOM     29  H62 UNL     1     -26.934   2.857  26.501  1.00  0.00     0.278 HD
ATOM     30  H61 UNL     1     -27.021   3.385  27.945  1.00  0.00     0.278 HD
HETATM   31  N7  UNL     1     -27.526   0.745  25.981  1.00  0.00    -0.052 N 
ATOM     32  H72 UNL     1     -27.499   0.460  25.003  1.00  0.00     0.279 HD
ATOM     33  H71 UNL     1     -27.737   1.730  25.824  1.00  0.00     0.279 HD
ENDBRANCH   5  20
TORSDOF 6
ENDMDL
