MODEL 1
REMARK VINA RESULT: -5.999717734      0.000      0.000
REMARK  6 active torsions:
REMARK  status: ('A' for Active; 'I' for Inactive)
REMARK    1  A    between atoms: C2_2  and  C4_4 
REMARK    2  A    between atoms: C4_4  and  N1_5 
REMARK    3  A    between atoms: C4_4  and  C6_10 
REMARK       I    between atoms: N1_5  and  C5_7 
REMARK    4  A    between atoms: C6_10  and  N4_15 
REMARK    5  A    between atoms: N3_11  and  C7_13 
REMARK    6  A    between atoms: N4_15  and  C8_17 
ROOT
HETATM    1  C6  UNL     1     -22.778 -34.922  -7.362  1.00  0.00     0.103 C 
HETATM    2  N3  UNL     1     -22.754 -36.123  -7.742  1.00  0.00    -0.322 N 
ATOM      3  H3  UNL     1     -22.494 -36.236  -8.722  1.00  0.00     0.169 HD
ENDROOT
BRANCH   1   4
HETATM    4  C4  UNL     1     -22.428 -33.896  -8.400  1.00  0.00     0.156 C 
BRANCH   4   5
HETATM    5  C2  UNL     1     -23.186 -32.622  -8.273  1.00  0.00     0.008 C 
HETATM    6  C1  UNL     1     -22.428 -31.405  -8.743  1.00  0.00     0.012 C 
HETATM    7  C3  UNL     1     -24.416 -32.754  -9.177  1.00  0.00     0.012 C 
ENDBRANCH   4   5
BRANCH   4   8
HETATM    8  N1  UNL     1     -22.727 -34.499  -9.691  1.00  0.00    -0.334 N 
HETATM    9  C5  UNL     1     -21.759 -34.703 -10.692  1.00  0.00     0.329 C 
HETATM   10  N2  UNL     1     -22.124 -35.292 -11.915  1.00  0.00    -0.040 NA
HETATM   11  O1  UNL     1     -20.578 -34.355 -10.479  1.00  0.00    -0.251 OA
ATOM     12  H1  UNL     1     -23.687 -34.788  -9.880  1.00  0.00     0.164 HD
ENDBRANCH   4   8
ENDBRANCH   1   4
BRANCH   1  13
HETATM   13  N4  UNL     1     -23.122 -34.535  -6.046  1.00  0.00    -0.372 N 
ATOM     14  H4  UNL     1     -24.069 -34.774  -5.749  1.00  0.00     0.161 HD
BRANCH  13  15
HETATM   15  C8  UNL     1     -22.328 -33.858  -5.081  1.00  0.00     0.098 C 
HETATM   16  C9  UNL     1     -22.671 -32.396  -4.948  1.00  0.00     0.046 C 
HETATM   17  C10 UNL     1     -21.580 -31.544  -4.380  1.00  0.00     0.013 C 
HETATM   18  C11 UNL     1     -22.099 -30.994  -3.044  1.00  0.00     0.027 C 
HETATM   19  C12 UNL     1     -21.241 -30.363  -5.229  1.00  0.00     0.027 C 
HETATM   20  S1  UNL     1     -20.094 -32.525  -3.944  1.00  0.00    -0.088 SA
HETATM   21  S2  UNL     1     -20.894 -34.213  -2.861  1.00  0.00    -0.090 SA
HETATM   22  C13 UNL     1     -22.503 -34.483  -3.678  1.00  0.00     0.077 C 
HETATM   23  C14 UNL     1     -22.862 -35.932  -3.733  1.00  0.00     0.024 C 
ENDBRANCH  13  15
ENDBRANCH   1  13
BRANCH   2  24
HETATM   24  C7  UNL     1     -23.011 -37.323  -7.096  1.00  0.00     0.354 C 
HETATM   25  O2  UNL     1     -24.174 -37.518  -6.616  1.00  0.00    -0.283 OA
ENDBRANCH   2  24
TORSDOF 6
ENDMDL
MODEL 2
REMARK VINA RESULT: -5.885972263      4.756      7.636
REMARK  6 active torsions:
REMARK  status: ('A' for Active; 'I' for Inactive)
REMARK    1  A    between atoms: C2_2  and  C4_4 
REMARK    2  A    between atoms: C4_4  and  N1_5 
REMARK    3  A    between atoms: C4_4  and  C6_10 
REMARK       I    between atoms: N1_5  and  C5_7 
REMARK    4  A    between atoms: C6_10  and  N4_15 
REMARK    5  A    between atoms: N3_11  and  C7_13 
REMARK    6  A    between atoms: N4_15  and  C8_17 
ROOT
HETATM    1  C6  UNL     1     -21.340 -32.777  -1.913  1.00  0.00     0.103 C 
HETATM    2  N3  UNL     1     -21.846 -31.625  -1.850  1.00  0.00    -0.322 N 
ATOM      3  H3  UNL     1     -22.164 -31.369  -0.916  1.00  0.00     0.169 HD
ENDROOT
BRANCH   1   4
HETATM    4  C4  UNL     1     -21.299 -33.549  -0.626  1.00  0.00     0.156 C 
BRANCH   4   5
HETATM    5  C2  UNL     1     -22.209 -34.725  -0.596  1.00  0.00     0.008 C 
HETATM    6  C1  UNL     1     -21.545 -36.028  -0.965  1.00  0.00     0.012 C 
HETATM    7  C3  UNL     1     -22.692 -34.867   0.852  1.00  0.00     0.012 C 
ENDBRANCH   4   5
BRANCH   4   8
HETATM    8  N1  UNL     1     -21.691 -32.619   0.423  1.00  0.00    -0.334 N 
HETATM    9  C5  UNL     1     -20.844 -32.246   1.483  1.00  0.00     0.329 C 
HETATM   10  N2  UNL     1     -21.294 -31.343   2.460  1.00  0.00    -0.040 NA
HETATM   11  O1  UNL     1     -19.692 -32.729   1.542  1.00  0.00    -0.251 OA
ATOM     12  H1  UNL     1     -22.628 -32.217   0.388  1.00  0.00     0.164 HD
ENDBRANCH   4   8
ENDBRANCH   1   4
BRANCH   1  13
HETATM   13  N4  UNL     1     -20.843 -33.338  -3.112  1.00  0.00    -0.372 N 
ATOM     14  H4  UNL     1     -20.094 -34.022  -3.002  1.00  0.00     0.161 HD
BRANCH  13  15
HETATM   15  C8  UNL     1     -21.245 -33.077  -4.451  1.00  0.00     0.098 C 
HETATM   16  C9  UNL     1     -20.312 -32.143  -5.181  1.00  0.00     0.046 C 
HETATM   17  C10 UNL     1     -20.922 -31.432  -6.346  1.00  0.00     0.013 C 
HETATM   18  C11 UNL     1     -20.176 -31.913  -7.598  1.00  0.00     0.027 C 
HETATM   19  C12 UNL     1     -20.761 -29.948  -6.293  1.00  0.00     0.027 C 
HETATM   20  S1  UNL     1     -22.668 -31.922  -6.618  1.00  0.00    -0.088 SA
HETATM   21  S2  UNL     1     -22.619 -34.078  -6.505  1.00  0.00    -0.090 SA
HETATM   22  C13 UNL     1     -21.303 -34.381  -5.279  1.00  0.00     0.077 C 
HETATM   23  C14 UNL     1     -21.590 -35.583  -4.441  1.00  0.00     0.024 C 
ENDBRANCH  13  15
ENDBRANCH   1  13
BRANCH   2  24
HETATM   24  C7  UNL     1     -22.058 -30.634  -2.798  1.00  0.00     0.354 C 
HETATM   25  O2  UNL     1     -21.328 -29.591  -2.760  1.00  0.00    -0.283 OA
ENDBRANCH   2  24
TORSDOF 6
ENDMDL
MODEL 3
REMARK VINA RESULT: -5.873213673      2.719      5.427
REMARK  6 active torsions:
REMARK  status: ('A' for Active; 'I' for Inactive)
REMARK    1  A    between atoms: C2_2  and  C4_4 
REMARK    2  A    between atoms: C4_4  and  N1_5 
REMARK    3  A    between atoms: C4_4  and  C6_10 
REMARK       I    between atoms: N1_5  and  C5_7 
REMARK    4  A    between atoms: C6_10  and  N4_15 
REMARK    5  A    between atoms: N3_11  and  C7_13 
REMARK    6  A    between atoms: N4_15  and  C8_17 
ROOT
HETATM    1  C6  UNL     1     -22.032 -35.118  -4.635  1.00  0.00     0.103 C 
HETATM    2  N3  UNL     1     -20.945 -34.976  -4.013  1.00  0.00    -0.322 N 
ATOM      3  H3  UNL     1     -20.611 -35.833  -3.574  1.00  0.00     0.169 HD
ENDROOT
BRANCH   1   4
HETATM    4  C4  UNL     1     -22.625 -36.497  -4.616  1.00  0.00     0.156 C 
BRANCH   4   5
HETATM    5  C2  UNL     1     -22.433 -37.222  -3.331  1.00  0.00     0.008 C 
HETATM    6  C1  UNL     1     -22.851 -36.437  -2.112  1.00  0.00     0.012 C 
HETATM    7  C3  UNL     1     -23.331 -38.462  -3.389  1.00  0.00     0.012 C 
ENDBRANCH   4   5
BRANCH   4   8
HETATM    8  N1  UNL     1     -21.970 -37.241  -5.682  1.00  0.00    -0.334 N 
HETATM    9  C5  UNL     1     -22.635 -37.675  -6.844  1.00  0.00     0.329 C 
HETATM   10  N2  UNL     1     -21.935 -38.390  -7.831  1.00  0.00    -0.040 NA
HETATM   11  O1  UNL     1     -23.850 -37.418  -6.984  1.00  0.00    -0.251 OA
ATOM     12  H1  UNL     1     -20.978 -37.459  -5.582  1.00  0.00     0.164 HD
ENDBRANCH   4   8
ENDBRANCH   1   4
BRANCH   1  13
HETATM   13  N4  UNL     1     -22.681 -34.058  -5.309  1.00  0.00    -0.372 N 
ATOM     14  H4  UNL     1     -23.514 -33.688  -4.851  1.00  0.00     0.161 HD
BRANCH  13  15
HETATM   15  C8  UNL     1     -22.331 -33.439  -6.541  1.00  0.00     0.098 C 
HETATM   16  C9  UNL     1     -22.995 -34.075  -7.736  1.00  0.00     0.046 C 
HETATM   17  C10 UNL     1     -22.297 -33.843  -9.038  1.00  0.00     0.013 C 
HETATM   18  C11 UNL     1     -23.254 -33.022  -9.913  1.00  0.00     0.027 C 
HETATM   19  C12 UNL     1     -21.999 -35.099  -9.789  1.00  0.00     0.027 C 
HETATM   20  S1  UNL     1     -20.809 -32.790  -8.846  1.00  0.00    -0.088 SA
HETATM   21  S2  UNL     1     -21.496 -31.150  -7.621  1.00  0.00    -0.090 SA
HETATM   22  C13 UNL     1     -22.736 -31.948  -6.549  1.00  0.00     0.077 C 
HETATM   23  C14 UNL     1     -22.757 -31.348  -5.181  1.00  0.00     0.024 C 
ENDBRANCH  13  15
ENDBRANCH   1  13
BRANCH   2  24
HETATM   24  C7  UNL     1     -20.113 -33.886  -3.806  1.00  0.00     0.354 C 
HETATM   25  O2  UNL     1     -20.573 -32.883  -3.170  1.00  0.00    -0.283 OA
ENDBRANCH   2  24
TORSDOF 6
ENDMDL
MODEL 4
REMARK VINA RESULT: -5.764432644      1.477      1.599
REMARK  6 active torsions:
REMARK  status: ('A' for Active; 'I' for Inactive)
REMARK    1  A    between atoms: C2_2  and  C4_4 
REMARK    2  A    between atoms: C4_4  and  N1_5 
REMARK    3  A    between atoms: C4_4  and  C6_10 
REMARK       I    between atoms: N1_5  and  C5_7 
REMARK    4  A    between atoms: C6_10  and  N4_15 
REMARK    5  A    between atoms: N3_11  and  C7_13 
REMARK    6  A    between atoms: N4_15  and  C8_17 
ROOT
HETATM    1  C6  UNL     1     -22.530 -34.669  -7.726  1.00  0.00     0.103 C 
HETATM    2  N3  UNL     1     -22.380 -35.832  -8.186  1.00  0.00    -0.322 N 
ATOM      3  H3  UNL     1     -22.065 -35.851  -9.155  1.00  0.00     0.169 HD
ENDROOT
BRANCH   1   4
HETATM    4  C4  UNL     1     -22.226 -33.544  -8.672  1.00  0.00     0.156 C 
BRANCH   4   5
HETATM    5  C2  UNL     1     -23.303 -33.276  -9.663  1.00  0.00     0.008 C 
HETATM    6  C1  UNL     1     -24.499 -32.554  -9.093  1.00  0.00     0.012 C 
HETATM    7  C3  UNL     1     -22.697 -32.358 -10.730  1.00  0.00     0.012 C 
ENDBRANCH   4   5
BRANCH   4   8
HETATM    8  N1  UNL     1     -21.012 -33.921  -9.382  1.00  0.00    -0.334 N 
HETATM    9  C5  UNL     1     -19.779 -33.265  -9.210  1.00  0.00     0.329 C 
HETATM   10  N2  UNL     1     -18.650 -33.687  -9.931  1.00  0.00    -0.040 NA
HETATM   11  O1  UNL     1     -19.704 -32.308  -8.409  1.00  0.00    -0.251 OA
ATOM     12  H1  UNL     1     -21.058 -34.701 -10.039  1.00  0.00     0.164 HD
ENDBRANCH   4   8
ENDBRANCH   1   4
BRANCH   1  13
HETATM   13  N4  UNL     1     -22.969 -34.409  -6.407  1.00  0.00    -0.372 N 
ATOM     14  H4  UNL     1     -23.891 -34.777  -6.169  1.00  0.00     0.161 HD
BRANCH  13  15
HETATM   15  C8  UNL     1     -22.300 -33.706  -5.368  1.00  0.00     0.098 C 
HETATM   16  C9  UNL     1     -22.662 -32.243  -5.312  1.00  0.00     0.046 C 
HETATM   17  C10 UNL     1     -21.651 -31.372  -4.636  1.00  0.00     0.013 C 
HETATM   18  C11 UNL     1     -22.330 -30.796  -3.385  1.00  0.00     0.027 C 
HETATM   19  C12 UNL     1     -21.215 -30.209  -5.464  1.00  0.00     0.027 C 
HETATM   20  S1  UNL     1     -20.226 -32.334  -4.000  1.00  0.00    -0.088 SA
HETATM   21  S2  UNL     1     -21.145 -34.003  -2.984  1.00  0.00    -0.090 SA
HETATM   22  C13 UNL     1     -22.641 -34.301  -3.984  1.00  0.00     0.077 C 
HETATM   23  C14 UNL     1     -22.986 -35.752  -4.049  1.00  0.00     0.024 C 
ENDBRANCH  13  15
ENDBRANCH   1  13
BRANCH   2  24
HETATM   24  C7  UNL     1     -22.557 -37.094  -7.637  1.00  0.00     0.354 C 
HETATM   25  O2  UNL     1     -23.674 -37.366  -7.088  1.00  0.00    -0.283 OA
ENDBRANCH   2  24
TORSDOF 6
ENDMDL
MODEL 5
REMARK VINA RESULT: -5.610639751      2.965      6.124
REMARK  6 active torsions:
REMARK  status: ('A' for Active; 'I' for Inactive)
REMARK    1  A    between atoms: C2_2  and  C4_4 
REMARK    2  A    between atoms: C4_4  and  N1_5 
REMARK    3  A    between atoms: C4_4  and  C6_10 
REMARK       I    between atoms: N1_5  and  C5_7 
REMARK    4  A    between atoms: C6_10  and  N4_15 
REMARK    5  A    between atoms: N3_11  and  C7_13 
REMARK    6  A    between atoms: N4_15  and  C8_17 
ROOT
HETATM    1  C6  UNL     1     -22.490 -35.164  -4.245  1.00  0.00     0.103 C 
HETATM    2  N3  UNL     1     -22.212 -36.348  -4.574  1.00  0.00    -0.322 N 
ATOM      3  H3  UNL     1     -21.804 -36.897  -3.817  1.00  0.00     0.169 HD
ENDROOT
BRANCH   1   4
HETATM    4  C4  UNL     1     -22.174 -34.783  -2.828  1.00  0.00     0.156 C 
BRANCH   4   5
HETATM    5  C2  UNL     1     -20.886 -34.057  -2.668  1.00  0.00     0.008 C 
HETATM    6  C1  UNL     1     -20.134 -33.843  -3.958  1.00  0.00     0.012 C 
HETATM    7  C3  UNL     1     -21.231 -32.669  -2.120  1.00  0.00     0.012 C 
ENDBRANCH   4   5
BRANCH   4   8
HETATM    8  N1  UNL     1     -22.116 -36.026  -2.072  1.00  0.00    -0.334 N 
HETATM    9  C5  UNL     1     -22.446 -36.117  -0.707  1.00  0.00     0.329 C 
HETATM   10  N2  UNL     1     -22.364 -37.353  -0.044  1.00  0.00    -0.040 NA
HETATM   11  O1  UNL     1     -22.811 -35.089  -0.097  1.00  0.00    -0.251 OA
ATOM     12  H1  UNL     1     -21.819 -36.874  -2.556  1.00  0.00     0.164 HD
ENDBRANCH   4   8
ENDBRANCH   1   4
BRANCH   1  13
HETATM   13  N4  UNL     1     -23.055 -34.226  -5.141  1.00  0.00    -0.372 N 
ATOM     14  H4  UNL     1     -23.999 -33.913  -4.913  1.00  0.00     0.161 HD
BRANCH  13  15
HETATM   15  C8  UNL     1     -22.486 -33.661  -6.315  1.00  0.00     0.098 C 
HETATM   16  C9  UNL     1     -23.054 -34.238  -7.587  1.00  0.00     0.046 C 
HETATM   17  C10 UNL     1     -22.173 -34.096  -8.788  1.00  0.00     0.013 C 
HETATM   18  C11 UNL     1     -22.918 -33.189  -9.778  1.00  0.00     0.027 C 
HETATM   19  C12 UNL     1     -21.915 -35.385  -9.496  1.00  0.00     0.027 C 
HETATM   20  S1  UNL     1     -20.620 -33.201  -8.403  1.00  0.00    -0.088 SA
HETATM   21  S2  UNL     1     -21.283 -31.484  -7.274  1.00  0.00    -0.090 SA
HETATM   22  C13 UNL     1     -22.728 -32.136  -6.373  1.00  0.00     0.077 C 
HETATM   23  C14 UNL     1     -22.862 -31.522  -5.018  1.00  0.00     0.024 C 
ENDBRANCH  13  15
ENDBRANCH   1  13
BRANCH   2  24
HETATM   24  C7  UNL     1     -22.350 -37.056  -5.759  1.00  0.00     0.354 C 
HETATM   25  O2  UNL     1     -23.523 -37.271  -6.205  1.00  0.00    -0.283 OA
ENDBRANCH   2  24
TORSDOF 6
ENDMDL
