MODEL 1
REMARK VINA RESULT: -7.257048724      0.000      0.000
REMARK  5 active torsions:
REMARK  status: ('A' for Active; 'I' for Inactive)
REMARK    1  A    between atoms: C5_5  and  N1_6 
REMARK    2  A    between atoms: C7_11  and  N2_12 
REMARK       I    between atoms: N2_12  and  C8_14 
REMARK    3  A    between atoms: C8_14  and  C9_16 
REMARK    4  A    between atoms: N3_21  and  C13_22 
REMARK    5  A    between atoms: C13_22  and  C14_23 
ROOT
HETATM    1  N2  UNL     1     -22.704 -33.492  -6.774  1.00  0.00    -0.354 N 
ATOM      2  H2  UNL     1     -23.694 -33.252  -6.740  1.00  0.00     0.162 HD
HETATM    3  C8  UNL     1     -21.995 -33.675  -5.572  1.00  0.00     0.241 C 
HETATM    4  O1  UNL     1     -20.776 -33.968  -5.634  1.00  0.00    -0.271 OA
ENDROOT
BRANCH   3   5
HETATM    5  C9  UNL     1     -22.655 -33.528  -4.241  1.00  0.00     0.179 C 
HETATM    6  C10 UNL     1     -24.072 -34.073  -4.333  1.00  0.00     0.044 C 
HETATM    7  C11 UNL     1     -23.821 -35.565  -4.392  1.00  0.00     0.105 C 
HETATM    8  C12 UNL     1     -22.556 -35.724  -3.619  1.00  0.00     0.220 C 
HETATM    9  O2  UNL     1     -22.010 -36.829  -3.305  1.00  0.00    -0.273 OA
HETATM   10  N3  UNL     1     -22.059 -34.426  -3.290  1.00  0.00    -0.338 N 
BRANCH  10  11
HETATM   11  C13 UNL     1     -21.149 -34.170  -2.204  1.00  0.00     0.131 C 
BRANCH  11  12
HETATM   12  C14 UNL     1     -21.631 -33.043  -1.305  1.00  0.00     0.008 C 
HETATM   13  C15 UNL     1     -20.943 -31.785  -1.772  1.00  0.00     0.032 C 
HETATM   14  C16 UNL     1     -20.910 -30.709  -0.726  1.00  0.00     0.168 C 
HETATM   15  O3  UNL     1     -20.583 -31.166   0.527  1.00  0.00    -0.391 OA
HETATM   16  C17 UNL     1     -21.569 -32.061   0.942  1.00  0.00     0.168 C 
HETATM   17  C18 UNL     1     -21.348 -33.344   0.145  1.00  0.00     0.032 C 
ENDBRANCH  11  12
ENDBRANCH  10  11
ENDBRANCH   3   5
BRANCH   1  18
HETATM   18  C7  UNL     1     -22.062 -33.634  -8.038  1.00  0.00     0.090 C 
HETATM   19  C2  UNL     1     -22.476 -32.615  -9.045  1.00  0.00     0.004 C 
HETATM   20  C1  UNL     1     -22.565 -31.219  -8.481  1.00  0.00     0.012 C 
HETATM   21  C3  UNL     1     -21.457 -32.634 -10.166  1.00  0.00     0.008 C 
HETATM   22  C4  UNL     1     -20.901 -33.989 -10.431  1.00  0.00     0.033 C 
HETATM   23  C5  UNL     1     -21.795 -35.121 -10.037  1.00  0.00     0.185 C 
HETATM   24  C6  UNL     1     -22.362 -35.005  -8.660  1.00  0.00     0.058 C 
BRANCH  23  25
HETATM   25  N1  UNL     1     -22.809 -35.344 -11.058  1.00  0.00    -0.075 N 
ATOM     26  H13 UNL     1     -23.716 -34.967 -10.781  1.00  0.00     0.274 HD
ATOM     27  H12 UNL     1     -22.651 -34.767 -11.883  1.00  0.00     0.274 HD
ATOM     28  H11 UNL     1     -22.865 -36.335 -11.292  1.00  0.00     0.274 HD
ENDBRANCH  23  25
ENDBRANCH   1  18
TORSDOF 5
ENDMDL
MODEL 2
REMARK VINA RESULT: -7.208292482      2.148      2.607
REMARK  5 active torsions:
REMARK  status: ('A' for Active; 'I' for Inactive)
REMARK    1  A    between atoms: C5_5  and  N1_6 
REMARK    2  A    between atoms: C7_11  and  N2_12 
REMARK       I    between atoms: N2_12  and  C8_14 
REMARK    3  A    between atoms: C8_14  and  C9_16 
REMARK    4  A    between atoms: N3_21  and  C13_22 
REMARK    5  A    between atoms: C13_22  and  C14_23 
ROOT
HETATM    1  N2  UNL     1     -22.214 -33.074  -5.584  1.00  0.00    -0.354 N 
ATOM      2  H2  UNL     1     -23.212 -32.911  -5.715  1.00  0.00     0.162 HD
HETATM    3  C8  UNL     1     -21.768 -33.751  -4.433  1.00  0.00     0.241 C 
HETATM    4  O1  UNL     1     -20.536 -33.941  -4.289  1.00  0.00    -0.271 OA
ENDROOT
BRANCH   3   5
HETATM    5  C9  UNL     1     -22.720 -34.240  -3.393  1.00  0.00     0.179 C 
HETATM    6  C10 UNL     1     -24.070 -34.499  -4.045  1.00  0.00     0.044 C 
HETATM    7  C11 UNL     1     -23.791 -35.764  -4.829  1.00  0.00     0.105 C 
HETATM    8  C12 UNL     1     -22.737 -36.437  -4.018  1.00  0.00     0.220 C 
HETATM    9  O2  UNL     1     -22.262 -37.598  -4.231  1.00  0.00    -0.273 OA
HETATM   10  N3  UNL     1     -22.347 -35.560  -2.960  1.00  0.00    -0.338 N 
BRANCH  10  11
HETATM   11  C13 UNL     1     -21.717 -36.002  -1.744  1.00  0.00     0.131 C 
BRANCH  11  12
HETATM   12  C14 UNL     1     -22.474 -35.548  -0.506  1.00  0.00     0.008 C 
HETATM   13  C15 UNL     1     -21.714 -34.378   0.067  1.00  0.00     0.032 C 
HETATM   14  C16 UNL     1     -22.021 -34.129   1.514  1.00  0.00     0.168 C 
HETATM   15  O3  UNL     1     -22.065 -35.272   2.274  1.00  0.00    -0.391 OA
HETATM   16  C17 UNL     1     -23.104 -36.075   1.804  1.00  0.00     0.168 C 
HETATM   17  C18 UNL     1     -22.622 -36.673   0.485  1.00  0.00     0.032 C 
ENDBRANCH  11  12
ENDBRANCH  10  11
ENDBRANCH   3   5
BRANCH   1  18
HETATM   18  C7  UNL     1     -21.295 -32.611  -6.570  1.00  0.00     0.090 C 
HETATM   19  C2  UNL     1     -21.659 -31.294  -7.165  1.00  0.00     0.004 C 
HETATM   20  C1  UNL     1     -22.127 -30.285  -6.146  1.00  0.00     0.012 C 
HETATM   21  C3  UNL     1     -20.433 -30.753  -7.872  1.00  0.00     0.008 C 
HETATM   22  C4  UNL     1     -19.591 -31.816  -8.485  1.00  0.00     0.033 C 
HETATM   23  C5  UNL     1     -20.324 -33.072  -8.833  1.00  0.00     0.185 C 
HETATM   24  C6  UNL     1     -21.191 -33.601  -7.738  1.00  0.00     0.058 C 
BRANCH  23  25
HETATM   25  N1  UNL     1     -21.030 -32.912 -10.097  1.00  0.00    -0.075 N 
ATOM     26  H13 UNL     1     -21.923 -33.405 -10.099  1.00  0.00     0.274 HD
ATOM     27  H12 UNL     1     -21.381 -31.962 -10.218  1.00  0.00     0.274 HD
ATOM     28  H11 UNL     1     -20.435 -33.199 -10.874  1.00  0.00     0.274 HD
ENDBRANCH  23  25
ENDBRANCH   1  18
TORSDOF 5
ENDMDL
MODEL 3
REMARK VINA RESULT: -7.082330529      1.428      1.792
REMARK  5 active torsions:
REMARK  status: ('A' for Active; 'I' for Inactive)
REMARK    1  A    between atoms: C5_5  and  N1_6 
REMARK    2  A    between atoms: C7_11  and  N2_12 
REMARK       I    between atoms: N2_12  and  C8_14 
REMARK    3  A    between atoms: C8_14  and  C9_16 
REMARK    4  A    between atoms: N3_21  and  C13_22 
REMARK    5  A    between atoms: C13_22  and  C14_23 
ROOT
HETATM    1  N2  UNL     1     -22.646 -33.820  -6.603  1.00  0.00    -0.354 N 
ATOM      2  H2  UNL     1     -23.643 -33.606  -6.589  1.00  0.00     0.162 HD
HETATM    3  C8  UNL     1     -21.968 -34.038  -5.389  1.00  0.00     0.241 C 
HETATM    4  O1  UNL     1     -20.741 -34.300  -5.426  1.00  0.00    -0.271 OA
ENDROOT
BRANCH   3   5
HETATM    5  C9  UNL     1     -22.671 -33.964  -4.074  1.00  0.00     0.179 C 
HETATM    6  C10 UNL     1     -24.140 -34.296  -4.282  1.00  0.00     0.044 C 
HETATM    7  C11 UNL     1     -24.083 -35.791  -4.519  1.00  0.00     0.105 C 
HETATM    8  C12 UNL     1     -22.891 -36.211  -3.729  1.00  0.00     0.220 C 
HETATM    9  O2  UNL     1     -22.510 -37.409  -3.537  1.00  0.00    -0.273 OA
HETATM   10  N3  UNL     1     -22.246 -35.042  -3.222  1.00  0.00    -0.338 N 
BRANCH  10  11
HETATM   11  C13 UNL     1     -21.367 -35.043  -2.082  1.00  0.00     0.131 C 
BRANCH  11  12
HETATM   12  C14 UNL     1     -22.127 -34.934  -0.770  1.00  0.00     0.008 C 
HETATM   13  C15 UNL     1     -21.474 -33.831   0.025  1.00  0.00     0.032 C 
HETATM   14  C16 UNL     1     -21.760 -33.916   1.495  1.00  0.00     0.168 C 
HETATM   15  O3  UNL     1     -21.662 -35.189   2.004  1.00  0.00    -0.391 OA
HETATM   16  C17 UNL     1     -22.628 -35.985   1.388  1.00  0.00     0.168 C 
HETATM   17  C18 UNL     1     -22.129 -36.247  -0.031  1.00  0.00     0.032 C 
ENDBRANCH  11  12
ENDBRANCH  10  11
ENDBRANCH   3   5
BRANCH   1  18
HETATM   18  C7  UNL     1     -21.964 -33.894  -7.852  1.00  0.00     0.090 C 
HETATM   19  C2  UNL     1     -22.254 -32.753  -8.767  1.00  0.00     0.004 C 
HETATM   20  C1  UNL     1     -22.257 -31.414  -8.072  1.00  0.00     0.012 C 
HETATM   21  C3  UNL     1     -21.192 -32.749  -9.848  1.00  0.00     0.008 C 
HETATM   22  C4  UNL     1     -20.733 -34.113 -10.226  1.00  0.00     0.033 C 
HETATM   23  C5  UNL     1     -21.730 -35.201  -9.976  1.00  0.00     0.185 C 
HETATM   24  C6  UNL     1     -22.344 -35.170  -8.615  1.00  0.00     0.058 C 
BRANCH  23  25
HETATM   25  N1  UNL     1     -22.714 -35.241 -11.049  1.00  0.00    -0.075 N 
ATOM     26  H13 UNL     1     -23.328 -36.051 -10.971  1.00  0.00     0.274 HD
ATOM     27  H12 UNL     1     -23.416 -34.508 -10.949  1.00  0.00     0.274 HD
ATOM     28  H11 UNL     1     -22.250 -35.201 -11.957  1.00  0.00     0.274 HD
ENDBRANCH  23  25
ENDBRANCH   1  18
TORSDOF 5
ENDMDL
MODEL 4
REMARK VINA RESULT: -7.009167887      2.788      6.166
REMARK  5 active torsions:
REMARK  status: ('A' for Active; 'I' for Inactive)
REMARK    1  A    between atoms: C5_5  and  N1_6 
REMARK    2  A    between atoms: C7_11  and  N2_12 
REMARK       I    between atoms: N2_12  and  C8_14 
REMARK    3  A    between atoms: C8_14  and  C9_16 
REMARK    4  A    between atoms: N3_21  and  C13_22 
REMARK    5  A    between atoms: C13_22  and  C14_23 
ROOT
HETATM    1  N2  UNL     1     -22.891 -34.991  -5.322  1.00  0.00    -0.354 N 
ATOM      2  H2  UNL     1     -22.062 -34.990  -5.916  1.00  0.00     0.162 HD
HETATM    3  C8  UNL     1     -23.316 -33.789  -4.726  1.00  0.00     0.241 C 
HETATM    4  O1  UNL     1     -24.339 -33.810  -3.997  1.00  0.00    -0.271 OA
ENDROOT
BRANCH   3   5
HETATM    5  C9  UNL     1     -22.585 -32.505  -4.939  1.00  0.00     0.179 C 
HETATM    6  C10 UNL     1     -22.325 -31.857  -3.588  1.00  0.00     0.044 C 
HETATM    7  C11 UNL     1     -21.233 -32.746  -3.031  1.00  0.00     0.105 C 
HETATM    8  C12 UNL     1     -20.526 -33.220  -4.256  1.00  0.00     0.220 C 
HETATM    9  O2  UNL     1     -19.460 -33.913  -4.279  1.00  0.00    -0.273 OA
HETATM   10  N3  UNL     1     -21.249 -32.765  -5.401  1.00  0.00    -0.338 N 
BRANCH  10  11
HETATM   11  C13 UNL     1     -20.668 -32.627  -6.711  1.00  0.00     0.131 C 
BRANCH  11  12
HETATM   12  C14 UNL     1     -21.151 -31.375  -7.425  1.00  0.00     0.008 C 
HETATM   13  C15 UNL     1     -22.142 -31.821  -8.470  1.00  0.00     0.032 C 
HETATM   14  C16 UNL     1     -22.337 -30.813  -9.565  1.00  0.00     0.168 C 
HETATM   15  O3  UNL     1     -21.165 -30.258 -10.018  1.00  0.00    -0.391 OA
HETATM   16  C17 UNL     1     -20.573 -29.558  -8.967  1.00  0.00     0.168 C 
HETATM   17  C18 UNL     1     -19.998 -30.609  -8.021  1.00  0.00     0.032 C 
ENDBRANCH  11  12
ENDBRANCH  10  11
ENDBRANCH   3   5
BRANCH   1  18
HETATM   18  C7  UNL     1     -23.598 -36.210  -5.110  1.00  0.00     0.090 C 
HETATM   19  C2  UNL     1     -22.892 -37.169  -4.213  1.00  0.00     0.004 C 
HETATM   20  C1  UNL     1     -22.285 -36.515  -2.997  1.00  0.00     0.012 C 
HETATM   21  C3  UNL     1     -23.900 -38.208  -3.766  1.00  0.00     0.008 C 
HETATM   22  C4  UNL     1     -24.916 -38.528  -4.807  1.00  0.00     0.033 C 
HETATM   23  C5  UNL     1     -24.468 -38.284  -6.214  1.00  0.00     0.185 C 
HETATM   24  C6  UNL     1     -23.836 -36.949  -6.434  1.00  0.00     0.058 C 
BRANCH  23  25
HETATM   25  N1  UNL     1     -23.648 -39.391  -6.682  1.00  0.00    -0.075 N 
ATOM     26  H13 UNL     1     -23.915 -40.274  -6.246  1.00  0.00     0.274 HD
ATOM     27  H12 UNL     1     -23.853 -39.634  -7.651  1.00  0.00     0.274 HD
ATOM     28  H11 UNL     1     -22.659 -39.183  -6.545  1.00  0.00     0.274 HD
ENDBRANCH  23  25
ENDBRANCH   1  18
TORSDOF 5
ENDMDL
MODEL 5
REMARK VINA RESULT: -6.998735137      2.147      3.093
REMARK  5 active torsions:
REMARK  status: ('A' for Active; 'I' for Inactive)
REMARK    1  A    between atoms: C5_5  and  N1_6 
REMARK    2  A    between atoms: C7_11  and  N2_12 
REMARK       I    between atoms: N2_12  and  C8_14 
REMARK    3  A    between atoms: C8_14  and  C9_16 
REMARK    4  A    between atoms: N3_21  and  C13_22 
REMARK    5  A    between atoms: C13_22  and  C14_23 
ROOT
HETATM    1  N2  UNL     1     -21.544 -31.611  -6.254  1.00  0.00    -0.354 N 
ATOM      2  H2  UNL     1     -20.729 -31.664  -5.644  1.00  0.00     0.162 HD
HETATM    3  C8  UNL     1     -22.798 -32.030  -5.772  1.00  0.00     0.241 C 
HETATM    4  O1  UNL     1     -23.790 -31.958  -6.538  1.00  0.00    -0.271 OA
ENDROOT
BRANCH   3   5
HETATM    5  C9  UNL     1     -22.971 -32.553  -4.384  1.00  0.00     0.179 C 
HETATM    6  C10 UNL     1     -23.588 -33.941  -4.455  1.00  0.00     0.044 C 
HETATM    7  C11 UNL     1     -22.421 -34.767  -4.954  1.00  0.00     0.105 C 
HETATM    8  C12 UNL     1     -21.238 -34.041  -4.411  1.00  0.00     0.220 C 
HETATM    9  O2  UNL     1     -20.029 -34.429  -4.483  1.00  0.00    -0.273 OA
HETATM   10  N3  UNL     1     -21.689 -32.833  -3.796  1.00  0.00    -0.338 N 
BRANCH  10  11
HETATM   11  C13 UNL     1     -20.940 -32.115  -2.797  1.00  0.00     0.131 C 
BRANCH  11  12
HETATM   12  C14 UNL     1     -21.540 -32.269  -1.409  1.00  0.00     0.008 C 
HETATM   13  C15 UNL     1     -20.912 -31.209  -0.540  1.00  0.00     0.032 C 
HETATM   14  C16 UNL     1     -21.003 -31.518   0.925  1.00  0.00     0.168 C 
HETATM   15  O3  UNL     1     -20.711 -32.825   1.233  1.00  0.00    -0.391 OA
HETATM   16  C17 UNL     1     -21.657 -33.645   0.617  1.00  0.00     0.168 C 
HETATM   17  C18 UNL     1     -21.313 -33.658  -0.870  1.00  0.00     0.032 C 
ENDBRANCH  11  12
ENDBRANCH  10  11
ENDBRANCH   3   5
BRANCH   1  18
HETATM   18  C7  UNL     1     -21.393 -31.114  -7.581  1.00  0.00     0.090 C 
HETATM   19  C2  UNL     1     -20.460 -31.915  -8.424  1.00  0.00     0.004 C 
HETATM   20  C1  UNL     1     -20.646 -33.404  -8.273  1.00  0.00     0.012 C 
HETATM   21  C3  UNL     1     -20.698 -31.529  -9.869  1.00  0.00     0.008 C 
HETATM   22  C4  UNL     1     -21.064 -30.097 -10.043  1.00  0.00     0.033 C 
HETATM   23  C5  UNL     1     -20.572 -29.190  -8.960  1.00  0.00     0.185 C 
HETATM   24  C6  UNL     1     -20.849 -29.679  -7.576  1.00  0.00     0.058 C 
BRANCH  23  25
HETATM   25  N1  UNL     1     -19.173 -28.852  -9.180  1.00  0.00    -0.075 N 
ATOM     26  H13 UNL     1     -18.702 -29.545  -9.761  1.00  0.00     0.274 HD
ATOM     27  H12 UNL     1     -19.069 -28.044  -9.793  1.00  0.00     0.274 HD
ATOM     28  H11 UNL     1     -18.697 -28.716  -8.288  1.00  0.00     0.274 HD
ENDBRANCH  23  25
ENDBRANCH   1  18
TORSDOF 5
ENDMDL
