MODEL 1
REMARK VINA RESULT: -6.557516707      0.000      0.000
REMARK  8 active torsions:
REMARK  status: ('A' for Active; 'I' for Inactive)
REMARK    1  A    between atoms: N1_2  and  C2_4 
REMARK    2  A    between atoms: C3_7  and  N3_8 
REMARK    3  A    between atoms: N3_8  and  C4_10 
REMARK    4  A    between atoms: C4_10  and  C5_11 
REMARK    5  A    between atoms: C5_11  and  O1_12 
REMARK    6  A    between atoms: C6_16  and  N5_17 
REMARK    7  A    between atoms: N5_17  and  C7_19 
REMARK    8  A    between atoms: C7_19  and  N6_21 
ROOT
HETATM    1  C2  UNL     1       7.417 -11.062   5.136  1.00  0.00     0.706 A 
HETATM    2  N2  UNL     1       6.667 -10.383   4.252  1.00  0.00    -0.022 N 
ATOM      3  H2  UNL     1       6.572  -9.369   4.309  1.00  0.00     0.203 HD
HETATM    4  C3  UNL     1       6.045 -11.092   3.285  1.00  0.00     0.707 A 
HETATM    5  N4  UNL     1       6.166 -12.440   3.201  1.00  0.00    -0.021 N 
ATOM      6  H4  UNL     1       5.687 -12.951   2.460  1.00  0.00     0.203 HD
HETATM    7  C6  UNL     1       6.918 -13.096   4.094  1.00  0.00     0.709 A 
HETATM    8  N7  UNL     1       7.539 -12.400   5.056  1.00  0.00    -0.021 N 
ATOM      9  H7  UNL     1       8.112 -12.893   5.740  1.00  0.00     0.203 HD
ENDROOT
BRANCH   7  10
HETATM   10  N5  UNL     1       7.032 -14.350   4.017  1.00  0.00    -0.196 N 
ATOM     11  H5  UNL     1       7.551 -14.793   4.776  1.00  0.00     0.180 HD
BRANCH  10  12
HETATM   12  C7  UNL     1       6.535 -15.232   3.017  1.00  0.00     0.293 C 
HETATM   13  C8  UNL     1       6.068 -16.566   3.547  1.00  0.00     0.063 C 
BRANCH  12  14
HETATM   14  N6  UNL     1       7.441 -15.384   1.879  1.00  0.00    -0.058 N 
ATOM     15  H63 UNL     1       7.616 -14.484   1.432  1.00  0.00     0.276 HD
ATOM     16  H62 UNL     1       8.387 -15.602   2.195  1.00  0.00     0.276 HD
ATOM     17  H61 UNL     1       7.119 -16.071   1.197  1.00  0.00     0.276 HD
ENDBRANCH  12  14
ENDBRANCH  10  12
ENDBRANCH   7  10
BRANCH   4  18
HETATM   18  N3  UNL     1       5.306 -10.500   2.397  1.00  0.00    -0.223 N 
ATOM     19  H3  UNL     1       4.816  -9.632   2.613  1.00  0.00     0.177 HD
BRANCH  18  20
HETATM   20  C4  UNL     1       5.199 -11.111   1.093  1.00  0.00     0.164 C 
BRANCH  20  21
HETATM   21  C5  UNL     1       3.879 -11.849   1.049  1.00  0.00     0.184 C 
BRANCH  21  22
HETATM   22  O1  UNL     1       4.079 -13.202   0.883  1.00  0.00    -0.399 OA
ATOM     23  H1  UNL     1       4.632 -13.550   1.572  1.00  0.00     0.209 HD
ENDBRANCH  21  22
ENDBRANCH  20  21
ENDBRANCH  18  20
ENDBRANCH   4  18
BRANCH   1  24
HETATM   24  N1  UNL     1       8.016 -10.398   6.064  1.00  0.00    -0.229 N 
HETATM   25  C1  UNL     1       7.304  -9.814   7.164  1.00  0.00     0.165 C 
ATOM     26  H1  UNL     1       9.028 -10.284   6.015  1.00  0.00     0.177 HD
ENDBRANCH   1  24
TORSDOF 8
ENDMDL
MODEL 2
REMARK VINA RESULT: -6.408372535      1.721      5.074
REMARK  8 active torsions:
REMARK  status: ('A' for Active; 'I' for Inactive)
REMARK    1  A    between atoms: N1_2  and  C2_4 
REMARK    2  A    between atoms: C3_7  and  N3_8 
REMARK    3  A    between atoms: N3_8  and  C4_10 
REMARK    4  A    between atoms: C4_10  and  C5_11 
REMARK    5  A    between atoms: C5_11  and  O1_12 
REMARK    6  A    between atoms: C6_16  and  N5_17 
REMARK    7  A    between atoms: N5_17  and  C7_19 
REMARK    8  A    between atoms: C7_19  and  N6_21 
ROOT
HETATM    1  C2  UNL     1       5.384 -13.066   2.081  1.00  0.00     0.706 A 
HETATM    2  N2  UNL     1       5.909 -14.302   2.110  1.00  0.00    -0.022 N 
ATOM      3  H2  UNL     1       5.784 -14.948   1.331  1.00  0.00     0.203 HD
HETATM    4  C3  UNL     1       6.611 -14.657   3.209  1.00  0.00     0.707 A 
HETATM    5  N4  UNL     1       6.783 -13.805   4.249  1.00  0.00    -0.021 N 
ATOM      6  H4  UNL     1       7.318 -14.098   5.067  1.00  0.00     0.203 HD
HETATM    7  C6  UNL     1       6.249 -12.578   4.199  1.00  0.00     0.709 A 
HETATM    8  N7  UNL     1       5.552 -12.218   3.113  1.00  0.00    -0.021 N 
ATOM      9  H7  UNL     1       5.142 -11.286   3.067  1.00  0.00     0.203 HD
ENDROOT
BRANCH   7  10
HETATM   10  N5  UNL     1       6.409 -11.784   5.166  1.00  0.00    -0.196 N 
ATOM     11  H5  UNL     1       5.580 -11.609   5.734  1.00  0.00     0.180 HD
BRANCH  10  12
HETATM   12  C7  UNL     1       7.588 -11.101   5.575  1.00  0.00     0.293 C 
HETATM   13  C8  UNL     1       7.377 -10.128   6.709  1.00  0.00     0.063 C 
BRANCH  12  14
HETATM   14  N6  UNL     1       8.318 -10.492   4.463  1.00  0.00    -0.058 N 
ATOM     15  H63 UNL     1       8.015 -10.885   3.572  1.00  0.00     0.276 HD
ATOM     16  H62 UNL     1       8.027  -9.523   4.326  1.00  0.00     0.276 HD
ATOM     17  H61 UNL     1       9.331 -10.556   4.562  1.00  0.00     0.276 HD
ENDBRANCH  12  14
ENDBRANCH  10  12
ENDBRANCH   7  10
BRANCH   4  18
HETATM   18  N3  UNL     1       7.148 -15.836   3.304  1.00  0.00    -0.223 N 
ATOM     19  H3  UNL     1       8.156 -15.963   3.218  1.00  0.00     0.177 HD
BRANCH  18  20
HETATM   20  C4  UNL     1       6.271 -16.959   3.536  1.00  0.00     0.164 C 
BRANCH  20  21
HETATM   21  C5  UNL     1       6.349 -17.849   2.315  1.00  0.00     0.184 C 
BRANCH  21  22
HETATM   22  O1  UNL     1       5.606 -17.326   1.278  1.00  0.00    -0.399 OA
ATOM     23  H1  UNL     1       5.383 -18.000   0.647  1.00  0.00     0.209 HD
ENDBRANCH  21  22
ENDBRANCH  20  21
ENDBRANCH  18  20
ENDBRANCH   4  18
BRANCH   1  24
HETATM   24  N1  UNL     1       4.712 -12.714   1.039  1.00  0.00    -0.229 N 
HETATM   25  C1  UNL     1       3.790 -11.614   1.062  1.00  0.00     0.165 C 
ATOM     26  H1  UNL     1       4.839 -13.234   0.171  1.00  0.00     0.177 HD
ENDBRANCH   1  24
TORSDOF 8
ENDMDL
MODEL 3
REMARK VINA RESULT: -6.318458798      1.755      4.484
REMARK  8 active torsions:
REMARK  status: ('A' for Active; 'I' for Inactive)
REMARK    1  A    between atoms: N1_2  and  C2_4 
REMARK    2  A    between atoms: C3_7  and  N3_8 
REMARK    3  A    between atoms: N3_8  and  C4_10 
REMARK    4  A    between atoms: C4_10  and  C5_11 
REMARK    5  A    between atoms: C5_11  and  O1_12 
REMARK    6  A    between atoms: C6_16  and  N5_17 
REMARK    7  A    between atoms: N5_17  and  C7_19 
REMARK    8  A    between atoms: C7_19  and  N6_21 
ROOT
HETATM    1  C2  UNL     1       6.960 -15.051   2.106  1.00  0.00     0.706 A 
HETATM    2  N2  UNL     1       5.978 -14.573   1.323  1.00  0.00    -0.022 N 
ATOM      3  H2  UNL     1       5.749 -15.015   0.433  1.00  0.00     0.203 HD
HETATM    4  C3  UNL     1       5.306 -13.485   1.758  1.00  0.00     0.707 A 
HETATM    5  N4  UNL     1       5.604 -12.889   2.939  1.00  0.00    -0.021 N 
ATOM      6  H4  UNL     1       5.080 -12.069   3.245  1.00  0.00     0.203 HD
HETATM    7  C6  UNL     1       6.587 -13.383   3.702  1.00  0.00     0.709 A 
HETATM    8  N7  UNL     1       7.259 -14.462   3.278  1.00  0.00    -0.021 N 
ATOM      9  H7  UNL     1       8.009 -14.843   3.853  1.00  0.00     0.203 HD
ENDROOT
BRANCH   7  10
HETATM   10  N5  UNL     1       6.865 -12.830   4.802  1.00  0.00    -0.196 N 
ATOM     11  H5  UNL     1       6.551 -13.326   5.636  1.00  0.00     0.180 HD
BRANCH  10  12
HETATM   12  C7  UNL     1       7.557 -11.609   5.038  1.00  0.00     0.293 C 
HETATM   13  C8  UNL     1       6.715 -10.538   5.686  1.00  0.00     0.063 C 
BRANCH  12  14
HETATM   14  N6  UNL     1       8.265 -11.109   3.859  1.00  0.00    -0.058 N 
ATOM     15  H63 UNL     1       8.581 -11.880   3.272  1.00  0.00     0.276 HD
ATOM     16  H62 UNL     1       7.617 -10.658   3.212  1.00  0.00     0.276 HD
ATOM     17  H61 UNL     1       9.039 -10.487   4.089  1.00  0.00     0.276 HD
ENDBRANCH  12  14
ENDBRANCH  10  12
ENDBRANCH   7  10
BRANCH   4  18
HETATM   18  N3  UNL     1       4.344 -12.970   1.053  1.00  0.00    -0.223 N 
ATOM     19  H3  UNL     1       3.863 -13.518   0.340  1.00  0.00     0.177 HD
BRANCH  18  20
HETATM   20  C4  UNL     1       3.979 -11.598   1.312  1.00  0.00     0.164 C 
BRANCH  20  21
HETATM   21  C5  UNL     1       5.220 -10.757   1.111  1.00  0.00     0.184 C 
BRANCH  21  22
HETATM   22  O1  UNL     1       5.605 -10.160   2.293  1.00  0.00    -0.399 OA
ATOM     23  H1  UNL     1       6.285  -9.514   2.140  1.00  0.00     0.209 HD
ENDBRANCH  21  22
ENDBRANCH  20  21
ENDBRANCH  18  20
ENDBRANCH   4  18
BRANCH   1  24
HETATM   24  N1  UNL     1       7.609 -16.088   1.702  1.00  0.00    -0.229 N 
HETATM   25  C1  UNL     1       8.012 -16.252   0.335  1.00  0.00     0.165 C 
ATOM     26  H1  UNL     1       7.845 -16.816   2.377  1.00  0.00     0.177 HD
ENDBRANCH   1  24
TORSDOF 8
ENDMDL
MODEL 4
REMARK VINA RESULT: -6.256538461      2.439      4.291
REMARK  8 active torsions:
REMARK  status: ('A' for Active; 'I' for Inactive)
REMARK    1  A    between atoms: N1_2  and  C2_4 
REMARK    2  A    between atoms: C3_7  and  N3_8 
REMARK    3  A    between atoms: N3_8  and  C4_10 
REMARK    4  A    between atoms: C4_10  and  C5_11 
REMARK    5  A    between atoms: C5_11  and  O1_12 
REMARK    6  A    between atoms: C6_16  and  N5_17 
REMARK    7  A    between atoms: N5_17  and  C7_19 
REMARK    8  A    between atoms: C7_19  and  N6_21 
ROOT
HETATM    1  C2  UNL     1       5.688 -13.037   1.871  1.00  0.00     0.706 A 
HETATM    2  N2  UNL     1       6.211 -12.325   2.883  1.00  0.00    -0.022 N 
ATOM      3  H2  UNL     1       6.126 -11.309   2.913  1.00  0.00     0.203 HD
HETATM    4  C3  UNL     1       6.852 -13.004   3.860  1.00  0.00     0.707 A 
HETATM    5  N4  UNL     1       6.969 -14.354   3.829  1.00  0.00    -0.021 N 
ATOM      6  H4  UNL     1       7.458 -14.842   4.579  1.00  0.00     0.203 HD
HETATM    7  C6  UNL     1       6.442 -15.043   2.809  1.00  0.00     0.709 A 
HETATM    8  N7  UNL     1       5.804 -14.378   1.836  1.00  0.00    -0.021 N 
ATOM      9  H7  UNL     1       5.400 -14.895   1.057  1.00  0.00     0.203 HD
ENDROOT
BRANCH   7  10
HETATM   10  N5  UNL     1       6.550 -16.300   2.779  1.00  0.00    -0.196 N 
ATOM     11  H5  UNL     1       5.811 -16.817   3.256  1.00  0.00     0.180 HD
BRANCH  10  12
HETATM   12  C7  UNL     1       7.561 -17.095   2.170  1.00  0.00     0.293 C 
HETATM   13  C8  UNL     1       8.300 -17.996   3.129  1.00  0.00     0.063 C 
BRANCH  12  14
HETATM   14  N6  UNL     1       8.477 -16.321   1.332  1.00  0.00    -0.058 N 
ATOM     15  H63 UNL     1       8.168 -16.323   0.360  1.00  0.00     0.276 HD
ATOM     16  H62 UNL     1       8.397 -15.324   1.533  1.00  0.00     0.276 HD
ATOM     17  H61 UNL     1       9.447 -16.629   1.405  1.00  0.00     0.276 HD
ENDBRANCH  12  14
ENDBRANCH  10  12
ENDBRANCH   7  10
BRANCH   4  18
HETATM   18  N3  UNL     1       7.379 -12.379   4.868  1.00  0.00    -0.223 N 
ATOM     19  H3  UNL     1       7.736 -12.890   5.675  1.00  0.00     0.177 HD
BRANCH  18  20
HETATM   20  C4  UNL     1       7.446 -10.939   4.810  1.00  0.00     0.164 C 
BRANCH  20  21
HETATM   21  C5  UNL     1       6.962 -10.412   6.143  1.00  0.00     0.184 C 
BRANCH  21  22
HETATM   22  O1  UNL     1       8.011  -9.902   6.879  1.00  0.00    -0.399 OA
ATOM     23  H1  UNL     1       8.491  -9.254   6.378  1.00  0.00     0.209 HD
ENDBRANCH  21  22
ENDBRANCH  20  21
ENDBRANCH  18  20
ENDBRANCH   4  18
BRANCH   1  24
HETATM   24  N1  UNL     1       5.075 -12.403   0.932  1.00  0.00    -0.229 N 
HETATM   25  C1  UNL     1       4.247 -11.261   1.199  1.00  0.00     0.165 C 
ATOM     26  H1  UNL     1       5.180 -12.722  -0.031  1.00  0.00     0.177 HD
ENDBRANCH   1  24
TORSDOF 8
ENDMDL
MODEL 5
REMARK VINA RESULT: -6.211176408      2.417      5.135
REMARK  8 active torsions:
REMARK  status: ('A' for Active; 'I' for Inactive)
REMARK    1  A    between atoms: N1_2  and  C2_4 
REMARK    2  A    between atoms: C3_7  and  N3_8 
REMARK    3  A    between atoms: N3_8  and  C4_10 
REMARK    4  A    between atoms: C4_10  and  C5_11 
REMARK    5  A    between atoms: C5_11  and  O1_12 
REMARK    6  A    between atoms: C6_16  and  N5_17 
REMARK    7  A    between atoms: N5_17  and  C7_19 
REMARK    8  A    between atoms: C7_19  and  N6_21 
ROOT
HETATM    1  C2  UNL     1       5.680 -12.872   1.600  1.00  0.00     0.706 A 
HETATM    2  N2  UNL     1       6.279 -14.009   1.209  1.00  0.00    -0.022 N 
ATOM      3  H2  UNL     1       6.140 -14.385   0.272  1.00  0.00     0.203 HD
HETATM    4  C3  UNL     1       7.072 -14.637   2.105  1.00  0.00     0.707 A 
HETATM    5  N4  UNL     1       7.263 -14.145   3.355  1.00  0.00    -0.021 N 
ATOM      6  H4  UNL     1       7.867 -14.638   4.011  1.00  0.00     0.203 HD
HETATM    7  C6  UNL     1       6.654 -13.011   3.722  1.00  0.00     0.709 A 
HETATM    8  N7  UNL     1       5.866 -12.382   2.840  1.00  0.00    -0.021 N 
ATOM      9  H7  UNL     1       5.398 -11.518   3.112  1.00  0.00     0.203 HD
ENDROOT
BRANCH   7  10
HETATM   10  N5  UNL     1       6.830 -12.552   4.884  1.00  0.00    -0.196 N 
ATOM     11  H5  UNL     1       6.370 -13.067   5.635  1.00  0.00     0.180 HD
BRANCH  10  12
HETATM   12  C7  UNL     1       7.585 -11.416   5.291  1.00  0.00     0.293 C 
HETATM   13  C8  UNL     1       6.800 -10.410   6.097  1.00  0.00     0.063 C 
BRANCH  12  14
HETATM   14  N6  UNL     1       8.316 -10.785   4.192  1.00  0.00    -0.058 N 
ATOM     15  H63 UNL     1       8.974 -10.091   4.546  1.00  0.00     0.276 HD
ATOM     16  H62 UNL     1       8.973 -11.441   3.770  1.00  0.00     0.276 HD
ATOM     17  H61 UNL     1       7.705 -10.377   3.484  1.00  0.00     0.276 HD
ENDBRANCH  12  14
ENDBRANCH  10  12
ENDBRANCH   7  10
BRANCH   4  18
HETATM   18  N3  UNL     1       7.684 -15.739   1.795  1.00  0.00    -0.223 N 
ATOM     19  H3  UNL     1       8.108 -16.325   2.514  1.00  0.00     0.177 HD
BRANCH  18  20
HETATM   20  C4  UNL     1       7.741 -16.109   0.402  1.00  0.00     0.164 C 
BRANCH  20  21
HETATM   21  C5  UNL     1       8.995 -16.934   0.208  1.00  0.00     0.184 C 
BRANCH  21  22
HETATM   22  O1  UNL     1       9.929 -16.644   1.178  1.00  0.00    -0.399 OA
ATOM     23  H1  UNL     1      10.809 -16.684   0.824  1.00  0.00     0.209 HD
ENDBRANCH  21  22
ENDBRANCH  20  21
ENDBRANCH  18  20
ENDBRANCH   4  18
BRANCH   1  24
HETATM   24  N1  UNL     1       4.920 -12.263   0.756  1.00  0.00    -0.229 N 
HETATM   25  C1  UNL     1       3.806 -11.460   1.174  1.00  0.00     0.165 C 
ATOM     26  H1  UNL     1       5.116 -12.355  -0.241  1.00  0.00     0.177 HD
ENDBRANCH   1  24
TORSDOF 8
ENDMDL
