MODEL 1
REMARK VINA RESULT: -7.229464048      0.000      0.000
REMARK  13 active torsions:
REMARK  status: ('A' for Active; 'I' for Inactive)
REMARK    1  A    between atoms: O1_2  and  C2_3 
REMARK    2  A    between atoms: C2_3  and  N1_4 
REMARK    3  A    between atoms: C3_6  and  N2_7 
REMARK    4  A    between atoms: N2_7  and  C4_9 
REMARK    5  A    between atoms: C4_9  and  S3_11 
REMARK    6  A    between atoms: S3_11  and  S4_12 
REMARK    7  A    between atoms: S4_12  and  C5_13 
REMARK    8  A    between atoms: C5_13  and  C6_14 
REMARK    9  A    between atoms: C6_14  and  C7_15 
REMARK   10  A    between atoms: C8_16  and  C9_17 
REMARK   11  A    between atoms: C9_17  and  C11_19 
REMARK   12  A    between atoms: C11_19  and  O2_20 
REMARK   13  A    between atoms: C11_19  and  N3_22 
ROOT
HETATM    1  S3  UNL     1      27.016  28.308  24.000  1.00  0.00    -0.028 SA
ENDROOT
BRANCH   1   2
HETATM    2  C4  UNL     1      27.173  26.556  23.948  1.00  0.00     0.151 C 
HETATM    3  S2  UNL     1      28.027  25.732  25.099  1.00  0.00    -0.052 SA
BRANCH   2   4
HETATM    4  N2  UNL     1      26.574  25.791  22.915  1.00  0.00    -0.320 N 
ATOM      5  H2  UNL     1      25.575  25.866  22.720  1.00  0.00     0.169 HD
BRANCH   4   6
HETATM    6  C3  UNL     1      27.340  24.983  22.215  1.00  0.00     0.171 A 
HETATM    7  S1  UNL     1      27.326  23.277  22.119  1.00  0.00     0.031 SA
HETATM    8  N1  UNL     1      28.593  23.085  21.028  1.00  0.00    -0.243 N 
HETATM    9  C15 UNL     1      28.972  24.339  20.786  1.00  0.00     0.336 A 
HETATM   10  N4  UNL     1      28.336  25.304  21.389  1.00  0.00    -0.287 N 
HETATM   11  O3  UNL     1      29.951  24.547  19.966  1.00  0.00    -0.246 OA
ATOM     12  H4  UNL     1      28.593  26.278  21.231  1.00  0.00     0.172 HD
BRANCH   8  13
HETATM   13  C2  UNL     1      29.158  21.845  20.468  1.00  0.00     0.310 C 
BRANCH  13  14
HETATM   14  O1  UNL     1      28.372  21.436  19.405  1.00  0.00    -0.376 OA
HETATM   15  C1  UNL     1      29.040  20.482  18.645  1.00  0.00     0.203 C 
ENDBRANCH  13  14
ENDBRANCH   8  13
ENDBRANCH   4   6
ENDBRANCH   2   4
ENDBRANCH   1   2
BRANCH   1  16
HETATM   16  S4  UNL     1      28.850  29.265  24.393  1.00  0.00    -0.090 SA
BRANCH  16  17
HETATM   17  C5  UNL     1      28.902  30.004  26.036  1.00  0.00     0.090 C 
BRANCH  17  18
HETATM   18  C6  UNL     1      28.318  31.376  26.112  1.00  0.00     0.038 C 
BRANCH  18  19
HETATM   19  C7  UNL     1      27.169  31.310  27.071  1.00  0.00    -0.029 C 
HETATM   20  C8  UNL     1      26.581  30.176  27.389  1.00  0.00    -0.022 C 
BRANCH  20  21
HETATM   21  C9  UNL     1      25.461  30.009  28.309  1.00  0.00     0.063 C 
HETATM   22  C10 UNL     1      25.135  31.361  28.955  1.00  0.00     0.018 C 
BRANCH  21  23
HETATM   23  C11 UNL     1      24.186  29.490  27.703  1.00  0.00     0.363 C 
BRANCH  23  24
HETATM   24  O2  UNL     1      23.093  29.933  28.458  1.00  0.00    -0.367 OA
ATOM     25  H2  UNL     1      22.861  30.816  28.195  1.00  0.00     0.212 HD
ENDBRANCH  23  24
BRANCH  23  26
HETATM   26  N3  UNL     1      24.260  28.036  27.799  1.00  0.00     0.117 N 
HETATM   27  C12 UNL     1      24.253  27.330  26.555  1.00  0.00     0.277 C 
HETATM   28  C13 UNL     1      23.172  26.421  27.144  1.00  0.00     0.061 C 
HETATM   29  C14 UNL     1      23.114  27.373  28.335  1.00  0.00     0.277 C 
ENDBRANCH  23  26
ENDBRANCH  21  23
ENDBRANCH  20  21
ENDBRANCH  18  19
ENDBRANCH  17  18
ENDBRANCH  16  17
ENDBRANCH   1  16
TORSDOF 13
ENDMDL
MODEL 2
REMARK VINA RESULT: -7.108541493      1.001      1.155
REMARK  13 active torsions:
REMARK  status: ('A' for Active; 'I' for Inactive)
REMARK    1  A    between atoms: O1_2  and  C2_3 
REMARK    2  A    between atoms: C2_3  and  N1_4 
REMARK    3  A    between atoms: C3_6  and  N2_7 
REMARK    4  A    between atoms: N2_7  and  C4_9 
REMARK    5  A    between atoms: C4_9  and  S3_11 
REMARK    6  A    between atoms: S3_11  and  S4_12 
REMARK    7  A    between atoms: S4_12  and  C5_13 
REMARK    8  A    between atoms: C5_13  and  C6_14 
REMARK    9  A    between atoms: C6_14  and  C7_15 
REMARK   10  A    between atoms: C8_16  and  C9_17 
REMARK   11  A    between atoms: C9_17  and  C11_19 
REMARK   12  A    between atoms: C11_19  and  O2_20 
REMARK   13  A    between atoms: C11_19  and  N3_22 
ROOT
HETATM    1  S3  UNL     1      27.676  26.189  25.214  1.00  0.00    -0.028 SA
ENDROOT
BRANCH   1   2
HETATM    2  C4  UNL     1      26.512  25.429  24.137  1.00  0.00     0.151 C 
HETATM    3  S2  UNL     1      25.287  24.483  24.719  1.00  0.00    -0.052 SA
BRANCH   2   4
HETATM    4  N2  UNL     1      26.584  25.602  22.731  1.00  0.00    -0.320 N 
ATOM      5  H2  UNL     1      26.010  26.300  22.259  1.00  0.00     0.169 HD
BRANCH   4   6
HETATM    6  C3  UNL     1      27.411  24.836  22.053  1.00  0.00     0.171 A 
HETATM    7  S1  UNL     1      27.516  23.132  21.986  1.00  0.00     0.031 SA
HETATM    8  N1  UNL     1      28.803  23.010  20.910  1.00  0.00    -0.243 N 
HETATM    9  C15 UNL     1      29.097  24.283  20.648  1.00  0.00     0.336 A 
HETATM   10  N4  UNL     1      28.389  25.211  21.228  1.00  0.00    -0.287 N 
HETATM   11  O3  UNL     1      30.067  24.545  19.833  1.00  0.00    -0.246 OA
ATOM     12  H4  UNL     1      28.580  26.198  21.056  1.00  0.00     0.172 HD
BRANCH   8  13
HETATM   13  C2  UNL     1      29.459  21.803  20.377  1.00  0.00     0.310 C 
BRANCH  13  14
HETATM   14  O1  UNL     1      29.014  21.586  19.085  1.00  0.00    -0.376 OA
HETATM   15  C1  UNL     1      28.126  20.517  19.049  1.00  0.00     0.203 C 
ENDBRANCH  13  14
ENDBRANCH   8  13
ENDBRANCH   4   6
ENDBRANCH   2   4
ENDBRANCH   1   2
BRANCH   1  16
HETATM   16  S4  UNL     1      28.437  27.989  24.431  1.00  0.00    -0.090 SA
BRANCH  16  17
HETATM   17  C5  UNL     1      27.420  29.413  24.866  1.00  0.00     0.090 C 
BRANCH  17  18
HETATM   18  C6  UNL     1      28.014  30.296  25.913  1.00  0.00     0.038 C 
BRANCH  18  19
HETATM   19  C7  UNL     1      27.038  30.347  27.048  1.00  0.00    -0.029 C 
HETATM   20  C8  UNL     1      26.008  29.532  27.128  1.00  0.00    -0.022 C 
BRANCH  20  21
HETATM   21  C9  UNL     1      25.007  29.502  28.190  1.00  0.00     0.063 C 
HETATM   22  C10 UNL     1      24.844  30.914  28.766  1.00  0.00     0.018 C 
BRANCH  21  23
HETATM   23  C11 UNL     1      23.637  29.029  27.787  1.00  0.00     0.363 C 
BRANCH  23  24
HETATM   24  O2  UNL     1      22.669  29.687  28.554  1.00  0.00    -0.367 OA
ATOM     25  H2  UNL     1      21.922  29.114  28.685  1.00  0.00     0.212 HD
ENDBRANCH  23  24
BRANCH  23  26
HETATM   26  N3  UNL     1      23.597  27.605  28.104  1.00  0.00     0.117 N 
HETATM   27  C12 UNL     1      23.189  26.742  27.038  1.00  0.00     0.277 C 
HETATM   28  C13 UNL     1      22.225  26.078  28.024  1.00  0.00     0.061 C 
HETATM   29  C14 UNL     1      22.579  27.184  29.013  1.00  0.00     0.277 C 
ENDBRANCH  23  26
ENDBRANCH  21  23
ENDBRANCH  20  21
ENDBRANCH  18  19
ENDBRANCH  17  18
ENDBRANCH  16  17
ENDBRANCH   1  16
TORSDOF 13
ENDMDL
MODEL 3
REMARK VINA RESULT: -6.994299091      1.531      2.386
REMARK  13 active torsions:
REMARK  status: ('A' for Active; 'I' for Inactive)
REMARK    1  A    between atoms: O1_2  and  C2_3 
REMARK    2  A    between atoms: C2_3  and  N1_4 
REMARK    3  A    between atoms: C3_6  and  N2_7 
REMARK    4  A    between atoms: N2_7  and  C4_9 
REMARK    5  A    between atoms: C4_9  and  S3_11 
REMARK    6  A    between atoms: S3_11  and  S4_12 
REMARK    7  A    between atoms: S4_12  and  C5_13 
REMARK    8  A    between atoms: C5_13  and  C6_14 
REMARK    9  A    between atoms: C6_14  and  C7_15 
REMARK   10  A    between atoms: C8_16  and  C9_17 
REMARK   11  A    between atoms: C9_17  and  C11_19 
REMARK   12  A    between atoms: C11_19  and  O2_20 
REMARK   13  A    between atoms: C11_19  and  N3_22 
ROOT
HETATM    1  S3  UNL     1      27.551  28.298  23.728  1.00  0.00    -0.028 SA
ENDROOT
BRANCH   1   2
HETATM    2  C4  UNL     1      27.272  26.576  23.962  1.00  0.00     0.151 C 
HETATM    3  S2  UNL     1      27.749  25.805  25.345  1.00  0.00    -0.052 SA
BRANCH   2   4
HETATM    4  N2  UNL     1      26.630  25.790  22.972  1.00  0.00    -0.320 N 
ATOM      5  H2  UNL     1      25.623  25.860  22.820  1.00  0.00     0.169 HD
BRANCH   4   6
HETATM    6  C3  UNL     1      27.366  24.969  22.255  1.00  0.00     0.171 A 
HETATM    7  S1  UNL     1      27.298  23.267  22.133  1.00  0.00     0.031 SA
HETATM    8  N1  UNL     1      28.552  23.053  21.031  1.00  0.00    -0.243 N 
HETATM    9  C15 UNL     1      28.969  24.297  20.805  1.00  0.00     0.336 A 
HETATM   10  N4  UNL     1      28.366  25.272  21.427  1.00  0.00    -0.287 N 
HETATM   11  O3  UNL     1      29.948  24.488  19.982  1.00  0.00    -0.246 OA
ATOM     12  H4  UNL     1      28.652  26.241  21.283  1.00  0.00     0.172 HD
BRANCH   8  13
HETATM   13  C2  UNL     1      29.076  21.804  20.449  1.00  0.00     0.310 C 
BRANCH  13  14
HETATM   14  O1  UNL     1      28.279  21.443  19.377  1.00  0.00    -0.376 OA
HETATM   15  C1  UNL     1      27.749  20.172  19.571  1.00  0.00     0.203 C 
ENDBRANCH  13  14
ENDBRANCH   8  13
ENDBRANCH   4   6
ENDBRANCH   2   4
ENDBRANCH   1   2
BRANCH   1  16
HETATM   16  S4  UNL     1      28.503  29.187  25.381  1.00  0.00    -0.090 SA
BRANCH  16  17
HETATM   17  C5  UNL     1      27.431  30.346  26.251  1.00  0.00     0.090 C 
BRANCH  17  18
HETATM   18  C6  UNL     1      26.783  29.785  27.474  1.00  0.00     0.038 C 
BRANCH  18  19
HETATM   19  C7  UNL     1      25.755  28.799  27.012  1.00  0.00    -0.029 C 
HETATM   20  C8  UNL     1      24.627  28.601  27.662  1.00  0.00    -0.022 C 
BRANCH  20  21
HETATM   21  C9  UNL     1      23.567  27.669  27.293  1.00  0.00     0.063 C 
HETATM   22  C10 UNL     1      24.011  26.861  26.068  1.00  0.00     0.018 C 
BRANCH  21  23
HETATM   23  C11 UNL     1      23.166  26.679  28.353  1.00  0.00     0.363 C 
BRANCH  23  24
HETATM   24  O2  UNL     1      22.678  25.515  27.748  1.00  0.00    -0.367 OA
ATOM     25  H2  UNL     1      22.295  24.949  28.407  1.00  0.00     0.212 HD
ENDBRANCH  23  24
BRANCH  23  26
HETATM   26  N3  UNL     1      22.080  27.309  29.098  1.00  0.00     0.117 N 
HETATM   27  C12 UNL     1      22.454  27.945  30.323  1.00  0.00     0.277 C 
HETATM   28  C13 UNL     1      21.291  27.208  30.992  1.00  0.00     0.061 C 
HETATM   29  C14 UNL     1      21.122  26.431  29.690  1.00  0.00     0.277 C 
ENDBRANCH  23  26
ENDBRANCH  21  23
ENDBRANCH  20  21
ENDBRANCH  18  19
ENDBRANCH  17  18
ENDBRANCH  16  17
ENDBRANCH   1  16
TORSDOF 13
ENDMDL
MODEL 4
REMARK VINA RESULT: -6.925729100      2.161      2.931
REMARK  13 active torsions:
REMARK  status: ('A' for Active; 'I' for Inactive)
REMARK    1  A    between atoms: O1_2  and  C2_3 
REMARK    2  A    between atoms: C2_3  and  N1_4 
REMARK    3  A    between atoms: C3_6  and  N2_7 
REMARK    4  A    between atoms: N2_7  and  C4_9 
REMARK    5  A    between atoms: C4_9  and  S3_11 
REMARK    6  A    between atoms: S3_11  and  S4_12 
REMARK    7  A    between atoms: S4_12  and  C5_13 
REMARK    8  A    between atoms: C5_13  and  C6_14 
REMARK    9  A    between atoms: C6_14  and  C7_15 
REMARK   10  A    between atoms: C8_16  and  C9_17 
REMARK   11  A    between atoms: C9_17  and  C11_19 
REMARK   12  A    between atoms: C11_19  and  O2_20 
REMARK   13  A    between atoms: C11_19  and  N3_22 
ROOT
HETATM    1  S3  UNL     1      25.526  24.734  24.099  1.00  0.00    -0.028 SA
ENDROOT
BRANCH   1   2
HETATM    2  C4  UNL     1      25.662  23.001  23.825  1.00  0.00     0.151 C 
HETATM    3  S2  UNL     1      24.333  22.071  23.508  1.00  0.00    -0.052 SA
BRANCH   2   4
HETATM    4  N2  UNL     1      26.917  22.343  23.868  1.00  0.00    -0.320 N 
ATOM      5  H2  UNL     1      27.320  22.040  24.754  1.00  0.00     0.169 HD
BRANCH   4   6
HETATM    6  C3  UNL     1      27.548  22.134  22.732  1.00  0.00     0.171 A 
HETATM    7  S1  UNL     1      27.624  20.725  21.769  1.00  0.00     0.031 SA
HETATM    8  N1  UNL     1      28.607  21.323  20.542  1.00  0.00    -0.243 N 
HETATM    9  C15 UNL     1      28.834  22.579  20.924  1.00  0.00     0.336 A 
HETATM   10  N4  UNL     1      28.296  22.992  22.037  1.00  0.00    -0.287 N 
HETATM   11  O3  UNL     1      29.575  23.333  20.180  1.00  0.00    -0.246 OA
ATOM     12  H4  UNL     1      28.444  23.945  22.367  1.00  0.00     0.172 HD
BRANCH   8  13
HETATM   13  C2  UNL     1      29.105  20.642  19.333  1.00  0.00     0.310 C 
BRANCH  13  14
HETATM   14  O1  UNL     1      28.206  20.848  18.302  1.00  0.00    -0.376 OA
HETATM   15  C1  UNL     1      27.275  19.817  18.255  1.00  0.00     0.203 C 
ENDBRANCH  13  14
ENDBRANCH   8  13
ENDBRANCH   4   6
ENDBRANCH   2   4
ENDBRANCH   1   2
BRANCH   1  16
HETATM   16  S4  UNL     1      27.361  25.604  24.654  1.00  0.00    -0.090 SA
BRANCH  16  17
HETATM   17  C5  UNL     1      27.216  26.635  26.125  1.00  0.00     0.090 C 
BRANCH  17  18
HETATM   18  C6  UNL     1      27.025  28.088  25.841  1.00  0.00     0.038 C 
BRANCH  18  19
HETATM   19  C7  UNL     1      26.180  28.644  26.946  1.00  0.00    -0.029 C 
HETATM   20  C8  UNL     1      24.987  28.165  27.229  1.00  0.00    -0.022 C 
BRANCH  20  21
HETATM   21  C9  UNL     1      24.092  28.634  28.282  1.00  0.00     0.063 C 
HETATM   22  C10 UNL     1      24.184  30.162  28.376  1.00  0.00     0.018 C 
BRANCH  21  23
HETATM   23  C11 UNL     1      22.638  28.290  28.108  1.00  0.00     0.363 C 
BRANCH  23  24
HETATM   24  O2  UNL     1      21.851  29.405  28.416  1.00  0.00    -0.367 OA
ATOM     25  H2  UNL     1      21.026  29.121  28.793  1.00  0.00     0.212 HD
ENDBRANCH  23  24
BRANCH  23  26
HETATM   26  N3  UNL     1      22.357  27.237  29.080  1.00  0.00     0.117 N 
HETATM   27  C12 UNL     1      21.056  26.648  29.000  1.00  0.00     0.277 C 
HETATM   28  C13 UNL     1      20.940  26.844  30.514  1.00  0.00     0.061 C 
HETATM   29  C14 UNL     1      22.236  27.645  30.443  1.00  0.00     0.277 C 
ENDBRANCH  23  26
ENDBRANCH  21  23
ENDBRANCH  20  21
ENDBRANCH  18  19
ENDBRANCH  17  18
ENDBRANCH  16  17
ENDBRANCH   1  16
TORSDOF 13
ENDMDL
MODEL 5
REMARK VINA RESULT: -6.896851058      2.380      3.567
REMARK  13 active torsions:
REMARK  status: ('A' for Active; 'I' for Inactive)
REMARK    1  A    between atoms: O1_2  and  C2_3 
REMARK    2  A    between atoms: C2_3  and  N1_4 
REMARK    3  A    between atoms: C3_6  and  N2_7 
REMARK    4  A    between atoms: N2_7  and  C4_9 
REMARK    5  A    between atoms: C4_9  and  S3_11 
REMARK    6  A    between atoms: S3_11  and  S4_12 
REMARK    7  A    between atoms: S4_12  and  C5_13 
REMARK    8  A    between atoms: C5_13  and  C6_14 
REMARK    9  A    between atoms: C6_14  and  C7_15 
REMARK   10  A    between atoms: C8_16  and  C9_17 
REMARK   11  A    between atoms: C9_17  and  C11_19 
REMARK   12  A    between atoms: C11_19  and  O2_20 
REMARK   13  A    between atoms: C11_19  and  N3_22 
ROOT
HETATM    1  S3  UNL     1      26.966  26.748  26.159  1.00  0.00    -0.028 SA
ENDROOT
BRANCH   1   2
HETATM    2  C4  UNL     1      27.373  26.941  24.458  1.00  0.00     0.151 C 
HETATM    3  S2  UNL     1      28.641  27.886  23.977  1.00  0.00    -0.052 SA
BRANCH   2   4
HETATM    4  N2  UNL     1      26.627  26.293  23.442  1.00  0.00    -0.320 N 
ATOM      5  H2  UNL     1      25.799  26.732  23.039  1.00  0.00     0.169 HD
BRANCH   4   6
HETATM    6  C3  UNL     1      27.032  25.111  23.031  1.00  0.00     0.171 A 
HETATM    7  S1  UNL     1      27.738  24.655  21.544  1.00  0.00     0.031 SA
HETATM    8  N1  UNL     1      27.938  23.015  21.863  1.00  0.00    -0.243 N 
HETATM    9  C15 UNL     1      27.454  22.888  23.098  1.00  0.00     0.336 A 
HETATM   10  N4  UNL     1      26.994  23.953  23.692  1.00  0.00    -0.287 N 
HETATM   11  O3  UNL     1      27.461  21.721  23.655  1.00  0.00    -0.246 OA
ATOM     12  H4  UNL     1      26.616  23.902  24.638  1.00  0.00     0.172 HD
BRANCH   8  13
HETATM   13  C2  UNL     1      28.505  21.962  21.002  1.00  0.00     0.310 C 
BRANCH  13  14
HETATM   14  O1  UNL     1      27.725  21.847  19.865  1.00  0.00    -0.376 OA
HETATM   15  C1  UNL     1      27.983  20.644  19.217  1.00  0.00     0.203 C 
ENDBRANCH  13  14
ENDBRANCH   8  13
ENDBRANCH   4   6
ENDBRANCH   2   4
ENDBRANCH   1   2
BRANCH   1  16
HETATM   16  S4  UNL     1      25.170  27.722  26.668  1.00  0.00    -0.090 SA
BRANCH  16  17
HETATM   17  C5  UNL     1      25.453  29.307  27.478  1.00  0.00     0.090 C 
BRANCH  17  18
HETATM   18  C6  UNL     1      24.316  29.779  28.322  1.00  0.00     0.038 C 
BRANCH  18  19
HETATM   19  C7  UNL     1      23.396  28.612  28.510  1.00  0.00    -0.029 C 
HETATM   20  C8  UNL     1      22.951  28.250  29.694  1.00  0.00    -0.022 C 
BRANCH  20  21
HETATM   21  C9  UNL     1      22.054  27.135  29.980  1.00  0.00     0.063 C 
HETATM   22  C10 UNL     1      21.507  27.283  31.404  1.00  0.00     0.018 C 
BRANCH  21  23
HETATM   23  C11 UNL     1      20.869  26.995  29.064  1.00  0.00     0.363 C 
BRANCH  23  24
HETATM   24  O2  UNL     1      19.754  26.576  29.799  1.00  0.00    -0.367 OA
ATOM     25  H2  UNL     1      19.029  27.170  29.646  1.00  0.00     0.212 HD
ENDBRANCH  23  24
BRANCH  23  26
HETATM   26  N3  UNL     1      21.222  25.947  28.111  1.00  0.00     0.117 N 
HETATM   27  C12 UNL     1      20.132  25.160  27.622  1.00  0.00     0.277 C 
HETATM   28  C13 UNL     1      20.967  23.916  27.936  1.00  0.00     0.061 C 
HETATM   29  C14 UNL     1      21.965  24.842  28.626  1.00  0.00     0.277 C 
ENDBRANCH  23  26
ENDBRANCH  21  23
ENDBRANCH  20  21
ENDBRANCH  18  19
ENDBRANCH  17  18
ENDBRANCH  16  17
ENDBRANCH   1  16
TORSDOF 13
ENDMDL
