MODEL 1
REMARK VINA RESULT: -7.912248736      0.000      0.000
REMARK  7 active torsions:
REMARK  status: ('A' for Active; 'I' for Inactive)
REMARK    1  A    between atoms: C2_2  and  C3_3 
REMARK    2  A    between atoms: C3_3  and  O1_4 
REMARK    3  A    between atoms: C3_3  and  C4_6 
REMARK    4  A    between atoms: C7_9  and  C8_10 
REMARK    5  A    between atoms: C10_13  and  C11_14 
REMARK    6  A    between atoms: C11_14  and  N1_15 
REMARK    7  A    between atoms: C19_26  and  O6_27 
ROOT
HETATM    1  C4  UNL     1      27.733  28.432  26.426  1.00  0.00     0.030 C 
HETATM    2  C5  UNL     1      26.558  27.862  27.038  1.00  0.00     0.011 C 
HETATM    3  C6  UNL     1      25.942  26.539  26.859  1.00  0.00     0.042 C 
HETATM    4  C7  UNL     1      25.638  26.039  25.458  1.00  0.00     0.100 C 
HETATM    5  O2  UNL     1      25.895  24.634  25.309  1.00  0.00    -0.370 OA
HETATM    6  C10 UNL     1      25.756  24.237  24.003  1.00  0.00     0.153 C 
HETATM    7  C14 UNL     1      26.326  25.177  22.934  1.00  0.00     0.069 C 
HETATM    8  C15 UNL     1      27.416  25.828  23.579  1.00  0.00     0.171 C 
HETATM    9  O3  UNL     1      28.246  26.814  23.129  1.00  0.00    -0.344 OA
HETATM   10  C16 UNL     1      28.826  27.451  24.284  1.00  0.00     0.200 C 
HETATM   11  C17 UNL     1      30.070  28.124  23.827  1.00  0.00     0.082 C 
HETATM   12  O4  UNL     1      29.011  26.415  25.172  1.00  0.00    -0.199 OA
HETATM   13  O5  UNL     1      27.847  26.154  25.644  1.00  0.00    -0.218 OA
HETATM   14  C18 UNL     1      26.782  26.529  24.752  1.00  0.00     0.179 C 
HETATM   15  C19 UNL     1      26.597  27.936  24.404  1.00  0.00     0.171 C 
HETATM   16  C20 UNL     1      27.939  28.458  24.958  1.00  0.00     0.089 C 
ENDROOT
BRANCH   1  17
HETATM   17  C3  UNL     1      27.923  29.842  26.959  1.00  0.00     0.144 C 
BRANCH  17  18
HETATM   18  C2  UNL     1      28.692  30.780  26.207  1.00  0.00    -0.005 C 
HETATM   19  C1  UNL     1      28.318  32.042  26.041  1.00  0.00     0.009 C 
ENDBRANCH  17  18
BRANCH  17  20
HETATM   20  O1  UNL     1      26.621  30.389  27.127  1.00  0.00    -0.391 OA
ATOM     21  H1  UNL     1      26.164  29.854  27.765  1.00  0.00     0.210 HD
ENDBRANCH  17  20
ENDBRANCH   1  17
BRANCH  15  22
HETATM   22  O6  UNL     1      25.556  28.686  24.704  1.00  0.00    -0.392 OA
ATOM     23  H6  UNL     1      25.415  29.587  24.439  1.00  0.00     0.210 HD
ENDBRANCH  15  22
BRANCH   4  24
HETATM   24  C8  UNL     1      24.231  26.183  25.137  1.00  0.00     0.037 C 
HETATM   25  C9  UNL     1      23.324  26.190  26.390  1.00  0.00     0.008 C 
ENDBRANCH   4  24
BRANCH   6  26
HETATM   26  C11 UNL     1      26.539  22.922  23.886  1.00  0.00     0.303 C 
BRANCH  26  27
HETATM   27  N1  UNL     1      25.664  21.851  23.446  1.00  0.00     0.082 N 
HETATM   28  C12 UNL     1      24.266  22.154  23.648  1.00  0.00     0.309 C 
HETATM   29  C13 UNL     1      25.920  21.568  22.049  1.00  0.00     0.309 C 
ENDBRANCH  26  27
ENDBRANCH   6  26
TORSDOF 7
ENDMDL
MODEL 2
REMARK VINA RESULT: -7.597362772      1.887      3.851
REMARK  7 active torsions:
REMARK  status: ('A' for Active; 'I' for Inactive)
REMARK    1  A    between atoms: C2_2  and  C3_3 
REMARK    2  A    between atoms: C3_3  and  O1_4 
REMARK    3  A    between atoms: C3_3  and  C4_6 
REMARK    4  A    between atoms: C7_9  and  C8_10 
REMARK    5  A    between atoms: C10_13  and  C11_14 
REMARK    6  A    between atoms: C11_14  and  N1_15 
REMARK    7  A    between atoms: C19_26  and  O6_27 
ROOT
HETATM    1  C4  UNL     1      25.740  29.883  26.783  1.00  0.00     0.030 C 
HETATM    2  C5  UNL     1      26.692  30.360  25.810  1.00  0.00     0.011 C 
HETATM    3  C6  UNL     1      27.176  29.735  24.570  1.00  0.00     0.042 C 
HETATM    4  C7  UNL     1      27.701  28.312  24.606  1.00  0.00     0.100 C 
HETATM    5  O2  UNL     1      27.321  27.557  23.445  1.00  0.00    -0.370 OA
HETATM    6  C10 UNL     1      27.680  26.238  23.568  1.00  0.00     0.153 C 
HETATM    7  C14 UNL     1      27.452  25.589  24.938  1.00  0.00     0.069 C 
HETATM    8  C15 UNL     1      26.335  26.285  25.480  1.00  0.00     0.171 C 
HETATM    9  O3  UNL     1      25.733  26.175  26.700  1.00  0.00    -0.344 OA
HETATM   10  C16 UNL     1      25.005  27.396  26.936  1.00  0.00     0.200 C 
HETATM   11  C17 UNL     1      23.967  27.090  27.954  1.00  0.00     0.082 C 
HETATM   12  O4  UNL     1      24.525  27.737  25.691  1.00  0.00    -0.199 OA
HETATM   13  O5  UNL     1      25.529  28.215  25.053  1.00  0.00    -0.218 OA
HETATM   14  C18 UNL     1      26.791  27.720  25.538  1.00  0.00     0.179 C 
HETATM   15  C19 UNL     1      27.203  28.019  26.907  1.00  0.00     0.171 C 
HETATM   16  C20 UNL     1      25.845  28.545  27.415  1.00  0.00     0.089 C 
ENDROOT
BRANCH   1  17
HETATM   17  C3  UNL     1      25.608  30.922  27.883  1.00  0.00     0.144 C 
BRANCH  17  18
HETATM   18  C2  UNL     1      25.887  32.291  27.593  1.00  0.00    -0.005 C 
HETATM   19  C1  UNL     1      24.931  33.179  27.351  1.00  0.00     0.009 C 
ENDBRANCH  17  18
BRANCH  17  20
HETATM   20  O1  UNL     1      24.268  30.845  28.351  1.00  0.00    -0.391 OA
ATOM     21  H1  UNL     1      23.708  30.689  27.599  1.00  0.00     0.210 HD
ENDBRANCH  17  20
ENDBRANCH   1  17
BRANCH  15  22
HETATM   22  O6  UNL     1      28.239  28.747  27.271  1.00  0.00    -0.392 OA
ATOM     23  H6  UNL     1      28.274  29.695  27.313  1.00  0.00     0.210 HD
ENDBRANCH  15  22
BRANCH   4  24
HETATM   24  C8  UNL     1      29.152  28.281  24.596  1.00  0.00     0.037 C 
HETATM   25  C9  UNL     1      29.782  29.673  24.354  1.00  0.00     0.008 C 
ENDBRANCH   4  24
BRANCH   6  26
HETATM   26  C11 UNL     1      26.791  25.475  22.574  1.00  0.00     0.303 C 
BRANCH  26  27
HETATM   27  N1  UNL     1      27.400  24.204  22.226  1.00  0.00     0.082 N 
HETATM   28  C12 UNL     1      26.558  23.075  22.549  1.00  0.00     0.309 C 
HETATM   29  C13 UNL     1      27.726  24.201  20.815  1.00  0.00     0.309 C 
ENDBRANCH  26  27
ENDBRANCH   6  26
TORSDOF 7
ENDMDL
MODEL 3
REMARK VINA RESULT: -7.482485411      1.717      3.678
REMARK  7 active torsions:
REMARK  status: ('A' for Active; 'I' for Inactive)
REMARK    1  A    between atoms: C2_2  and  C3_3 
REMARK    2  A    between atoms: C3_3  and  O1_4 
REMARK    3  A    between atoms: C3_3  and  C4_6 
REMARK    4  A    between atoms: C7_9  and  C8_10 
REMARK    5  A    between atoms: C10_13  and  C11_14 
REMARK    6  A    between atoms: C11_14  and  N1_15 
REMARK    7  A    between atoms: C19_26  and  O6_27 
ROOT
HETATM    1  C4  UNL     1      26.600  30.518  25.729  1.00  0.00     0.030 C 
HETATM    2  C5  UNL     1      27.436  30.324  24.570  1.00  0.00     0.011 C 
HETATM    3  C6  UNL     1      27.585  29.153  23.693  1.00  0.00     0.042 C 
HETATM    4  C7  UNL     1      27.860  27.792  24.305  1.00  0.00     0.100 C 
HETATM    5  O2  UNL     1      27.163  26.734  23.627  1.00  0.00    -0.370 OA
HETATM    6  C10 UNL     1      27.309  25.539  24.285  1.00  0.00     0.153 C 
HETATM    7  C14 UNL     1      27.214  25.580  25.815  1.00  0.00     0.069 C 
HETATM    8  C15 UNL     1      26.343  26.672  26.088  1.00  0.00     0.171 C 
HETATM    9  O3  UNL     1      25.951  27.212  27.279  1.00  0.00    -0.344 OA
HETATM   10  C16 UNL     1      25.492  28.553  27.015  1.00  0.00     0.200 C 
HETATM   11  C17 UNL     1      24.609  28.937  28.147  1.00  0.00     0.082 C 
HETATM   12  O4  UNL     1      24.868  28.451  25.791  1.00  0.00    -0.199 OA
HETATM   13  O5  UNL     1      25.814  28.383  24.928  1.00  0.00    -0.218 OA
HETATM   14  C18 UNL     1      27.038  27.859  25.474  1.00  0.00     0.179 C 
HETATM   15  C19 UNL     1      27.725  28.591  26.535  1.00  0.00     0.171 C 
HETATM   16  C20 UNL     1      26.584  29.573  26.872  1.00  0.00     0.089 C 
ENDROOT
BRANCH   1  17
HETATM   17  C3  UNL     1      26.838  31.918  26.271  1.00  0.00     0.144 C 
BRANCH  17  18
HETATM   18  C2  UNL     1      26.228  32.307  27.501  1.00  0.00    -0.005 C 
HETATM   19  C1  UNL     1      24.967  32.710  27.578  1.00  0.00     0.009 C 
ENDBRANCH  17  18
BRANCH  17  20
HETATM   20  O1  UNL     1      28.244  32.058  26.423  1.00  0.00    -0.391 OA
ATOM     21  H1  UNL     1      28.656  31.311  26.003  1.00  0.00     0.210 HD
ENDBRANCH  17  20
ENDBRANCH   1  17
BRANCH  15  22
HETATM   22  O6  UNL     1      28.917  29.148  26.455  1.00  0.00    -0.392 OA
ATOM     23  H6  UNL     1      29.185  29.819  25.840  1.00  0.00     0.210 HD
ENDBRANCH  15  22
BRANCH   4  24
HETATM   24  C8  UNL     1      29.261  27.430  24.189  1.00  0.00     0.037 C 
HETATM   25  C9  UNL     1      30.180  28.651  23.948  1.00  0.00     0.008 C 
ENDBRANCH   4  24
BRANCH   6  26
HETATM   26  C11 UNL     1      26.146  24.659  23.803  1.00  0.00     0.303 C 
BRANCH  26  27
HETATM   27  N1  UNL     1      26.578  23.280  23.671  1.00  0.00     0.082 N 
HETATM   28  C12 UNL     1      25.710  22.355  24.363  1.00  0.00     0.309 C 
HETATM   29  C13 UNL     1      26.661  22.937  22.267  1.00  0.00     0.309 C 
ENDBRANCH  26  27
ENDBRANCH   6  26
TORSDOF 7
ENDMDL
MODEL 4
REMARK VINA RESULT: -7.042553622      2.497      4.446
REMARK  7 active torsions:
REMARK  status: ('A' for Active; 'I' for Inactive)
REMARK    1  A    between atoms: C2_2  and  C3_3 
REMARK    2  A    between atoms: C3_3  and  O1_4 
REMARK    3  A    between atoms: C3_3  and  C4_6 
REMARK    4  A    between atoms: C7_9  and  C8_10 
REMARK    5  A    between atoms: C10_13  and  C11_14 
REMARK    6  A    between atoms: C11_14  and  N1_15 
REMARK    7  A    between atoms: C19_26  and  O6_27 
ROOT
HETATM    1  C4  UNL     1      28.327  28.165  25.306  1.00  0.00     0.030 C 
HETATM    2  C5  UNL     1      28.084  29.060  26.410  1.00  0.00     0.011 C 
HETATM    3  C6  UNL     1      27.122  28.960  27.519  1.00  0.00     0.042 C 
HETATM    4  C7  UNL     1      25.659  28.694  27.216  1.00  0.00     0.100 C 
HETATM    5  O2  UNL     1      25.054  27.808  28.171  1.00  0.00    -0.370 OA
HETATM    6  C10 UNL     1      23.779  27.467  27.796  1.00  0.00     0.153 C 
HETATM    7  C14 UNL     1      23.557  27.162  26.310  1.00  0.00     0.069 C 
HETATM    8  C15 UNL     1      24.807  26.651  25.862  1.00  0.00     0.171 C 
HETATM    9  O3  UNL     1      25.212  26.276  24.613  1.00  0.00    -0.344 OA
HETATM   10  C16 UNL     1      26.652  26.311  24.596  1.00  0.00     0.200 C 
HETATM   11  C17 UNL     1      27.092  25.436  23.478  1.00  0.00     0.082 C 
HETATM   12  O4  UNL     1      27.005  25.878  25.855  1.00  0.00    -0.199 OA
HETATM   13  O5  UNL     1      26.784  26.872  26.635  1.00  0.00    -0.218 OA
HETATM   14  C18 UNL     1      25.779  27.770  26.131  1.00  0.00     0.179 C 
HETATM   15  C19 UNL     1      26.016  28.486  24.880  1.00  0.00     0.171 C 
HETATM   16  C20 UNL     1      27.245  27.679  24.416  1.00  0.00     0.089 C 
ENDROOT
BRANCH   1  17
HETATM   17  C3  UNL     1      29.431  28.749  24.440  1.00  0.00     0.144 C 
BRANCH  17  18
HETATM   18  C2  UNL     1      30.365  29.663  25.016  1.00  0.00    -0.005 C 
HETATM   19  C1  UNL     1      30.583  30.872  24.515  1.00  0.00     0.009 C 
ENDBRANCH  17  18
BRANCH  17  20
HETATM   20  O1  UNL     1      30.167  27.647  23.926  1.00  0.00    -0.391 OA
ATOM     21  H1  UNL     1      29.543  26.980  23.665  1.00  0.00     0.210 HD
ENDBRANCH  17  20
ENDBRANCH   1  17
BRANCH  15  22
HETATM   22  O6  UNL     1      26.136  29.791  24.737  1.00  0.00    -0.392 OA
ATOM     23  H6  UNL     1      25.437  30.403  24.540  1.00  0.00     0.210 HD
ENDBRANCH  15  22
BRANCH   4  24
HETATM   24  C8  UNL     1      24.870  29.909  27.303  1.00  0.00     0.037 C 
HETATM   25  C9  UNL     1      25.184  30.742  28.568  1.00  0.00     0.008 C 
ENDBRANCH   4  24
BRANCH   6  26
HETATM   26  C11 UNL     1      23.459  26.171  28.556  1.00  0.00     0.303 C 
BRANCH  26  27
HETATM   27  N1  UNL     1      22.167  26.276  29.210  1.00  0.00     0.082 N 
HETATM   28  C12 UNL     1      21.845  25.110  30.000  1.00  0.00     0.309 C 
HETATM   29  C13 UNL     1      22.143  27.465  30.036  1.00  0.00     0.309 C 
ENDBRANCH  26  27
ENDBRANCH   6  26
TORSDOF 7
ENDMDL
MODEL 5
REMARK VINA RESULT: -6.979333938      2.613      5.390
REMARK  7 active torsions:
REMARK  status: ('A' for Active; 'I' for Inactive)
REMARK    1  A    between atoms: C2_2  and  C3_3 
REMARK    2  A    between atoms: C3_3  and  O1_4 
REMARK    3  A    between atoms: C3_3  and  C4_6 
REMARK    4  A    between atoms: C7_9  and  C8_10 
REMARK    5  A    between atoms: C10_13  and  C11_14 
REMARK    6  A    between atoms: C11_14  and  N1_15 
REMARK    7  A    between atoms: C19_26  and  O6_27 
ROOT
HETATM    1  C4  UNL     1      25.129  27.316  27.433  1.00  0.00     0.030 C 
HETATM    2  C5  UNL     1      25.629  26.135  26.774  1.00  0.00     0.011 C 
HETATM    3  C6  UNL     1      26.870  25.925  26.014  1.00  0.00     0.042 C 
HETATM    4  C7  UNL     1      27.233  26.885  24.896  1.00  0.00     0.100 C 
HETATM    5  O2  UNL     1      28.642  27.162  24.847  1.00  0.00    -0.370 OA
HETATM    6  C10 UNL     1      28.926  28.140  23.928  1.00  0.00     0.153 C 
HETATM    7  C14 UNL     1      27.968  29.337  23.880  1.00  0.00     0.069 C 
HETATM    8  C15 UNL     1      27.473  29.450  25.210  1.00  0.00     0.171 C 
HETATM    9  O3  UNL     1      26.541  30.297  25.736  1.00  0.00    -0.344 OA
HETATM   10  C16 UNL     1      26.049  29.697  26.951  1.00  0.00     0.200 C 
HETATM   11  C17 UNL     1      25.466  30.793  27.768  1.00  0.00     0.082 C 
HETATM   12  O4  UNL     1      27.161  29.090  27.490  1.00  0.00    -0.199 OA
HETATM   13  O5  UNL     1      27.344  28.028  26.796  1.00  0.00    -0.218 OA
HETATM   14  C18 UNL     1      26.804  28.125  25.465  1.00  0.00     0.179 C 
HETATM   15  C19 UNL     1      25.364  28.293  25.284  1.00  0.00     0.171 C 
HETATM   16  C20 UNL     1      25.015  28.627  26.749  1.00  0.00     0.089 C 
ENDROOT
BRANCH   1  17
HETATM   17  C3  UNL     1      23.787  26.990  28.066  1.00  0.00     0.144 C 
BRANCH  17  18
HETATM   18  C2  UNL     1      23.038  28.027  28.698  1.00  0.00    -0.005 C 
HETATM   19  C1  UNL     1      22.306  27.820  29.785  1.00  0.00     0.009 C 
ENDBRANCH  17  18
BRANCH  17  20
HETATM   20  O1  UNL     1      22.978  26.441  27.034  1.00  0.00    -0.391 OA
ATOM     21  H1  UNL     1      23.171  25.512  26.980  1.00  0.00     0.210 HD
ENDBRANCH  17  20
ENDBRANCH   1  17
BRANCH  15  22
HETATM   22  O6  UNL     1      24.543  27.437  24.711  1.00  0.00    -0.392 OA
ATOM     23  H6  UNL     1      24.131  27.534  23.861  1.00  0.00     0.210 HD
ENDBRANCH  15  22
BRANCH   4  24
HETATM   24  C8  UNL     1      26.932  26.321  23.594  1.00  0.00     0.037 C 
HETATM   25  C9  UNL     1      26.725  24.788  23.634  1.00  0.00     0.008 C 
ENDBRANCH   4  24
BRANCH   6  26
HETATM   26  C11 UNL     1      30.297  28.700  24.332  1.00  0.00     0.303 C 
BRANCH  26  27
HETATM   27  N1  UNL     1      30.151  30.020  24.917  1.00  0.00     0.082 N 
HETATM   28  C12 UNL     1      30.505  30.052  26.318  1.00  0.00     0.309 C 
HETATM   29  C13 UNL     1      30.958  30.965  24.173  1.00  0.00     0.309 C 
ENDBRANCH  26  27
ENDBRANCH   6  26
TORSDOF 7
ENDMDL
