MODEL 1
REMARK VINA RESULT: -7.930890200      0.000      0.000
REMARK  17 active torsions:
REMARK  status: ('A' for Active; 'I' for Inactive)
REMARK    1  A    between atoms: C2_2  and  O2_4 
REMARK    2  A    between atoms: O2_4  and  C3_5 
REMARK    3  A    between atoms: C4_7  and  C5_8 
REMARK    4  A    between atoms: C5_8  and  O4_9 
REMARK    5  A    between atoms: O4_9  and  C6_10 
REMARK    6  A    between atoms: C7_11  and  O5_12 
REMARK    7  A    between atoms: C8_14  and  O6_15 
REMARK    8  A    between atoms: C9_17  and  O7_18 
REMARK    9  A    between atoms: O7_18  and  C10_19 
REMARK   10  A    between atoms: C15_26  and  O10_27 
REMARK   11  A    between atoms: C16_29  and  O11_30 
REMARK   12  A    between atoms: C17_32  and  O12_33 
REMARK   13  A    between atoms: C18_35  and  O13_36 
REMARK   14  A    between atoms: O13_36  and  C19_37 
REMARK   15  A    between atoms: C22_41  and  O15_42 
REMARK   16  A    between atoms: C23_44  and  O16_45 
REMARK   17  A    between atoms: C24_47  and  O17_48 
ROOT
HETATM    1  C3  UNL     1      38.887   4.353  12.753  1.00  0.00     0.301 C 
HETATM    2  O3  UNL     1      39.929   5.234  12.792  1.00  0.00    -0.348 OA
HETATM    3  C4  UNL     1      41.126   4.533  12.751  1.00  0.00     0.180 C 
HETATM    4  C17 UNL     1      40.811   3.208  12.080  1.00  0.00     0.183 C 
HETATM    5  C18 UNL     1      39.413   2.959  12.606  1.00  0.00     0.211 C 
ENDROOT
BRANCH   3   6
HETATM    6  C5  UNL     1      42.151   5.205  11.873  1.00  0.00     0.203 C 
BRANCH   6   7
HETATM    7  O4  UNL     1      42.278   4.527  10.715  1.00  0.00    -0.378 OA
BRANCH   7   8
HETATM    8  C6  UNL     1      41.803   5.083   9.558  1.00  0.00     0.184 C 
HETATM    9  C7  UNL     1      42.833   5.256   8.489  1.00  0.00     0.181 C 
HETATM   10  C8  UNL     1      42.166   6.258   7.559  1.00  0.00     0.181 C 
HETATM   11  C9  UNL     1      41.534   7.238   8.564  1.00  0.00     0.184 C 
HETATM   12  C16 UNL     1      41.124   6.391   9.722  1.00  0.00     0.181 C 
BRANCH   9  13
HETATM   13  O5  UNL     1      44.019   5.807   8.914  1.00  0.00    -0.390 OA
ATOM     14  H5  UNL     1      44.089   6.746   8.790  1.00  0.00     0.210 HD
ENDBRANCH   9  13
BRANCH  10  15
HETATM   15  O6  UNL     1      43.055   6.896   6.730  1.00  0.00    -0.390 OA
ATOM     16  H6  UNL     1      43.376   7.716   7.088  1.00  0.00     0.210 HD
ENDBRANCH  10  15
BRANCH  11  17
HETATM   17  O7  UNL     1      40.538   7.934   7.941  1.00  0.00    -0.367 OA
BRANCH  17  18
HETATM   18  C10 UNL     1      40.685   9.290   8.015  1.00  0.00     0.211 C 
HETATM   19  C11 UNL     1      42.064   9.737   8.508  1.00  0.00     0.206 C 
HETATM   20  O8  UNL     1      42.176  11.042   8.085  1.00  0.00    -0.375 OA
HETATM   21  C12 UNL     1      41.349  11.275   7.023  1.00  0.00     0.215 C 
HETATM   22  C13 UNL     1      41.905  11.058   5.645  1.00  0.00     0.155 C 
HETATM   23  C15 UNL     1      40.689   9.960   6.661  1.00  0.00     0.220 C 
HETATM   24  C14 UNL     1      43.300  11.598   5.459  1.00  0.00     0.042 C 
HETATM   25  O9  UNL     1      41.808   9.689   5.875  1.00  0.00    -0.343 OA
BRANCH  23  26
HETATM   26  O10 UNL     1      39.488  10.060   6.019  1.00  0.00    -0.361 OA
ATOM     27  H10 UNL     1      39.370  10.807   5.444  1.00  0.00     0.213 HD
ENDBRANCH  23  26
ENDBRANCH  17  18
ENDBRANCH  11  17
BRANCH  12  28
HETATM   28  O11 UNL     1      39.746   6.189   9.782  1.00  0.00    -0.390 OA
ATOM     29  H11 UNL     1      39.439   6.383  10.659  1.00  0.00     0.210 HD
ENDBRANCH  12  28
ENDBRANCH   7   8
ENDBRANCH   6   7
ENDBRANCH   3   6
BRANCH   4  30
HETATM   30  O12 UNL     1      41.713   2.253  12.499  1.00  0.00    -0.390 OA
ATOM     31  H12 UNL     1      41.397   1.390  12.259  1.00  0.00     0.210 HD
ENDBRANCH   4  30
BRANCH   1  32
HETATM   32  O2  UNL     1      37.986   4.488  13.832  1.00  0.00    -0.287 OA
BRANCH  32  33
HETATM   33  C2  UNL     1      36.668   4.870  13.681  1.00  0.00     0.257 C 
HETATM   34  C1  UNL     1      36.300   6.320  13.814  1.00  0.00     0.126 C 
HETATM   35  O1  UNL     1      35.822   3.977  13.435  1.00  0.00    -0.266 OA
ENDBRANCH  32  33
ENDBRANCH   1  32
BRANCH   5  36
HETATM   36  O13 UNL     1      38.646   2.222  11.710  1.00  0.00    -0.346 OA
BRANCH  36  37
HETATM   37  C19 UNL     1      37.838   1.266  12.322  1.00  0.00     0.292 C 
HETATM   38  O14 UNL     1      38.602   0.136  12.492  1.00  0.00    -0.351 OA
HETATM   39  C20 UNL     1      38.030  -1.028  12.059  1.00  0.00     0.152 C 
HETATM   40  C21 UNL     1      38.874  -2.198  12.506  1.00  0.00     0.042 C 
HETATM   41  C22 UNL     1      36.652  -1.180  12.679  1.00  0.00     0.178 C 
HETATM   42  C23 UNL     1      35.792  -0.107  12.066  1.00  0.00     0.183 C 
HETATM   43  C24 UNL     1      36.563   1.064  11.558  1.00  0.00     0.204 C 
BRANCH  41  44
HETATM   44  O15 UNL     1      36.731  -0.988  14.055  1.00  0.00    -0.390 OA
ATOM     45  H15 UNL     1      37.193  -1.716  14.455  1.00  0.00     0.210 HD
ENDBRANCH  41  44
BRANCH  42  46
HETATM   46  O16 UNL     1      35.032  -0.648  11.004  1.00  0.00    -0.390 OA
ATOM     47  H16 UNL     1      35.104  -0.091  10.238  1.00  0.00     0.210 HD
ENDBRANCH  42  46
BRANCH  43  48
HETATM   48  O17 UNL     1      36.782   1.004  10.175  1.00  0.00    -0.388 OA
ATOM     49  H17 UNL     1      37.241   0.212   9.920  1.00  0.00     0.210 HD
ENDBRANCH  43  48
ENDBRANCH  36  37
ENDBRANCH   5  36
TORSDOF 17
ENDMDL
MODEL 2
REMARK VINA RESULT: -7.923782494      1.014      1.132
REMARK  17 active torsions:
REMARK  status: ('A' for Active; 'I' for Inactive)
REMARK    1  A    between atoms: C2_2  and  O2_4 
REMARK    2  A    between atoms: O2_4  and  C3_5 
REMARK    3  A    between atoms: C4_7  and  C5_8 
REMARK    4  A    between atoms: C5_8  and  O4_9 
REMARK    5  A    between atoms: O4_9  and  C6_10 
REMARK    6  A    between atoms: C7_11  and  O5_12 
REMARK    7  A    between atoms: C8_14  and  O6_15 
REMARK    8  A    between atoms: C9_17  and  O7_18 
REMARK    9  A    between atoms: O7_18  and  C10_19 
REMARK   10  A    between atoms: C15_26  and  O10_27 
REMARK   11  A    between atoms: C16_29  and  O11_30 
REMARK   12  A    between atoms: C17_32  and  O12_33 
REMARK   13  A    between atoms: C18_35  and  O13_36 
REMARK   14  A    between atoms: O13_36  and  C19_37 
REMARK   15  A    between atoms: C22_41  and  O15_42 
REMARK   16  A    between atoms: C23_44  and  O16_45 
REMARK   17  A    between atoms: C24_47  and  O17_48 
ROOT
HETATM    1  C3  UNL     1      37.746   4.563  12.744  1.00  0.00     0.301 C 
HETATM    2  O3  UNL     1      38.781   5.417  12.995  1.00  0.00    -0.348 OA
HETATM    3  C4  UNL     1      39.881   4.690  13.427  1.00  0.00     0.180 C 
HETATM    4  C17 UNL     1      39.701   3.288  12.872  1.00  0.00     0.183 C 
HETATM    5  C18 UNL     1      38.196   3.151  12.957  1.00  0.00     0.211 C 
ENDROOT
BRANCH   3   6
HETATM    6  C5  UNL     1      41.171   5.203  12.838  1.00  0.00     0.203 C 
BRANCH   6   7
HETATM    7  O4  UNL     1      41.588   4.377  11.859  1.00  0.00    -0.378 OA
BRANCH   7   8
HETATM    8  C6  UNL     1      41.431   4.752  10.552  1.00  0.00     0.184 C 
HETATM    9  C7  UNL     1      42.648   4.565   9.706  1.00  0.00     0.181 C 
HETATM   10  C8  UNL     1      42.342   5.445   8.503  1.00  0.00     0.181 C 
HETATM   11  C9  UNL     1      41.723   6.683   9.177  1.00  0.00     0.184 C 
HETATM   12  C16 UNL     1      40.972   6.148  10.350  1.00  0.00     0.181 C 
BRANCH   9  13
HETATM   13  O5  UNL     1      43.818   5.021  10.269  1.00  0.00    -0.390 OA
ATOM     14  H5  UNL     1      44.574   4.465  10.122  1.00  0.00     0.210 HD
ENDBRANCH   9  13
BRANCH  10  15
HETATM   15  O6  UNL     1      43.462   5.777   7.781  1.00  0.00    -0.390 OA
ATOM     16  H6  UNL     1      43.532   6.709   7.610  1.00  0.00     0.210 HD
ENDBRANCH  10  15
BRANCH  11  17
HETATM   17  O7  UNL     1      40.990   7.373   8.253  1.00  0.00    -0.367 OA
BRANCH  17  18
HETATM   18  C10 UNL     1      41.152   8.727   8.323  1.00  0.00     0.211 C 
HETATM   19  C11 UNL     1      42.601   9.187   8.134  1.00  0.00     0.206 C 
HETATM   20  O8  UNL     1      42.499  10.513   7.779  1.00  0.00    -0.375 OA
HETATM   21  C12 UNL     1      41.269  10.773   7.242  1.00  0.00     0.215 C 
HETATM   22  C13 UNL     1      41.114  10.636   5.755  1.00  0.00     0.155 C 
HETATM   23  C15 UNL     1      40.519   9.460   7.163  1.00  0.00     0.220 C 
HETATM   24  C14 UNL     1      42.256  11.220   4.966  1.00  0.00     0.042 C 
HETATM   25  O9  UNL     1      41.138   9.255   5.931  1.00  0.00    -0.343 OA
BRANCH  23  26
HETATM   26  O10 UNL     1      39.156   9.557   7.165  1.00  0.00    -0.361 OA
ATOM     27  H10 UNL     1      38.781  10.310   7.606  1.00  0.00     0.213 HD
ENDBRANCH  23  26
ENDBRANCH  17  18
ENDBRANCH  11  17
BRANCH  12  28
HETATM   28  O11 UNL     1      39.592   6.154  10.157  1.00  0.00    -0.390 OA
ATOM     29  H11 UNL     1      39.166   5.801  10.929  1.00  0.00     0.210 HD
ENDBRANCH  12  28
ENDBRANCH   7   8
ENDBRANCH   6   7
ENDBRANCH   3   6
BRANCH   4  30
HETATM   30  O12 UNL     1      40.363   2.386  13.677  1.00  0.00    -0.390 OA
ATOM     31  H12 UNL     1      39.741   1.761  14.031  1.00  0.00     0.210 HD
ENDBRANCH   4  30
BRANCH   1  32
HETATM   32  O2  UNL     1      36.566   4.875  13.456  1.00  0.00    -0.287 OA
BRANCH  32  33
HETATM   33  C2  UNL     1      36.162   6.166  13.734  1.00  0.00     0.257 C 
HETATM   34  C1  UNL     1      36.900   6.961  14.773  1.00  0.00     0.126 C 
HETATM   35  O1  UNL     1      35.183   6.626  13.098  1.00  0.00    -0.266 OA
ENDBRANCH  32  33
ENDBRANCH   1  32
BRANCH   5  36
HETATM   36  O13 UNL     1      37.696   2.308  11.970  1.00  0.00    -0.346 OA
BRANCH  36  37
HETATM   37  C19 UNL     1      37.061   1.175  12.474  1.00  0.00     0.292 C 
HETATM   38  O14 UNL     1      38.043   0.291  12.851  1.00  0.00    -0.351 OA
HETATM   39  C20 UNL     1      37.893  -0.986  12.387  1.00  0.00     0.152 C 
HETATM   40  C21 UNL     1      38.907  -1.885  13.054  1.00  0.00     0.042 C 
HETATM   41  C22 UNL     1      36.508  -1.497  12.743  1.00  0.00     0.178 C 
HETATM   42  C23 UNL     1      35.537  -0.697  11.916  1.00  0.00     0.183 C 
HETATM   43  C24 UNL     1      36.060   0.634  11.495  1.00  0.00     0.204 C 
BRANCH  41  44
HETATM   44  O15 UNL     1      36.259  -1.282  14.095  1.00  0.00    -0.390 OA
ATOM     45  H15 UNL     1      36.318  -0.354  14.289  1.00  0.00     0.210 HD
ENDBRANCH  41  44
BRANCH  42  46
HETATM   46  O16 UNL     1      35.170  -1.429  10.763  1.00  0.00    -0.390 OA
ATOM     47  H16 UNL     1      34.337  -1.114  10.432  1.00  0.00     0.210 HD
ENDBRANCH  42  46
BRANCH  43  48
HETATM   48  O17 UNL     1      36.558   0.626  10.184  1.00  0.00    -0.388 OA
ATOM     49  H17 UNL     1      36.718  -0.256   9.869  1.00  0.00     0.210 HD
ENDBRANCH  43  48
ENDBRANCH  36  37
ENDBRANCH   5  36
TORSDOF 17
ENDMDL
MODEL 3
REMARK VINA RESULT: -7.829148185      0.830      1.408
REMARK  17 active torsions:
REMARK  status: ('A' for Active; 'I' for Inactive)
REMARK    1  A    between atoms: C2_2  and  O2_4 
REMARK    2  A    between atoms: O2_4  and  C3_5 
REMARK    3  A    between atoms: C4_7  and  C5_8 
REMARK    4  A    between atoms: C5_8  and  O4_9 
REMARK    5  A    between atoms: O4_9  and  C6_10 
REMARK    6  A    between atoms: C7_11  and  O5_12 
REMARK    7  A    between atoms: C8_14  and  O6_15 
REMARK    8  A    between atoms: C9_17  and  O7_18 
REMARK    9  A    between atoms: O7_18  and  C10_19 
REMARK   10  A    between atoms: C15_26  and  O10_27 
REMARK   11  A    between atoms: C16_29  and  O11_30 
REMARK   12  A    between atoms: C17_32  and  O12_33 
REMARK   13  A    between atoms: C18_35  and  O13_36 
REMARK   14  A    between atoms: O13_36  and  C19_37 
REMARK   15  A    between atoms: C22_41  and  O15_42 
REMARK   16  A    between atoms: C23_44  and  O16_45 
REMARK   17  A    between atoms: C24_47  and  O17_48 
ROOT
HETATM    1  C3  UNL     1      38.977   4.603  12.787  1.00  0.00     0.301 C 
HETATM    2  O3  UNL     1      40.044   5.453  12.734  1.00  0.00    -0.348 OA
HETATM    3  C4  UNL     1      41.219   4.715  12.729  1.00  0.00     0.180 C 
HETATM    4  C17 UNL     1      40.853   3.349  12.177  1.00  0.00     0.183 C 
HETATM    5  C18 UNL     1      39.461   3.186  12.748  1.00  0.00     0.211 C 
ENDROOT
BRANCH   3   6
HETATM    6  C5  UNL     1      42.244   5.282  11.779  1.00  0.00     0.203 C 
BRANCH   6   7
HETATM    7  O4  UNL     1      42.273   4.551  10.647  1.00  0.00    -0.378 OA
BRANCH   7   8
HETATM    8  C6  UNL     1      41.852   5.117   9.473  1.00  0.00     0.184 C 
HETATM    9  C7  UNL     1      42.935   5.316   8.463  1.00  0.00     0.181 C 
HETATM   10  C8  UNL     1      42.306   6.323   7.512  1.00  0.00     0.181 C 
HETATM   11  C9  UNL     1      41.611   7.283   8.495  1.00  0.00     0.184 C 
HETATM   12  C16 UNL     1      41.150   6.416   9.619  1.00  0.00     0.181 C 
BRANCH   9  13
HETATM   13  O5  UNL     1      44.091   5.875   8.956  1.00  0.00    -0.390 OA
ATOM     14  H5  UNL     1      44.729   5.250   9.279  1.00  0.00     0.210 HD
ENDBRANCH   9  13
BRANCH  10  15
HETATM   15  O6  UNL     1      43.229   6.982   6.738  1.00  0.00    -0.390 OA
ATOM     16  H6  UNL     1      43.704   7.652   7.216  1.00  0.00     0.210 HD
ENDBRANCH  10  15
BRANCH  11  17
HETATM   17  O7  UNL     1      40.640   7.976   7.829  1.00  0.00    -0.367 OA
BRANCH  17  18
HETATM   18  C10 UNL     1      40.776   9.332   7.915  1.00  0.00     0.211 C 
HETATM   19  C11 UNL     1      42.160   9.786   8.388  1.00  0.00     0.206 C 
HETATM   20  O8  UNL     1      42.253  11.097   7.977  1.00  0.00    -0.375 OA
HETATM   21  C12 UNL     1      41.406  11.333   6.931  1.00  0.00     0.215 C 
HETATM   22  C13 UNL     1      41.940  11.135   5.542  1.00  0.00     0.155 C 
HETATM   23  C15 UNL     1      40.751  10.016   6.568  1.00  0.00     0.220 C 
HETATM   24  C14 UNL     1      43.326  11.689   5.337  1.00  0.00     0.042 C 
HETATM   25  O9  UNL     1      41.858   9.763   5.760  1.00  0.00    -0.343 OA
BRANCH  23  26
HETATM   26  O10 UNL     1      39.538  10.111   5.948  1.00  0.00    -0.361 OA
ATOM     27  H10 UNL     1      39.484  10.691   5.197  1.00  0.00     0.213 HD
ENDBRANCH  23  26
ENDBRANCH  17  18
ENDBRANCH  11  17
BRANCH  12  28
HETATM   28  O11 UNL     1      39.774   6.197   9.604  1.00  0.00    -0.390 OA
ATOM     29  H11 UNL     1      39.325   7.032   9.544  1.00  0.00     0.210 HD
ENDBRANCH  12  28
ENDBRANCH   7   8
ENDBRANCH   6   7
ENDBRANCH   3   6
BRANCH   4  30
HETATM   30  O12 UNL     1      41.737   2.406  12.657  1.00  0.00    -0.390 OA
ATOM     31  H12 UNL     1      41.416   2.060  13.481  1.00  0.00     0.210 HD
ENDBRANCH   4  30
BRANCH   1  32
HETATM   32  O2  UNL     1      38.103   4.853  13.868  1.00  0.00    -0.287 OA
BRANCH  32  33
HETATM   33  C2  UNL     1      36.795   5.267  13.710  1.00  0.00     0.257 C 
HETATM   34  C1  UNL     1      36.459   6.722  13.868  1.00  0.00     0.126 C 
HETATM   35  O1  UNL     1      35.932   4.398  13.438  1.00  0.00    -0.266 OA
ENDBRANCH  32  33
ENDBRANCH   1  32
BRANCH   5  36
HETATM   36  O13 UNL     1      38.654   2.400  11.930  1.00  0.00    -0.346 OA
BRANCH  36  37
HETATM   37  C19 UNL     1      38.589   1.066  12.328  1.00  0.00     0.292 C 
HETATM   38  O14 UNL     1      37.713   0.432  11.480  1.00  0.00    -0.351 OA
HETATM   39  C20 UNL     1      36.748  -0.321  12.091  1.00  0.00     0.152 C 
HETATM   40  C21 UNL     1      36.009  -1.127  11.050  1.00  0.00     0.042 C 
HETATM   41  C22 UNL     1      37.397  -1.291  13.061  1.00  0.00     0.178 C 
HETATM   42  C23 UNL     1      37.963  -0.457  14.178  1.00  0.00     0.183 C 
HETATM   43  C24 UNL     1      38.259   0.952  13.787  1.00  0.00     0.204 C 
BRANCH  41  44
HETATM   44  O15 UNL     1      38.426  -1.979  12.423  1.00  0.00    -0.390 OA
ATOM     45  H15 UNL     1      38.074  -2.740  11.976  1.00  0.00     0.210 HD
ENDBRANCH  41  44
BRANCH  42  46
HETATM   46  O16 UNL     1      37.068  -0.447  15.273  1.00  0.00    -0.390 OA
ATOM     47  H16 UNL     1      36.311   0.089  15.067  1.00  0.00     0.210 HD
ENDBRANCH  42  46
BRANCH  43  48
HETATM   48  O17 UNL     1      37.244   1.840  14.169  1.00  0.00    -0.388 OA
ATOM     49  H17 UNL     1      36.384   1.438  14.129  1.00  0.00     0.210 HD
ENDBRANCH  43  48
ENDBRANCH  36  37
ENDBRANCH   5  36
TORSDOF 17
ENDMDL
MODEL 4
REMARK VINA RESULT: -7.623561725      4.757     11.843
REMARK  17 active torsions:
REMARK  status: ('A' for Active; 'I' for Inactive)
REMARK    1  A    between atoms: C2_2  and  O2_4 
REMARK    2  A    between atoms: O2_4  and  C3_5 
REMARK    3  A    between atoms: C4_7  and  C5_8 
REMARK    4  A    between atoms: C5_8  and  O4_9 
REMARK    5  A    between atoms: O4_9  and  C6_10 
REMARK    6  A    between atoms: C7_11  and  O5_12 
REMARK    7  A    between atoms: C8_14  and  O6_15 
REMARK    8  A    between atoms: C9_17  and  O7_18 
REMARK    9  A    between atoms: O7_18  and  C10_19 
REMARK   10  A    between atoms: C15_26  and  O10_27 
REMARK   11  A    between atoms: C16_29  and  O11_30 
REMARK   12  A    between atoms: C17_32  and  O12_33 
REMARK   13  A    between atoms: C18_35  and  O13_36 
REMARK   14  A    between atoms: O13_36  and  C19_37 
REMARK   15  A    between atoms: C22_41  and  O15_42 
REMARK   16  A    between atoms: C23_44  and  O16_45 
REMARK   17  A    between atoms: C24_47  and  O17_48 
ROOT
HETATM    1  C3  UNL     1      39.719   3.292  13.304  1.00  0.00     0.301 C 
HETATM    2  O3  UNL     1      39.400   2.009  12.966  1.00  0.00    -0.348 OA
HETATM    3  C4  UNL     1      38.026   1.840  13.053  1.00  0.00     0.180 C 
HETATM    4  C17 UNL     1      37.421   3.222  12.879  1.00  0.00     0.183 C 
HETATM    5  C18 UNL     1      38.467   4.067  13.575  1.00  0.00     0.211 C 
ENDROOT
BRANCH   3   6
HETATM    6  C5  UNL     1      37.480   1.007  11.920  1.00  0.00     0.203 C 
BRANCH   6   7
HETATM    7  O4  UNL     1      37.629  -0.302  12.201  1.00  0.00    -0.378 OA
BRANCH   7   8
HETATM    8  C6  UNL     1      36.516  -1.081  12.374  1.00  0.00     0.184 C 
HETATM    9  C7  UNL     1      36.439  -1.757  13.704  1.00  0.00     0.181 C 
HETATM   10  C8  UNL     1      35.411  -2.850  13.450  1.00  0.00     0.181 C 
HETATM   11  C9  UNL     1      35.828  -3.346  12.054  1.00  0.00     0.184 C 
HETATM   12  C16 UNL     1      36.318  -2.129  11.342  1.00  0.00     0.181 C 
BRANCH   9  13
HETATM   13  O5  UNL     1      37.602  -2.367  14.112  1.00  0.00    -0.390 OA
ATOM     14  H5  UNL     1      37.483  -3.194  14.561  1.00  0.00     0.210 HD
ENDBRANCH   9  13
BRANCH  10  15
HETATM   15  O6  UNL     1      35.462  -3.862  14.376  1.00  0.00    -0.390 OA
ATOM     16  H6  UNL     1      35.211  -4.706  14.019  1.00  0.00     0.210 HD
ENDBRANCH  10  15
BRANCH  11  17
HETATM   17  O7  UNL     1      34.774  -3.999  11.480  1.00  0.00    -0.367 OA
BRANCH  17  18
HETATM   18  C10 UNL     1      35.026  -5.312  11.202  1.00  0.00     0.211 C 
HETATM   19  C11 UNL     1      36.269  -5.865  11.905  1.00  0.00     0.206 C 
HETATM   20  O8  UNL     1      36.096  -7.232  11.888  1.00  0.00    -0.375 OA
HETATM   21  C12 UNL     1      34.772  -7.546  11.762  1.00  0.00     0.215 C 
HETATM   22  C13 UNL     1      33.975  -7.725  13.021  1.00  0.00     0.155 C 
HETATM   23  C15 UNL     1      33.991  -6.248  11.782  1.00  0.00     0.220 C 
HETATM   24  C14 UNL     1      34.688  -8.516  14.087  1.00  0.00     0.042 C 
HETATM   25  O9  UNL     1      33.996  -6.342  13.172  1.00  0.00    -0.343 OA
BRANCH  23  26
HETATM   26  O10 UNL     1      32.775  -6.282  11.161  1.00  0.00    -0.361 OA
ATOM     27  H10 UNL     1      32.067  -5.806  11.579  1.00  0.00     0.213 HD
ENDBRANCH  23  26
ENDBRANCH  17  18
ENDBRANCH  11  17
BRANCH  12  28
HETATM   28  O11 UNL     1      35.418  -1.664  10.384  1.00  0.00    -0.390 OA
ATOM     29  H11 UNL     1      35.642  -2.035   9.539  1.00  0.00     0.210 HD
ENDBRANCH  12  28
ENDBRANCH   7   8
ENDBRANCH   6   7
ENDBRANCH   3   6
BRANCH   4  30
HETATM   30  O12 UNL     1      36.195   3.271  13.508  1.00  0.00    -0.390 OA
ATOM     31  H12 UNL     1      35.685   3.990  13.153  1.00  0.00     0.210 HD
ENDBRANCH   4  30
BRANCH   1  32
HETATM   32  O2  UNL     1      40.660   3.387  14.354  1.00  0.00    -0.287 OA
BRANCH  32  33
HETATM   33  C2  UNL     1      40.311   3.419  15.690  1.00  0.00     0.257 C 
HETATM   34  C1  UNL     1      40.463   4.698  16.461  1.00  0.00     0.126 C 
HETATM   35  O1  UNL     1      39.875   2.363  16.208  1.00  0.00    -0.266 OA
ENDBRANCH  32  33
ENDBRANCH   1  32
BRANCH   5  36
HETATM   36  O13 UNL     1      38.539   5.348  13.037  1.00  0.00    -0.346 OA
BRANCH  36  37
HETATM   37  C19 UNL     1      38.178   6.351  13.934  1.00  0.00     0.292 C 
HETATM   38  O14 UNL     1      36.944   6.818  13.547  1.00  0.00    -0.351 OA
HETATM   39  C20 UNL     1      36.838   8.177  13.443  1.00  0.00     0.152 C 
HETATM   40  C21 UNL     1      35.390   8.552  13.232  1.00  0.00     0.042 C 
HETATM   41  C22 UNL     1      37.306   8.824  14.735  1.00  0.00     0.178 C 
HETATM   42  C23 UNL     1      38.790   8.584  14.814  1.00  0.00     0.183 C 
HETATM   43  C24 UNL     1      39.249   7.396  14.039  1.00  0.00     0.204 C 
BRANCH  41  44
HETATM   44  O15 UNL     1      36.676   8.221  15.819  1.00  0.00    -0.390 OA
ATOM     45  H15 UNL     1      36.467   8.877  16.475  1.00  0.00     0.210 HD
ENDBRANCH  41  44
BRANCH  42  46
HETATM   46  O16 UNL     1      39.487   9.726  14.355  1.00  0.00    -0.390 OA
ATOM     47  H16 UNL     1      39.779  10.246  15.094  1.00  0.00     0.210 HD
ENDBRANCH  42  46
BRANCH  43  48
HETATM   48  O17 UNL     1      39.772   7.742  12.785  1.00  0.00    -0.388 OA
ATOM     49  H17 UNL     1      40.197   8.592  12.797  1.00  0.00     0.210 HD
ENDBRANCH  43  48
ENDBRANCH  36  37
ENDBRANCH   5  36
TORSDOF 17
ENDMDL
MODEL 5
REMARK VINA RESULT: -7.527440887      1.140      1.979
REMARK  17 active torsions:
REMARK  status: ('A' for Active; 'I' for Inactive)
REMARK    1  A    between atoms: C2_2  and  O2_4 
REMARK    2  A    between atoms: O2_4  and  C3_5 
REMARK    3  A    between atoms: C4_7  and  C5_8 
REMARK    4  A    between atoms: C5_8  and  O4_9 
REMARK    5  A    between atoms: O4_9  and  C6_10 
REMARK    6  A    between atoms: C7_11  and  O5_12 
REMARK    7  A    between atoms: C8_14  and  O6_15 
REMARK    8  A    between atoms: C9_17  and  O7_18 
REMARK    9  A    between atoms: O7_18  and  C10_19 
REMARK   10  A    between atoms: C15_26  and  O10_27 
REMARK   11  A    between atoms: C16_29  and  O11_30 
REMARK   12  A    between atoms: C17_32  and  O12_33 
REMARK   13  A    between atoms: C18_35  and  O13_36 
REMARK   14  A    between atoms: O13_36  and  C19_37 
REMARK   15  A    between atoms: C22_41  and  O15_42 
REMARK   16  A    between atoms: C23_44  and  O16_45 
REMARK   17  A    between atoms: C24_47  and  O17_48 
ROOT
HETATM    1  C3  UNL     1      38.479   4.590  12.737  1.00  0.00     0.301 C 
HETATM    2  O3  UNL     1      39.702   5.167  12.554  1.00  0.00    -0.348 OA
HETATM    3  C4  UNL     1      40.677   4.180  12.524  1.00  0.00     0.180 C 
HETATM    4  C17 UNL     1      39.969   2.907  12.095  1.00  0.00     0.183 C 
HETATM    5  C18 UNL     1      38.626   3.100  12.766  1.00  0.00     0.211 C 
ENDROOT
BRANCH   3   6
HETATM    6  C5  UNL     1      41.725   4.443  11.472  1.00  0.00     0.203 C 
BRANCH   6   7
HETATM    7  O4  UNL     1      41.181   5.126  10.446  1.00  0.00    -0.378 OA
BRANCH   7   8
HETATM    8  C6  UNL     1      41.867   6.181   9.905  1.00  0.00     0.184 C 
HETATM    9  C7  UNL     1      41.669   7.477  10.623  1.00  0.00     0.181 C 
HETATM   10  C8  UNL     1      42.141   8.491   9.592  1.00  0.00     0.181 C 
HETATM   11  C9  UNL     1      41.539   7.916   8.297  1.00  0.00     0.184 C 
HETATM   12  C16 UNL     1      41.597   6.435   8.469  1.00  0.00     0.181 C 
BRANCH   9  13
HETATM   13  O5  UNL     1      40.361   7.773  10.930  1.00  0.00    -0.390 OA
ATOM     14  H5  UNL     1      40.063   7.440  11.768  1.00  0.00     0.210 HD
ENDBRANCH   9  13
BRANCH  10  15
HETATM   15  O6  UNL     1      41.680   9.761   9.837  1.00  0.00    -0.390 OA
ATOM     16  H6  UNL     1      42.193  10.224  10.489  1.00  0.00     0.210 HD
ENDBRANCH  10  15
BRANCH  11  17
HETATM   17  O7  UNL     1      42.216   8.427   7.226  1.00  0.00    -0.367 OA
BRANCH  17  18
HETATM   18  C10 UNL     1      41.444   9.197   6.404  1.00  0.00     0.211 C 
HETATM   19  C11 UNL     1      40.037   9.465   6.948  1.00  0.00     0.206 C 
HETATM   20  O8  UNL     1      39.606  10.576   6.258  1.00  0.00    -0.375 OA
HETATM   21  C12 UNL     1      40.671  11.293   5.790  1.00  0.00     0.215 C 
HETATM   22  C13 UNL     1      41.223  12.378   6.669  1.00  0.00     0.155 C 
HETATM   23  C15 UNL     1      41.931  10.623   6.298  1.00  0.00     0.220 C 
HETATM   24  C14 UNL     1      40.166  13.223   7.332  1.00  0.00     0.042 C 
HETATM   25  O9  UNL     1      41.789  11.381   7.459  1.00  0.00    -0.343 OA
BRANCH  23  26
HETATM   26  O10 UNL     1      43.055  10.836   5.551  1.00  0.00    -0.361 OA
ATOM     27  H10 UNL     1      43.799  10.273   5.726  1.00  0.00     0.213 HD
ENDBRANCH  23  26
ENDBRANCH  17  18
ENDBRANCH  11  17
BRANCH  12  28
HETATM   28  O11 UNL     1      42.598   5.841   7.702  1.00  0.00    -0.390 OA
ATOM     29  H11 UNL     1      42.283   5.721   6.814  1.00  0.00     0.210 HD
ENDBRANCH  12  28
ENDBRANCH   7   8
ENDBRANCH   6   7
ENDBRANCH   3   6
BRANCH   4  30
HETATM   30  O12 UNL     1      40.653   1.813  12.582  1.00  0.00    -0.390 OA
ATOM     31  H12 UNL     1      41.514   1.772  12.183  1.00  0.00     0.210 HD
ENDBRANCH   4  30
BRANCH   1  32
HETATM   32  O2  UNL     1      37.773   5.093  13.852  1.00  0.00    -0.287 OA
BRANCH  32  33
HETATM   33  C2  UNL     1      36.567   5.757  13.753  1.00  0.00     0.257 C 
HETATM   34  C1  UNL     1      36.541   7.256  13.841  1.00  0.00     0.126 C 
HETATM   35  O1  UNL     1      35.529   5.071  13.593  1.00  0.00    -0.266 OA
ENDBRANCH  32  33
ENDBRANCH   1  32
BRANCH   5  36
HETATM   36  O13 UNL     1      37.601   2.478  12.060  1.00  0.00    -0.346 OA
BRANCH  36  37
HETATM   37  C19 UNL     1      37.105   1.337  12.687  1.00  0.00     0.292 C 
HETATM   38  O14 UNL     1      38.187   0.601  13.107  1.00  0.00    -0.351 OA
HETATM   39  C20 UNL     1      38.164  -0.723  12.766  1.00  0.00     0.152 C 
HETATM   40  C21 UNL     1      39.286  -1.443  13.475  1.00  0.00     0.042 C 
HETATM   41  C22 UNL     1      36.852  -1.341  13.216  1.00  0.00     0.178 C 
HETATM   42  C23 UNL     1      35.779  -0.729  12.356  1.00  0.00     0.183 C 
HETATM   43  C24 UNL     1      36.144   0.604  11.797  1.00  0.00     0.204 C 
BRANCH  41  44
HETATM   44  O15 UNL     1      36.617  -1.028  14.552  1.00  0.00    -0.390 OA
ATOM     45  H15 UNL     1      36.892  -1.751  15.105  1.00  0.00     0.210 HD
ENDBRANCH  41  44
BRANCH  42  46
HETATM   46  O16 UNL     1      35.464  -1.601  11.288  1.00  0.00    -0.390 OA
ATOM     47  H16 UNL     1      34.835  -1.187  10.708  1.00  0.00     0.210 HD
ENDBRANCH  42  46
BRANCH  43  48
HETATM   48  O17 UNL     1      36.605   0.525  10.476  1.00  0.00    -0.388 OA
ATOM     49  H17 UNL     1      36.240  -0.221  10.014  1.00  0.00     0.210 HD
ENDBRANCH  43  48
ENDBRANCH  36  37
ENDBRANCH   5  36
TORSDOF 17
ENDMDL
