MODEL 1
REMARK VINA RESULT: -7.295639542      0.000      0.000
REMARK  16 active torsions:
REMARK  status: ('A' for Active; 'I' for Inactive)
REMARK    1  A    between atoms: O1_2  and  C2_3 
REMARK    2  A    between atoms: C3_4  and  O2_5 
REMARK    3  A    between atoms: O2_5  and  C4_6 
REMARK    4  A    between atoms: C7_10  and  O4_11 
REMARK    5  A    between atoms: C8_13  and  O5_14 
REMARK    6  A    between atoms: C13_23  and  O9_24 
REMARK    7  A    between atoms: O9_24  and  C14_25 
REMARK    8  A    between atoms: C15_26  and  O10_27 
REMARK    9  A    between atoms: C16_29  and  O11_30 
REMARK   10  A    between atoms: C17_32  and  O12_33 
REMARK   11  A    between atoms: C18_35  and  O13_36 
REMARK   12  A    between atoms: O13_36  and  C19_37 
REMARK   13  A    between atoms: C21_40  and  C22_41 
REMARK   14  A    between atoms: C22_41  and  O15_42 
REMARK   15  A    between atoms: C23_44  and  O16_45 
REMARK   16  A    between atoms: C24_47  and  O17_48 
ROOT
HETATM    1  C2  UNL     1      38.271  -2.530  14.217  1.00  0.00     0.207 C 
HETATM    2  C3  UNL     1      37.153  -3.055  13.396  1.00  0.00     0.294 C 
HETATM    3  O8  UNL     1      36.761  -2.027  12.516  1.00  0.00    -0.356 OA
HETATM    4  C12 UNL     1      37.829  -1.286  12.040  1.00  0.00     0.205 C 
HETATM    5  C13 UNL     1      38.376  -0.358  13.138  1.00  0.00     0.177 C 
HETATM    6  C24 UNL     1      37.974  -1.025  14.432  1.00  0.00     0.183 C 
ENDROOT
BRANCH   5   7
HETATM    7  O9  UNL     1      39.745  -0.400  13.028  1.00  0.00    -0.370 OA
BRANCH   7   8
HETATM    8  C14 UNL     1      40.323   0.849  13.259  1.00  0.00     0.185 C 
HETATM    9  C15 UNL     1      41.778   0.639  13.497  1.00  0.00     0.181 C 
HETATM   10  C16 UNL     1      42.255   0.243  12.092  1.00  0.00     0.180 C 
HETATM   11  C17 UNL     1      41.487   1.209  11.220  1.00  0.00     0.181 C 
HETATM   12  C18 UNL     1      40.272   1.646  11.985  1.00  0.00     0.187 C 
BRANCH   9  13
HETATM   13  O10 UNL     1      42.097  -0.335  14.415  1.00  0.00    -0.390 OA
ATOM     14  H10 UNL     1      41.562  -0.352  15.200  1.00  0.00     0.210 HD
ENDBRANCH   9  13
BRANCH  10  15
HETATM   15  O11 UNL     1      41.879  -1.069  11.821  1.00  0.00    -0.390 OA
ATOM     16  H11 UNL     1      41.705  -1.168  10.892  1.00  0.00     0.210 HD
ENDBRANCH  10  15
BRANCH  11  17
HETATM   17  O12 UNL     1      41.156   0.601  10.003  1.00  0.00    -0.390 OA
ATOM     18  H12 UNL     1      40.303   0.186  10.066  1.00  0.00     0.210 HD
ENDBRANCH  11  17
BRANCH  12  19
HETATM   19  O13 UNL     1      40.168   2.996  12.153  1.00  0.00    -0.347 OA
BRANCH  19  20
HETATM   20  C19 UNL     1      39.182   3.461  12.945  1.00  0.00     0.298 C 
HETATM   21  O14 UNL     1      37.930   2.979  12.419  1.00  0.00    -0.329 OA
HETATM   22  C20 UNL     1      36.956   3.847  12.953  1.00  0.00     0.146 C 
HETATM   23  C21 UNL     1      37.497   5.019  13.220  1.00  0.00    -0.002 C 
HETATM   24  C23 UNL     1      38.927   4.946  12.840  1.00  0.00     0.206 C 
BRANCH  23  25
HETATM   25  C22 UNL     1      36.781   6.192  13.796  1.00  0.00     0.203 C 
BRANCH  25  26
HETATM   26  O15 UNL     1      35.469   6.226  13.301  1.00  0.00    -0.397 OA
ATOM     27  H15 UNL     1      35.113   7.101  13.408  1.00  0.00     0.209 HD
ENDBRANCH  25  26
ENDBRANCH  23  25
BRANCH  24  28
HETATM   28  O16 UNL     1      39.149   5.426  11.551  1.00  0.00    -0.386 OA
ATOM     29  H16 UNL     1      39.358   6.352  11.546  1.00  0.00     0.210 HD
ENDBRANCH  24  28
ENDBRANCH  19  20
ENDBRANCH  12  19
ENDBRANCH   7   8
ENDBRANCH   5   7
BRANCH   6  30
HETATM   30  O17 UNL     1      36.599  -0.886  14.589  1.00  0.00    -0.390 OA
ATOM     31  H17 UNL     1      36.450  -0.398  15.390  1.00  0.00     0.210 HD
ENDBRANCH   6  30
BRANCH   1  32
HETATM   32  O1  UNL     1      38.412  -3.052  15.476  1.00  0.00    -0.383 OA
HETATM   33  C1  UNL     1      39.462  -2.405  16.121  1.00  0.00     0.202 C 
ENDBRANCH   1  32
BRANCH   2  34
HETATM   34  O2  UNL     1      37.379  -4.231  12.721  1.00  0.00    -0.323 OA
BRANCH  34  35
HETATM   35  C4  UNL     1      36.363  -5.124  12.930  1.00  0.00     0.328 C 
HETATM   36  O3  UNL     1      35.669  -5.430  11.751  1.00  0.00    -0.348 OA
HETATM   37  C5  UNL     1      34.488  -6.064  12.021  1.00  0.00     0.152 C 
HETATM   38  C6  UNL     1      34.374  -7.269  11.103  1.00  0.00     0.042 C 
HETATM   39  C7  UNL     1      34.267  -6.440  13.445  1.00  0.00     0.181 C 
HETATM   40  C8  UNL     1      35.488  -7.054  14.105  1.00  0.00     0.216 C 
HETATM   41  C9  UNL     1      36.761  -6.448  13.519  1.00  0.00     0.244 A 
HETATM   42  O6  UNL     1      37.149  -7.292  12.491  1.00  0.00    -0.347 OA
HETATM   43  O7  UNL     1      37.770  -6.362  14.424  1.00  0.00    -0.347 OA
HETATM   44  C10 UNL     1      38.432  -7.709  12.712  1.00  0.00     0.198 A 
HETATM   45  C11 UNL     1      38.818  -7.155  14.043  1.00  0.00     0.198 A 
BRANCH  39  46
HETATM   46  O4  UNL     1      33.275  -7.447  13.463  1.00  0.00    -0.390 OA
ATOM     47  H4  UNL     1      33.724  -8.285  13.455  1.00  0.00     0.210 HD
ENDBRANCH  39  46
BRANCH  40  48
HETATM   48  O5  UNL     1      35.454  -6.778  15.478  1.00  0.00    -0.387 OA
ATOM     49  H5  UNL     1      36.343  -6.680  15.798  1.00  0.00     0.210 HD
ENDBRANCH  40  48
ENDBRANCH  34  35
ENDBRANCH   2  34
TORSDOF 16
ENDMDL
MODEL 2
REMARK VINA RESULT: -6.965258987      3.141     10.903
REMARK  16 active torsions:
REMARK  status: ('A' for Active; 'I' for Inactive)
REMARK    1  A    between atoms: O1_2  and  C2_3 
REMARK    2  A    between atoms: C3_4  and  O2_5 
REMARK    3  A    between atoms: O2_5  and  C4_6 
REMARK    4  A    between atoms: C7_10  and  O4_11 
REMARK    5  A    between atoms: C8_13  and  O5_14 
REMARK    6  A    between atoms: C13_23  and  O9_24 
REMARK    7  A    between atoms: O9_24  and  C14_25 
REMARK    8  A    between atoms: C15_26  and  O10_27 
REMARK    9  A    between atoms: C16_29  and  O11_30 
REMARK   10  A    between atoms: C17_32  and  O12_33 
REMARK   11  A    between atoms: C18_35  and  O13_36 
REMARK   12  A    between atoms: O13_36  and  C19_37 
REMARK   13  A    between atoms: C21_40  and  C22_41 
REMARK   14  A    between atoms: C22_41  and  O15_42 
REMARK   15  A    between atoms: C23_44  and  O16_45 
REMARK   16  A    between atoms: C24_47  and  O17_48 
ROOT
HETATM    1  C2  UNL     1      39.017   5.108  13.967  1.00  0.00     0.207 C 
HETATM    2  C3  UNL     1      37.930   6.111  13.857  1.00  0.00     0.294 C 
HETATM    3  O8  UNL     1      36.890   5.522  13.112  1.00  0.00    -0.356 OA
HETATM    4  C12 UNL     1      36.718   4.178  13.393  1.00  0.00     0.205 C 
HETATM    5  C13 UNL     1      37.852   3.345  12.772  1.00  0.00     0.177 C 
HETATM    6  C24 UNL     1      39.002   4.315  12.636  1.00  0.00     0.183 C 
ENDROOT
BRANCH   5   7
HETATM    7  O9  UNL     1      38.185   2.395  13.706  1.00  0.00    -0.370 OA
BRANCH   7   8
HETATM    8  C14 UNL     1      38.528   1.180  13.111  1.00  0.00     0.185 C 
HETATM    9  C15 UNL     1      39.840   0.753  13.672  1.00  0.00     0.181 C 
HETATM   10  C16 UNL     1      39.441   0.384  15.109  1.00  0.00     0.180 C 
HETATM   11  C17 UNL     1      38.133  -0.341  14.893  1.00  0.00     0.181 C 
HETATM   12  C18 UNL     1      37.567   0.125  13.583  1.00  0.00     0.187 C 
BRANCH   9  13
HETATM   13  O10 UNL     1      40.829   1.709  13.668  1.00  0.00    -0.390 OA
ATOM     14  H10 UNL     1      41.718   1.381  13.727  1.00  0.00     0.210 HD
ENDBRANCH   9  13
BRANCH  10  15
HETATM   15  O11 UNL     1      39.244   1.543  15.853  1.00  0.00    -0.390 OA
ATOM     16  H11 UNL     1      39.681   1.463  16.694  1.00  0.00     0.210 HD
ENDBRANCH  10  15
BRANCH  11  17
HETATM   17  O12 UNL     1      37.264  -0.096  15.963  1.00  0.00    -0.390 OA
ATOM     18  H12 UNL     1      36.414   0.177  15.637  1.00  0.00     0.210 HD
ENDBRANCH  11  17
BRANCH  12  19
HETATM   19  O13 UNL     1      37.323  -0.876  12.688  1.00  0.00    -0.347 OA
BRANCH  19  20
HETATM   20  C19 UNL     1      36.706  -1.988  13.134  1.00  0.00     0.298 C 
HETATM   21  O14 UNL     1      37.516  -3.121  12.766  1.00  0.00    -0.329 OA
HETATM   22  C20 UNL     1      36.639  -4.223  12.812  1.00  0.00     0.146 C 
HETATM   23  C21 UNL     1      35.401  -3.820  12.602  1.00  0.00    -0.002 C 
HETATM   24  C23 UNL     1      35.439  -2.353  12.397  1.00  0.00     0.206 C 
BRANCH  23  25
HETATM   25  C22 UNL     1      34.198  -4.698  12.577  1.00  0.00     0.203 C 
BRANCH  25  26
HETATM   26  O15 UNL     1      33.624  -4.666  11.297  1.00  0.00    -0.397 OA
ATOM     27  H15 UNL     1      32.679  -4.597  11.376  1.00  0.00     0.209 HD
ENDBRANCH  25  26
ENDBRANCH  23  25
BRANCH  24  28
HETATM   28  O16 UNL     1      35.504  -2.017  11.047  1.00  0.00    -0.386 OA
ATOM     29  H16 UNL     1      34.897  -2.527  10.523  1.00  0.00     0.210 HD
ENDBRANCH  24  28
ENDBRANCH  19  20
ENDBRANCH  12  19
ENDBRANCH   7   8
ENDBRANCH   5   7
BRANCH   6  30
HETATM   30  O17 UNL     1      38.704   5.211  11.615  1.00  0.00    -0.390 OA
ATOM     31  H17 UNL     1      39.177   6.015  11.791  1.00  0.00     0.210 HD
ENDBRANCH   6  30
BRANCH   1  32
HETATM   32  O1  UNL     1      40.295   5.590  14.084  1.00  0.00    -0.383 OA
HETATM   33  C1  UNL     1      40.942   4.916  15.115  1.00  0.00     0.202 C 
ENDBRANCH   1  32
BRANCH   2  34
HETATM   34  O2  UNL     1      37.461   6.647  15.033  1.00  0.00    -0.323 OA
BRANCH  34  35
HETATM   35  C4  UNL     1      37.979   7.895  15.249  1.00  0.00     0.328 C 
HETATM   36  O3  UNL     1      37.037   8.910  15.030  1.00  0.00    -0.348 OA
HETATM   37  C5  UNL     1      37.639  10.135  14.945  1.00  0.00     0.152 C 
HETATM   38  C6  UNL     1      36.860  11.108  15.814  1.00  0.00     0.042 C 
HETATM   39  C7  UNL     1      39.094  10.164  15.261  1.00  0.00     0.181 C 
HETATM   40  C8  UNL     1      39.461   9.355  16.491  1.00  0.00     0.216 C 
HETATM   41  C9  UNL     1      38.534   8.149  16.622  1.00  0.00     0.244 A 
HETATM   42  O6  UNL     1      37.499   8.551  17.452  1.00  0.00    -0.347 OA
HETATM   43  O7  UNL     1      39.146   7.069  17.173  1.00  0.00    -0.347 OA
HETATM   44  C10 UNL     1      37.414   7.694  18.513  1.00  0.00     0.198 A 
HETATM   45  C11 UNL     1      38.564   6.754  18.370  1.00  0.00     0.198 A 
BRANCH  39  46
HETATM   46  O4  UNL     1      39.429  11.503  15.570  1.00  0.00    -0.390 OA
ATOM     47  H4  UNL     1      39.913  11.849  14.830  1.00  0.00     0.210 HD
ENDBRANCH  39  46
BRANCH  40  48
HETATM   48  O5  UNL     1      40.777   8.892  16.359  1.00  0.00    -0.387 OA
ATOM     49  H5  UNL     1      41.227   8.992  17.190  1.00  0.00     0.210 HD
ENDBRANCH  40  48
ENDBRANCH  34  35
ENDBRANCH   2  34
TORSDOF 16
ENDMDL
MODEL 3
REMARK VINA RESULT: -6.832155096      4.956     11.400
REMARK  16 active torsions:
REMARK  status: ('A' for Active; 'I' for Inactive)
REMARK    1  A    between atoms: O1_2  and  C2_3 
REMARK    2  A    between atoms: C3_4  and  O2_5 
REMARK    3  A    between atoms: O2_5  and  C4_6 
REMARK    4  A    between atoms: C7_10  and  O4_11 
REMARK    5  A    between atoms: C8_13  and  O5_14 
REMARK    6  A    between atoms: C13_23  and  O9_24 
REMARK    7  A    between atoms: O9_24  and  C14_25 
REMARK    8  A    between atoms: C15_26  and  O10_27 
REMARK    9  A    between atoms: C16_29  and  O11_30 
REMARK   10  A    between atoms: C17_32  and  O12_33 
REMARK   11  A    between atoms: C18_35  and  O13_36 
REMARK   12  A    between atoms: O13_36  and  C19_37 
REMARK   13  A    between atoms: C21_40  and  C22_41 
REMARK   14  A    between atoms: C22_41  and  O15_42 
REMARK   15  A    between atoms: C23_44  and  O16_45 
REMARK   16  A    between atoms: C24_47  and  O17_48 
ROOT
HETATM    1  C2  UNL     1      39.898   5.888  11.295  1.00  0.00     0.207 C 
HETATM    2  C3  UNL     1      41.013   6.072  10.334  1.00  0.00     0.294 C 
HETATM    3  O8  UNL     1      41.941   5.038  10.568  1.00  0.00    -0.356 OA
HETATM    4  C12 UNL     1      41.339   3.831  10.879  1.00  0.00     0.205 C 
HETATM    5  C13 UNL     1      40.770   3.863  12.309  1.00  0.00     0.177 C 
HETATM    6  C24 UNL     1      40.537   5.328  12.590  1.00  0.00     0.183 C 
ENDROOT
BRANCH   5   7
HETATM    7  O9  UNL     1      39.555   3.226  12.252  1.00  0.00    -0.370 OA
BRANCH   7   8
HETATM    8  C14 UNL     1      38.911   3.224  13.490  1.00  0.00     0.185 C 
HETATM    9  C15 UNL     1      37.444   3.163  13.239  1.00  0.00     0.181 C 
HETATM   10  C16 UNL     1      37.292   1.726  12.718  1.00  0.00     0.180 C 
HETATM   11  C17 UNL     1      38.206   0.961  13.647  1.00  0.00     0.181 C 
HETATM   12  C18 UNL     1      39.216   1.929  14.189  1.00  0.00     0.187 C 
BRANCH   9  13
HETATM   13  O10 UNL     1      36.958   4.069  12.325  1.00  0.00    -0.390 OA
ATOM     14  H10 UNL     1      36.035   4.279  12.403  1.00  0.00     0.210 HD
ENDBRANCH   9  13
BRANCH  10  15
HETATM   15  O11 UNL     1      37.748   1.651  11.406  1.00  0.00    -0.390 OA
ATOM     16  H11 UNL     1      38.195   0.824  11.269  1.00  0.00     0.210 HD
ENDBRANCH  10  15
BRANCH  11  17
HETATM   17  O12 UNL     1      38.806  -0.103  12.962  1.00  0.00    -0.390 OA
ATOM     18  H12 UNL     1      39.541  -0.440  13.462  1.00  0.00     0.210 HD
ENDBRANCH  11  17
BRANCH  12  19
HETATM   19  O13 UNL     1      39.249   2.003  15.552  1.00  0.00    -0.347 OA
BRANCH  19  20
HETATM   20  C19 UNL     1      39.643   0.911  16.235  1.00  0.00     0.298 C 
HETATM   21  O14 UNL     1      38.460   0.226  16.693  1.00  0.00    -0.329 OA
HETATM   22  C20 UNL     1      38.901  -0.583  17.759  1.00  0.00     0.146 C 
HETATM   23  C21 UNL     1      39.978  -0.056  18.308  1.00  0.00    -0.002 C 
HETATM   24  C23 UNL     1      40.286   1.193  17.572  1.00  0.00     0.206 C 
BRANCH  23  25
HETATM   25  C22 UNL     1      40.730  -0.627  19.461  1.00  0.00     0.203 C 
BRANCH  25  26
HETATM   26  O15 UNL     1      40.478   0.140  20.608  1.00  0.00    -0.397 OA
ATOM     27  H15 UNL     1      40.969  -0.216  21.340  1.00  0.00     0.209 HD
ENDBRANCH  25  26
ENDBRANCH  23  25
BRANCH  24  28
HETATM   28  O16 UNL     1      39.736   2.312  18.192  1.00  0.00    -0.386 OA
ATOM     29  H16 UNL     1      40.341   2.715  18.803  1.00  0.00     0.210 HD
ENDBRANCH  24  28
ENDBRANCH  19  20
ENDBRANCH  12  19
ENDBRANCH   7   8
ENDBRANCH   5   7
BRANCH   6  30
HETATM   30  O17 UNL     1      41.771   5.947  12.752  1.00  0.00    -0.390 OA
ATOM     31  H17 UNL     1      41.669   6.625  13.410  1.00  0.00     0.210 HD
ENDBRANCH   6  30
BRANCH   1  32
HETATM   32  O1  UNL     1      39.225   7.017  11.685  1.00  0.00    -0.383 OA
HETATM   33  C1  UNL     1      38.764   6.844  12.987  1.00  0.00     0.202 C 
ENDBRANCH   1  32
BRANCH   2  34
HETATM   34  O2  UNL     1      40.678   6.151   9.003  1.00  0.00    -0.323 OA
BRANCH  34  35
HETATM   35  C4  UNL     1      40.987   7.380   8.488  1.00  0.00     0.328 C 
HETATM   36  O3  UNL     1      41.473   8.262   9.465  1.00  0.00    -0.348 OA
HETATM   37  C5  UNL     1      41.481   9.551   9.009  1.00  0.00     0.152 C 
HETATM   38  C6  UNL     1      42.827  10.167   9.351  1.00  0.00     0.042 C 
HETATM   39  C7  UNL     1      41.148   9.730   7.569  1.00  0.00     0.181 C 
HETATM   40  C8  UNL     1      41.834   8.726   6.661  1.00  0.00     0.216 C 
HETATM   41  C9  UNL     1      42.009   7.395   7.387  1.00  0.00     0.244 A 
HETATM   42  O6  UNL     1      43.273   7.432   7.954  1.00  0.00    -0.347 OA
HETATM   43  O7  UNL     1      41.930   6.325   6.555  1.00  0.00    -0.347 OA
HETATM   44  C10 UNL     1      43.991   6.352   7.524  1.00  0.00     0.198 A 
HETATM   45  C11 UNL     1      43.124   5.657   6.527  1.00  0.00     0.198 A 
BRANCH  39  46
HETATM   46  O4  UNL     1      41.640  10.997   7.180  1.00  0.00    -0.390 OA
ATOM     47  H4  UNL     1      41.630  11.023   6.230  1.00  0.00     0.210 HD
ENDBRANCH  39  46
BRANCH  40  48
HETATM   48  O5  UNL     1      41.037   8.514   5.527  1.00  0.00    -0.387 OA
ATOM     49  H5  UNL     1      41.172   7.628   5.214  1.00  0.00     0.210 HD
ENDBRANCH  40  48
ENDBRANCH  34  35
ENDBRANCH   2  34
TORSDOF 16
ENDMDL
MODEL 4
REMARK VINA RESULT: -6.744663798      3.850     10.586
REMARK  16 active torsions:
REMARK  status: ('A' for Active; 'I' for Inactive)
REMARK    1  A    between atoms: O1_2  and  C2_3 
REMARK    2  A    between atoms: C3_4  and  O2_5 
REMARK    3  A    between atoms: O2_5  and  C4_6 
REMARK    4  A    between atoms: C7_10  and  O4_11 
REMARK    5  A    between atoms: C8_13  and  O5_14 
REMARK    6  A    between atoms: C13_23  and  O9_24 
REMARK    7  A    between atoms: O9_24  and  C14_25 
REMARK    8  A    between atoms: C15_26  and  O10_27 
REMARK    9  A    between atoms: C16_29  and  O11_30 
REMARK   10  A    between atoms: C17_32  and  O12_33 
REMARK   11  A    between atoms: C18_35  and  O13_36 
REMARK   12  A    between atoms: O13_36  and  C19_37 
REMARK   13  A    between atoms: C21_40  and  C22_41 
REMARK   14  A    between atoms: C22_41  and  O15_42 
REMARK   15  A    between atoms: C23_44  and  O16_45 
REMARK   16  A    between atoms: C24_47  and  O17_48 
ROOT
HETATM    1  C2  UNL     1      40.660   3.773  12.001  1.00  0.00     0.207 C 
HETATM    2  C3  UNL     1      41.937   3.741  11.247  1.00  0.00     0.294 C 
HETATM    3  O8  UNL     1      42.317   2.390  11.126  1.00  0.00    -0.356 OA
HETATM    4  C12 UNL     1      41.243   1.542  10.923  1.00  0.00     0.205 C 
HETATM    5  C13 UNL     1      40.439   1.367  12.223  1.00  0.00     0.177 C 
HETATM    6  C24 UNL     1      40.738   2.612  13.023  1.00  0.00     0.183 C 
ENDROOT
BRANCH   5   7
HETATM    7  O9  UNL     1      39.114   1.384  11.859  1.00  0.00    -0.370 OA
BRANCH   7   8
HETATM    8  C14 UNL     1      38.273   1.172  12.953  1.00  0.00     0.185 C 
HETATM    9  C15 UNL     1      36.965   1.818  12.651  1.00  0.00     0.181 C 
HETATM   10  C16 UNL     1      36.421   0.888  11.556  1.00  0.00     0.180 C 
HETATM   11  C17 UNL     1      36.793  -0.475  12.092  1.00  0.00     0.181 C 
HETATM   12  C18 UNL     1      37.948  -0.293  13.034  1.00  0.00     0.187 C 
BRANCH   9  13
HETATM   13  O10 UNL     1      37.031   3.117  12.203  1.00  0.00    -0.390 OA
ATOM     14  H10 UNL     1      36.410   3.719  12.594  1.00  0.00     0.210 HD
ENDBRANCH   9  13
BRANCH  10  15
HETATM   15  O11 UNL     1      37.079   1.141  10.356  1.00  0.00    -0.390 OA
ATOM     16  H11 UNL     1      36.776   0.535   9.690  1.00  0.00     0.210 HD
ENDBRANCH  10  15
BRANCH  11  17
HETATM   17  O12 UNL     1      37.103  -1.340  11.036  1.00  0.00    -0.390 OA
ATOM     18  H12 UNL     1      37.439  -2.162  11.374  1.00  0.00     0.210 HD
ENDBRANCH  11  17
BRANCH  12  19
HETATM   19  O13 UNL     1      37.726  -0.766  14.294  1.00  0.00    -0.347 OA
BRANCH  19  20
HETATM   20  C19 UNL     1      38.778  -0.856  15.131  1.00  0.00     0.298 C 
HETATM   21  O14 UNL     1      38.911  -2.235  15.527  1.00  0.00    -0.329 OA
HETATM   22  C20 UNL     1      39.665  -2.199  16.717  1.00  0.00     0.146 C 
HETATM   23  C21 UNL     1      39.495  -1.039  17.321  1.00  0.00    -0.002 C 
HETATM   24  C23 UNL     1      38.563  -0.238  16.493  1.00  0.00     0.206 C 
BRANCH  23  25
HETATM   25  C22 UNL     1      40.132  -0.630  18.604  1.00  0.00     0.203 C 
BRANCH  25  26
HETATM   26  O15 UNL     1      39.249   0.189  19.323  1.00  0.00    -0.397 OA
ATOM     27  H15 UNL     1      39.746   0.793  19.863  1.00  0.00     0.209 HD
ENDBRANCH  25  26
ENDBRANCH  23  25
BRANCH  24  28
HETATM   28  O16 UNL     1      37.245  -0.364  16.923  1.00  0.00    -0.386 OA
ATOM     29  H16 UNL     1      36.773   0.459  16.874  1.00  0.00     0.210 HD
ENDBRANCH  24  28
ENDBRANCH  19  20
ENDBRANCH  12  19
ENDBRANCH   7   8
ENDBRANCH   5   7
BRANCH   6  30
HETATM   30  O17 UNL     1      42.050   2.538  13.478  1.00  0.00    -0.390 OA
ATOM     31  H17 UNL     1      42.022   2.426  14.420  1.00  0.00     0.210 HD
ENDBRANCH   6  30
BRANCH   1  32
HETATM   32  O1  UNL     1      40.412   4.894  12.750  1.00  0.00    -0.383 OA
HETATM   33  C1  UNL     1      39.440   5.660  12.112  1.00  0.00     0.202 C 
ENDBRANCH   1  32
BRANCH   2  34
HETATM   34  O2  UNL     1      41.953   4.376  10.028  1.00  0.00    -0.323 OA
BRANCH  34  35
HETATM   35  C4  UNL     1      42.609   5.575  10.104  1.00  0.00     0.328 C 
HETATM   36  O3  UNL     1      43.985   5.447   9.872  1.00  0.00    -0.348 OA
HETATM   37  C5  UNL     1      44.660   6.574  10.252  1.00  0.00     0.152 C 
HETATM   38  C6  UNL     1      45.619   6.953   9.136  1.00  0.00     0.042 C 
HETATM   39  C7  UNL     1      43.812   7.728  10.660  1.00  0.00     0.181 C 
HETATM   40  C8  UNL     1      42.634   7.969   9.734  1.00  0.00     0.216 C 
HETATM   41  C9  UNL     1      42.138   6.644   9.160  1.00  0.00     0.244 A 
HETATM   42  O6  UNL     1      42.791   6.485   7.948  1.00  0.00    -0.347 OA
HETATM   43  O7  UNL     1      40.798   6.631   8.944  1.00  0.00    -0.347 OA
HETATM   44  C10 UNL     1      41.864   6.317   6.957  1.00  0.00     0.198 A 
HETATM   45  C11 UNL     1      40.534   6.496   7.608  1.00  0.00     0.198 A 
BRANCH  39  46
HETATM   46  O4  UNL     1      44.613   8.889  10.569  1.00  0.00    -0.390 OA
ATOM     47  H4  UNL     1      44.124   9.531  10.068  1.00  0.00     0.210 HD
ENDBRANCH  39  46
BRANCH  40  48
HETATM   48  O5  UNL     1      41.591   8.557  10.463  1.00  0.00    -0.387 OA
ATOM     49  H5  UNL     1      41.118   7.879  10.931  1.00  0.00     0.210 HD
ENDBRANCH  40  48
ENDBRANCH  34  35
ENDBRANCH   2  34
TORSDOF 16
ENDMDL
MODEL 5
REMARK VINA RESULT: -6.740372747      4.428      7.858
REMARK  16 active torsions:
REMARK  status: ('A' for Active; 'I' for Inactive)
REMARK    1  A    between atoms: O1_2  and  C2_3 
REMARK    2  A    between atoms: C3_4  and  O2_5 
REMARK    3  A    between atoms: O2_5  and  C4_6 
REMARK    4  A    between atoms: C7_10  and  O4_11 
REMARK    5  A    between atoms: C8_13  and  O5_14 
REMARK    6  A    between atoms: C13_23  and  O9_24 
REMARK    7  A    between atoms: O9_24  and  C14_25 
REMARK    8  A    between atoms: C15_26  and  O10_27 
REMARK    9  A    between atoms: C16_29  and  O11_30 
REMARK   10  A    between atoms: C17_32  and  O12_33 
REMARK   11  A    between atoms: C18_35  and  O13_36 
REMARK   12  A    between atoms: O13_36  and  C19_37 
REMARK   13  A    between atoms: C21_40  and  C22_41 
REMARK   14  A    between atoms: C22_41  and  O15_42 
REMARK   15  A    between atoms: C23_44  and  O16_45 
REMARK   16  A    between atoms: C24_47  and  O17_48 
ROOT
HETATM    1  C2  UNL     1      39.095   4.135  13.798  1.00  0.00     0.207 C 
HETATM    2  C3  UNL     1      39.620   2.846  14.309  1.00  0.00     0.294 C 
HETATM    3  O8  UNL     1      40.723   3.141  15.134  1.00  0.00    -0.356 OA
HETATM    4  C12 UNL     1      40.545   4.290  15.884  1.00  0.00     0.205 C 
HETATM    5  C13 UNL     1      40.669   5.540  14.997  1.00  0.00     0.177 C 
HETATM    6  C24 UNL     1      40.327   5.054  13.609  1.00  0.00     0.183 C 
ENDROOT
BRANCH   5   7
HETATM    7  O9  UNL     1      39.687   6.406  15.414  1.00  0.00    -0.370 OA
BRANCH   7   8
HETATM    8  C14 UNL     1      39.963   6.934  16.676  1.00  0.00     0.185 C 
HETATM    9  C15 UNL     1      40.355   8.360  16.496  1.00  0.00     0.181 C 
HETATM   10  C16 UNL     1      39.011   8.988  16.097  1.00  0.00     0.180 C 
HETATM   11  C17 UNL     1      38.053   8.298  17.040  1.00  0.00     0.181 C 
HETATM   12  C18 UNL     1      38.683   7.002  17.461  1.00  0.00     0.187 C 
BRANCH   9  13
HETATM   13  O10 UNL     1      41.311   8.598  15.536  1.00  0.00    -0.390 OA
ATOM     14  H10 UNL     1      42.201   8.690  15.856  1.00  0.00     0.210 HD
ENDBRANCH   9  13
BRANCH  10  15
HETATM   15  O11 UNL     1      38.717   8.666  14.775  1.00  0.00    -0.390 OA
ATOM     16  H11 UNL     1      38.556   9.461  14.280  1.00  0.00     0.210 HD
ENDBRANCH  10  15
BRANCH  11  17
HETATM   17  O12 UNL     1      36.815   8.107  16.415  1.00  0.00    -0.390 OA
ATOM     18  H12 UNL     1      36.935   7.999  15.478  1.00  0.00     0.210 HD
ENDBRANCH  11  17
BRANCH  12  19
HETATM   19  O13 UNL     1      38.824   6.857  18.810  1.00  0.00    -0.347 OA
BRANCH  19  20
HETATM   20  C19 UNL     1      37.749   6.465  19.520  1.00  0.00     0.298 C 
HETATM   21  O14 UNL     1      37.609   7.362  20.640  1.00  0.00    -0.329 OA
HETATM   22  C20 UNL     1      36.819   6.657  21.571  1.00  0.00     0.146 C 
HETATM   23  C21 UNL     1      36.968   5.359  21.394  1.00  0.00    -0.002 C 
HETATM   24  C23 UNL     1      37.921   5.168  20.275  1.00  0.00     0.206 C 
BRANCH  23  25
HETATM   25  C22 UNL     1      36.292   4.294  22.187  1.00  0.00     0.203 C 
BRANCH  25  26
HETATM   26  O15 UNL     1      36.303   4.647  23.545  1.00  0.00    -0.397 OA
ATOM     27  H15 UNL     1      36.541   3.888  24.066  1.00  0.00     0.209 HD
ENDBRANCH  25  26
ENDBRANCH  23  25
BRANCH  24  28
HETATM   28  O16 UNL     1      39.226   4.995  20.727  1.00  0.00    -0.386 OA
ATOM     29  H16 UNL     1      39.276   4.376  21.446  1.00  0.00     0.210 HD
ENDBRANCH  24  28
ENDBRANCH  19  20
ENDBRANCH  12  19
ENDBRANCH   7   8
ENDBRANCH   5   7
BRANCH   6  30
HETATM   30  O17 UNL     1      41.375   4.263  13.149  1.00  0.00    -0.390 OA
ATOM     31  H17 UNL     1      41.401   4.342  12.203  1.00  0.00     0.210 HD
ENDBRANCH   6  30
BRANCH   1  32
HETATM   32  O1  UNL     1      38.474   4.110  12.576  1.00  0.00    -0.383 OA
HETATM   33  C1  UNL     1      37.096   4.103  12.766  1.00  0.00     0.202 C 
ENDBRANCH   1  32
BRANCH   2  34
HETATM   34  O2  UNL     1      38.724   2.021  14.948  1.00  0.00    -0.323 OA
BRANCH  34  35
HETATM   35  C4  UNL     1      38.373   0.964  14.154  1.00  0.00     0.328 C 
HETATM   36  O3  UNL     1      39.310   0.723  13.139  1.00  0.00    -0.348 OA
HETATM   37  C5  UNL     1      38.804  -0.115  12.185  1.00  0.00     0.152 C 
HETATM   38  C6  UNL     1      39.844  -1.182  11.889  1.00  0.00     0.042 C 
HETATM   39  C7  UNL     1      37.476  -0.717  12.491  1.00  0.00     0.181 C 
HETATM   40  C8  UNL     1      37.357  -1.223  13.916  1.00  0.00     0.216 C 
HETATM   41  C9  UNL     1      38.191  -0.353  14.854  1.00  0.00     0.244 A 
HETATM   42  O6  UNL     1      39.425  -0.976  14.957  1.00  0.00    -0.347 OA
HETATM   43  O7  UNL     1      37.648  -0.242  16.094  1.00  0.00    -0.347 OA
HETATM   44  C10 UNL     1      39.697  -1.219  16.274  1.00  0.00     0.198 A 
HETATM   45  C11 UNL     1      38.477  -0.804  17.026  1.00  0.00     0.198 A 
BRANCH  39  46
HETATM   46  O4  UNL     1      37.332  -1.856  11.667  1.00  0.00    -0.390 OA
ATOM     47  H4  UNL     1      36.503  -2.262  11.890  1.00  0.00     0.210 HD
ENDBRANCH  39  46
BRANCH  40  48
HETATM   48  O5  UNL     1      36.016  -1.152  14.317  1.00  0.00    -0.387 OA
ATOM     49  H5  UNL     1      35.724  -2.016  14.583  1.00  0.00     0.210 HD
ENDBRANCH  40  48
ENDBRANCH  34  35
ENDBRANCH   2  34
TORSDOF 16
ENDMDL
