MODEL 1
REMARK VINA RESULT: -4.060010453      0.000      0.000
REMARK  2 active torsions:
REMARK  status: ('A' for Active; 'I' for Inactive)
REMARK    1  A    between atoms: C2_2  and  C4_4 
REMARK    2  A    between atoms: C8_9  and  O1_10 
ROOT
HETATM    1  C4  UNL     1      15.128  26.011  23.363  1.00  0.00     0.082 C 
HETATM    2  S1  UNL     1      15.667  27.719  23.609  1.00  0.00    -0.155 SA
HETATM    3  C5  UNL     1      16.902  27.899  24.885  1.00  0.00     0.046 C 
HETATM    4  C6  UNL     1      18.281  28.237  24.311  1.00  0.00     0.021 C 
HETATM    5  C7  UNL     1      17.059  26.722  25.784  1.00  0.00     0.053 C 
HETATM    6  C8  UNL     1      15.886  25.787  25.644  1.00  0.00     0.067 C 
HETATM    7  C9  UNL     1      15.917  24.654  26.622  1.00  0.00     0.016 C 
HETATM    8  C10 UNL     1      17.050  24.791  27.619  1.00  0.00     0.013 C 
HETATM    9  C11 UNL     1      16.007  23.405  25.806  1.00  0.00     0.008 C 
HETATM   10  C12 UNL     1      15.534  23.758  24.399  1.00  0.00     0.009 C 
HETATM   11  C13 UNL     1      15.991  25.166  24.264  1.00  0.00     0.038 C 
ENDROOT
BRANCH   1  12
HETATM   12  C2  UNL     1      15.184  25.591  21.951  1.00  0.00    -0.079 C 
HETATM   13  C1  UNL     1      14.063  25.320  21.303  1.00  0.00     0.015 C 
HETATM   14  C3  UNL     1      16.452  25.452  21.189  1.00  0.00     0.044 C 
ENDBRANCH   1  12
BRANCH   6  15
HETATM   15  O1  UNL     1      14.702  26.498  25.810  1.00  0.00    -0.389 OA
ATOM     16  H1  UNL     1      13.978  25.997  25.454  1.00  0.00     0.210 HD
ENDBRANCH   6  15
TORSDOF 2
ENDMDL
MODEL 2
REMARK VINA RESULT: -4.027993212      5.129      6.992
REMARK  2 active torsions:
REMARK  status: ('A' for Active; 'I' for Inactive)
REMARK    1  A    between atoms: C2_2  and  C4_4 
REMARK    2  A    between atoms: C8_9  and  O1_10 
ROOT
HETATM    1  C4  UNL     1      12.847  26.910  19.134  1.00  0.00     0.082 C 
HETATM    2  S1  UNL     1      13.311  28.646  19.333  1.00  0.00    -0.155 SA
HETATM    3  C5  UNL     1      12.242  29.545  20.444  1.00  0.00     0.046 C 
HETATM    4  C6  UNL     1      12.936  29.887  21.765  1.00  0.00     0.021 C 
HETATM    5  C7  UNL     1      10.954  28.870  20.767  1.00  0.00     0.053 C 
HETATM    6  C8  UNL     1      10.684  27.750  19.797  1.00  0.00     0.067 C 
HETATM    7  C9  UNL     1       9.338  27.121  19.985  1.00  0.00     0.016 C 
HETATM    8  C10 UNL     1       8.505  27.853  21.017  1.00  0.00     0.013 C 
HETATM    9  C11 UNL     1       9.594  25.695  20.348  1.00  0.00     0.008 C 
HETATM   10  C12 UNL     1      11.015  25.368  19.894  1.00  0.00     0.009 C 
HETATM   11  C13 UNL     1      11.707  26.669  20.089  1.00  0.00     0.038 C 
ENDROOT
BRANCH   1  12
HETATM   12  C2  UNL     1      13.979  25.988  19.342  1.00  0.00    -0.079 C 
HETATM   13  C1  UNL     1      14.577  25.439  18.298  1.00  0.00     0.015 C 
HETATM   14  C3  UNL     1      14.505  25.629  20.684  1.00  0.00     0.044 C 
ENDBRANCH   1  12
BRANCH   6  15
HETATM   15  O1  UNL     1      10.783  28.228  18.495  1.00  0.00    -0.389 OA
ATOM     16  H1  UNL     1       9.914  28.368  18.140  1.00  0.00     0.210 HD
ENDBRANCH   6  15
TORSDOF 2
ENDMDL
MODEL 3
REMARK VINA RESULT: -3.965735451      2.482      4.974
REMARK  2 active torsions:
REMARK  status: ('A' for Active; 'I' for Inactive)
REMARK    1  A    between atoms: C2_2  and  C4_4 
REMARK    2  A    between atoms: C8_9  and  O1_10 
ROOT
HETATM    1  C4  UNL     1      16.838  25.450  22.755  1.00  0.00     0.082 C 
HETATM    2  S1  UNL     1      18.283  26.527  22.602  1.00  0.00    -0.155 SA
HETATM    3  C5  UNL     1      18.105  27.780  21.344  1.00  0.00     0.046 C 
HETATM    4  C6  UNL     1      17.941  29.181  21.942  1.00  0.00     0.021 C 
HETATM    5  C7  UNL     1      16.987  27.561  20.385  1.00  0.00     0.053 C 
HETATM    6  C8  UNL     1      16.486  26.143  20.470  1.00  0.00     0.067 C 
HETATM    7  C9  UNL     1      15.455  25.820  19.434  1.00  0.00     0.016 C 
HETATM    8  C10 UNL     1      15.258  26.957  18.451  1.00  0.00     0.013 C 
HETATM    9  C11 UNL     1      14.209  25.476  20.183  1.00  0.00     0.008 C 
HETATM   10  C12 UNL     1      14.630  25.114  21.605  1.00  0.00     0.009 C 
HETATM   11  C13 UNL     1      15.800  26.006  21.816  1.00  0.00     0.038 C 
ENDROOT
BRANCH   1  12
HETATM   12  C2  UNL     1      16.357  25.333  24.144  1.00  0.00    -0.079 C 
HETATM   13  C1  UNL     1      16.064  26.426  24.829  1.00  0.00     0.015 C 
HETATM   14  C3  UNL     1      16.175  24.033  24.840  1.00  0.00     0.044 C 
ENDBRANCH   1  12
BRANCH   6  15
HETATM   15  O1  UNL     1      17.555  25.263  20.335  1.00  0.00    -0.389 OA
ATOM     16  H1  UNL     1      17.907  25.323  19.455  1.00  0.00     0.210 HD
ENDBRANCH   6  15
TORSDOF 2
ENDMDL
MODEL 4
REMARK VINA RESULT: -3.802128839      2.194      4.565
REMARK  2 active torsions:
REMARK  status: ('A' for Active; 'I' for Inactive)
REMARK    1  A    between atoms: C2_2  and  C4_4 
REMARK    2  A    between atoms: C8_9  and  O1_10 
ROOT
HETATM    1  C4  UNL     1      16.497  25.427  23.330  1.00  0.00     0.082 C 
HETATM    2  S1  UNL     1      17.508  26.817  23.894  1.00  0.00    -0.155 SA
HETATM    3  C5  UNL     1      17.348  28.272  22.874  1.00  0.00     0.046 C 
HETATM    4  C6  UNL     1      16.580  29.393  23.581  1.00  0.00     0.021 C 
HETATM    5  C7  UNL     1      16.709  28.049  21.548  1.00  0.00     0.053 C 
HETATM    6  C8  UNL     1      16.673  26.580  21.216  1.00  0.00     0.067 C 
HETATM    7  C9  UNL     1      16.167  26.300  19.836  1.00  0.00     0.016 C 
HETATM    8  C10 UNL     1      15.941  27.571  19.041  1.00  0.00     0.013 C 
HETATM    9  C11 UNL     1      14.923  25.491  20.006  1.00  0.00     0.008 C 
HETATM   10  C12 UNL     1      14.973  24.887  21.407  1.00  0.00     0.009 C 
HETATM   11  C13 UNL     1      15.682  25.945  22.173  1.00  0.00     0.038 C 
ENDROOT
BRANCH   1  12
HETATM   12  C2  UNL     1      15.671  24.848  24.405  1.00  0.00    -0.079 C 
HETATM   13  C1  UNL     1      14.859  25.628  25.099  1.00  0.00     0.015 C 
HETATM   14  C3  UNL     1      15.692  23.407  24.767  1.00  0.00     0.044 C 
ENDBRANCH   1  12
BRANCH   6  15
HETATM   15  O1  UNL     1      17.949  26.042  21.350  1.00  0.00    -0.389 OA
ATOM     16  H1  UNL     1      18.491  26.327  20.624  1.00  0.00     0.210 HD
ENDBRANCH   6  15
TORSDOF 2
ENDMDL
MODEL 5
REMARK VINA RESULT: -3.792746363      4.013      5.831
REMARK  2 active torsions:
REMARK  status: ('A' for Active; 'I' for Inactive)
REMARK    1  A    between atoms: C2_2  and  C4_4 
REMARK    2  A    between atoms: C8_9  and  O1_10 
ROOT
HETATM    1  C4  UNL     1      12.694  27.107  20.018  1.00  0.00     0.082 C 
HETATM    2  S1  UNL     1      13.110  28.002  18.502  1.00  0.00    -0.155 SA
HETATM    3  C5  UNL     1      14.681  27.523  17.803  1.00  0.00     0.046 C 
HETATM    4  C6  UNL     1      14.518  26.724  16.507  1.00  0.00     0.021 C 
HETATM    5  C7  UNL     1      15.567  26.744  18.711  1.00  0.00     0.053 C 
HETATM    6  C8  UNL     1      15.090  26.848  20.136  1.00  0.00     0.067 C 
HETATM    7  C9  UNL     1      16.018  26.199  21.116  1.00  0.00     0.016 C 
HETATM    8  C10 UNL     1      17.293  25.710  20.458  1.00  0.00     0.013 C 
HETATM    9  C11 UNL     1      15.237  25.101  21.761  1.00  0.00     0.008 C 
HETATM   10  C12 UNL     1      13.760  25.417  21.540  1.00  0.00     0.009 C 
HETATM   11  C13 UNL     1      13.782  26.084  20.212  1.00  0.00     0.038 C 
ENDROOT
BRANCH   1  12
HETATM   12  C2  UNL     1      11.344  26.513  19.978  1.00  0.00    -0.079 C 
HETATM   13  C1  UNL     1      10.282  27.298  20.035  1.00  0.00     0.015 C 
HETATM   14  C3  UNL     1      11.097  25.052  19.875  1.00  0.00     0.044 C 
ENDBRANCH   1  12
BRANCH   6  15
HETATM   15  O1  UNL     1      14.935  28.188  20.477  1.00  0.00    -0.389 OA
ATOM     16  H1  UNL     1      14.107  28.308  20.925  1.00  0.00     0.210 HD
ENDBRANCH   6  15
TORSDOF 2
ENDMDL
