MODEL 1
REMARK VINA RESULT: -9.269031510      0.000      0.000
REMARK  5 active torsions:
REMARK  status: ('A' for Active; 'I' for Inactive)
REMARK    1  A    between atoms: C2_3  and  C3_4 
REMARK       I    between atoms: C3_4  and  N2_6 
REMARK    2  A    between atoms: N2_6  and  C4_8 
REMARK    3  A    between atoms: N3_15  and  C11_16 
REMARK    4  A    between atoms: C11_16  and  C12_17 
REMARK       I    between atoms: C12_17  and  N4_19 
REMARK    5  A    between atoms: N4_19  and  C13_21 
ROOT
HETATM    1  C4  UNL     1       6.731   8.445  20.907  1.00  0.00     0.329 C 
HETATM    2  C5  UNL     1       6.684   9.459  19.764  1.00  0.00     0.039 C 
HETATM    3  C6  UNL     1       7.894  10.342  19.775  1.00  0.00     0.010 C 
HETATM    4  C7  UNL     1       7.753  11.250  20.994  1.00  0.00     0.036 C 
HETATM    5  C8  UNL     1       6.948  10.470  22.009  1.00  0.00     0.226 C 
HETATM    6  C9  UNL     1       5.491  10.555  21.562  1.00  0.00     0.036 C 
HETATM    7  C10 UNL     1       5.446  10.314  20.074  1.00  0.00     0.010 C 
HETATM    8  N3  UNL     1       7.425   9.090  22.011  1.00  0.00     0.125 N 
ENDROOT
BRANCH   1   9
HETATM    9  N2  UNL     1       7.404   7.234  20.494  1.00  0.00    -0.329 N 
HETATM   10  C3  UNL     1       6.727   6.011  20.467  1.00  0.00     0.253 C 
HETATM   11  O1  UNL     1       5.534   5.933  20.794  1.00  0.00    -0.271 OA
ATOM     12  H2  UNL     1       8.386   7.273  20.219  1.00  0.00     0.164 HD
BRANCH  10  13
HETATM   13  C2  UNL     1       7.469   4.805  20.036  1.00  0.00     0.320 C 
HETATM   14  N1  UNL     1       6.659   3.601  20.049  1.00  0.00     0.119 N 
HETATM   15  C1  UNL     1       7.050   2.684  21.106  1.00  0.00     0.313 C 
HETATM   16  C21 UNL     1       6.763   2.997  18.734  1.00  0.00     0.225 C 
HETATM   17  C20 UNL     1       5.914   3.867  17.797  1.00  0.00     0.055 C 
HETATM   18 BR1  UNL     1       6.433   1.163  18.627  1.00  0.00    -0.050 Br
HETATM   19  C22 UNL     1       8.142   3.449  18.301  1.00  0.00     0.012 A 
HETATM   20  C19 UNL     1       6.690   5.183  17.779  1.00  0.00     0.011 C 
HETATM   21  C18 UNL     1       7.931   4.916  18.598  1.00  0.00     0.040 C 
HETATM   22  C23 UNL     1       8.823   2.964  17.118  1.00  0.00     0.014 A 
HETATM   23  C24 UNL     1       9.351   2.706  18.569  1.00  0.00     0.014 A 
ENDBRANCH  10  13
ENDBRANCH   1   9
BRANCH   8  24
HETATM   24  C11 UNL     1       7.090   8.405  23.221  1.00  0.00     0.377 C 
BRANCH  24  25
HETATM   25  C12 UNL     1       8.015   8.564  24.338  1.00  0.00     0.246 C 
HETATM   26  O2  UNL     1       7.584   9.188  25.365  1.00  0.00    -0.272 OA
HETATM   27  N4  UNL     1       9.325   8.074  24.339  1.00  0.00    -0.355 N 
ATOM     28  H4  UNL     1       9.688   7.570  23.531  1.00  0.00     0.162 HD
BRANCH  27  29
HETATM   29  C13 UNL     1      10.161   8.294  25.510  1.00  0.00     0.084 C 
HETATM   30  C14 UNL     1      11.624   8.345  25.139  1.00  0.00     0.025 C 
HETATM   31  C15 UNL     1      12.381   7.696  26.283  1.00  0.00     0.002 C 
HETATM   32  C16 UNL     1      11.333   7.314  27.304  1.00  0.00     0.002 C 
HETATM   33  C17 UNL     1      10.089   7.135  26.464  1.00  0.00     0.025 C 
ENDBRANCH  27  29
ENDBRANCH  24  25
ENDBRANCH   8  24
TORSDOF 5
ENDMDL
MODEL 2
REMARK VINA RESULT: -9.144560697      1.068      1.259
REMARK  5 active torsions:
REMARK  status: ('A' for Active; 'I' for Inactive)
REMARK    1  A    between atoms: C2_3  and  C3_4 
REMARK       I    between atoms: C3_4  and  N2_6 
REMARK    2  A    between atoms: N2_6  and  C4_8 
REMARK    3  A    between atoms: N3_15  and  C11_16 
REMARK    4  A    between atoms: C11_16  and  C12_17 
REMARK       I    between atoms: C12_17  and  N4_19 
REMARK    5  A    between atoms: N4_19  and  C13_21 
ROOT
HETATM    1  C4  UNL     1       7.358   7.923  21.784  1.00  0.00     0.329 C 
HETATM    2  C5  UNL     1       6.788   8.862  20.721  1.00  0.00     0.039 C 
HETATM    3  C6  UNL     1       7.830   9.821  20.233  1.00  0.00     0.010 C 
HETATM    4  C7  UNL     1       8.096  10.789  21.382  1.00  0.00     0.036 C 
HETATM    5  C8  UNL     1       7.814  10.020  22.654  1.00  0.00     0.226 C 
HETATM    6  C9  UNL     1       6.296   9.983  22.808  1.00  0.00     0.036 C 
HETATM    7  C10 UNL     1       5.699   9.650  21.463  1.00  0.00     0.010 C 
HETATM    8  N3  UNL     1       8.368   8.677  22.510  1.00  0.00     0.125 N 
ENDROOT
BRANCH   1   9
HETATM    9  N2  UNL     1       7.918   6.736  21.178  1.00  0.00    -0.329 N 
HETATM   10  C3  UNL     1       7.143   5.585  21.008  1.00  0.00     0.253 C 
HETATM   11  O1  UNL     1       5.958   5.551  21.370  1.00  0.00    -0.271 OA
ATOM     12  H2  UNL     1       8.890   6.739  20.870  1.00  0.00     0.164 HD
BRANCH  10  13
HETATM   13  C2  UNL     1       7.771   4.400  20.381  1.00  0.00     0.320 C 
HETATM   14  N1  UNL     1       6.858   3.282  20.230  1.00  0.00     0.119 N 
HETATM   15  C1  UNL     1       7.177   2.183  21.125  1.00  0.00     0.313 C 
HETATM   16  C21 UNL     1       6.896   2.881  18.836  1.00  0.00     0.225 C 
HETATM   17  C20 UNL     1       6.118   3.954  18.062  1.00  0.00     0.055 C 
HETATM   18 BR1  UNL     1       6.405   1.120  18.459  1.00  0.00    -0.050 Br
HETATM   19  C22 UNL     1       8.305   3.274  18.445  1.00  0.00     0.012 A 
HETATM   20  C19 UNL     1       7.006   5.186  18.227  1.00  0.00     0.011 C 
HETATM   21  C18 UNL     1       8.228   4.691  18.966  1.00  0.00     0.040 C 
HETATM   22  C23 UNL     1       8.928   2.920  17.186  1.00  0.00     0.014 A 
HETATM   23  C24 UNL     1       9.447   2.397  18.568  1.00  0.00     0.014 A 
ENDBRANCH  10  13
ENDBRANCH   1   9
BRANCH   8  24
HETATM   24  C11 UNL     1       8.586   8.046  23.775  1.00  0.00     0.377 C 
BRANCH  24  25
HETATM   25  C12 UNL     1       9.827   8.378  24.465  1.00  0.00     0.246 C 
HETATM   26  O2  UNL     1      10.487   9.378  24.023  1.00  0.00    -0.272 OA
HETATM   27  N4  UNL     1      10.319   7.671  25.566  1.00  0.00    -0.355 N 
ATOM     28  H4  UNL     1       9.806   6.872  25.938  1.00  0.00     0.162 HD
BRANCH  27  29
HETATM   29  C13 UNL     1      11.572   8.092  26.175  1.00  0.00     0.084 C 
HETATM   30  C14 UNL     1      12.745   7.823  25.262  1.00  0.00     0.025 C 
HETATM   31  C15 UNL     1      13.904   7.424  26.157  1.00  0.00     0.002 C 
HETATM   32  C16 UNL     1      13.377   7.507  27.572  1.00  0.00     0.002 C 
HETATM   33  C17 UNL     1      11.893   7.278  27.396  1.00  0.00     0.025 C 
ENDBRANCH  27  29
ENDBRANCH  24  25
ENDBRANCH   8  24
TORSDOF 5
ENDMDL
MODEL 3
REMARK VINA RESULT: -8.987201859      0.713      1.008
REMARK  5 active torsions:
REMARK  status: ('A' for Active; 'I' for Inactive)
REMARK    1  A    between atoms: C2_3  and  C3_4 
REMARK       I    between atoms: C3_4  and  N2_6 
REMARK    2  A    between atoms: N2_6  and  C4_8 
REMARK    3  A    between atoms: N3_15  and  C11_16 
REMARK    4  A    between atoms: C11_16  and  C12_17 
REMARK       I    between atoms: C12_17  and  N4_19 
REMARK    5  A    between atoms: N4_19  and  C13_21 
ROOT
HETATM    1  C4  UNL     1       6.769   8.781  20.729  1.00  0.00     0.329 C 
HETATM    2  C5  UNL     1       6.639   9.707  19.520  1.00  0.00     0.039 C 
HETATM    3  C6  UNL     1       7.843  10.590  19.384  1.00  0.00     0.010 C 
HETATM    4  C7  UNL     1       7.779  11.586  20.538  1.00  0.00     0.036 C 
HETATM    5  C8  UNL     1       7.048  10.883  21.660  1.00  0.00     0.226 C 
HETATM    6  C9  UNL     1       5.564  10.933  21.307  1.00  0.00     0.036 C 
HETATM    7  C10 UNL     1       5.420  10.582  19.848  1.00  0.00     0.010 C 
HETATM    8  N3  UNL     1       7.532   9.508  21.733  1.00  0.00     0.125 N 
ENDROOT
BRANCH   1   9
HETATM    9  N2  UNL     1       7.421   7.544  20.363  1.00  0.00    -0.329 N 
HETATM   10  C3  UNL     1       6.740   6.325  20.446  1.00  0.00     0.253 C 
HETATM   11  O1  UNL     1       5.564   6.273  20.833  1.00  0.00    -0.271 OA
ATOM     12  H2  UNL     1       8.388   7.560  20.040  1.00  0.00     0.164 HD
BRANCH  10  13
HETATM   13  C2  UNL     1       7.459   5.090  20.059  1.00  0.00     0.320 C 
HETATM   14  N1  UNL     1       6.647   3.894  20.181  1.00  0.00     0.119 N 
HETATM   15  C1  UNL     1       7.081   3.041  21.274  1.00  0.00     0.313 C 
HETATM   16  C21 UNL     1       6.692   3.209  18.903  1.00  0.00     0.225 C 
HETATM   17  C20 UNL     1       5.806   4.025  17.952  1.00  0.00     0.055 C 
HETATM   18 BR1  UNL     1       6.353   1.374  18.923  1.00  0.00    -0.050 Br
HETATM   19  C22 UNL     1       8.052   3.626  18.383  1.00  0.00     0.012 A 
HETATM   20  C19 UNL     1       6.584   5.333  17.819  1.00  0.00     0.011 C 
HETATM   21  C18 UNL     1       7.859   5.110  18.597  1.00  0.00     0.040 C 
HETATM   22  C23 UNL     1       8.679   3.066  17.204  1.00  0.00     0.014 A 
HETATM   23  C24 UNL     1       9.270   2.894  18.644  1.00  0.00     0.014 A 
ENDBRANCH  10  13
ENDBRANCH   1   9
BRANCH   8  24
HETATM   24  C11 UNL     1       7.283   8.915  23.011  1.00  0.00     0.377 C 
BRANCH  24  25
HETATM   25  C12 UNL     1       8.383   8.163  23.606  1.00  0.00     0.246 C 
HETATM   26  O2  UNL     1       8.590   6.986  23.158  1.00  0.00    -0.272 OA
HETATM   27  N4  UNL     1       9.206   8.660  24.621  1.00  0.00    -0.355 N 
ATOM     28  H4  UNL     1       9.060   9.599  24.991  1.00  0.00     0.162 HD
BRANCH  27  29
HETATM   29  C13 UNL     1      10.273   7.819  25.142  1.00  0.00     0.084 C 
HETATM   30  C14 UNL     1       9.994   7.393  26.563  1.00  0.00     0.025 C 
HETATM   31  C15 UNL     1      11.335   7.359  27.273  1.00  0.00     0.002 C 
HETATM   32  C16 UNL     1      12.361   7.735  26.229  1.00  0.00     0.002 C 
HETATM   33  C17 UNL     1      11.566   8.576  25.257  1.00  0.00     0.025 C 
ENDBRANCH  27  29
ENDBRANCH  24  25
ENDBRANCH   8  24
TORSDOF 5
ENDMDL
MODEL 4
REMARK VINA RESULT: -8.749489693      1.202      1.537
REMARK  5 active torsions:
REMARK  status: ('A' for Active; 'I' for Inactive)
REMARK    1  A    between atoms: C2_3  and  C3_4 
REMARK       I    between atoms: C3_4  and  N2_6 
REMARK    2  A    between atoms: N2_6  and  C4_8 
REMARK    3  A    between atoms: N3_15  and  C11_16 
REMARK    4  A    between atoms: C11_16  and  C12_17 
REMARK       I    between atoms: C12_17  and  N4_19 
REMARK    5  A    between atoms: N4_19  and  C13_21 
ROOT
HETATM    1  C4  UNL     1       5.554   7.830  21.827  1.00  0.00     0.329 C 
HETATM    2  C5  UNL     1       4.885   8.696  20.759  1.00  0.00     0.039 C 
HETATM    3  C6  UNL     1       5.718   9.900  20.441  1.00  0.00     0.010 C 
HETATM    4  C7  UNL     1       5.642  10.811  21.663  1.00  0.00     0.036 C 
HETATM    5  C8  UNL     1       5.428   9.902  22.853  1.00  0.00     0.226 C 
HETATM    6  C9  UNL     1       3.952   9.512  22.838  1.00  0.00     0.036 C 
HETATM    7  C10 UNL     1       3.578   9.160  21.420  1.00  0.00     0.010 C 
HETATM    8  N3  UNL     1       6.289   8.733  22.699  1.00  0.00     0.125 N 
ENDROOT
BRANCH   1   9
HETATM    9  N2  UNL     1       6.428   6.850  21.222  1.00  0.00    -0.329 N 
HETATM   10  C3  UNL     1       6.065   5.500  21.172  1.00  0.00     0.253 C 
HETATM   11  O1  UNL     1       4.988   5.110  21.642  1.00  0.00    -0.271 OA
ATOM     12  H2  UNL     1       7.320   7.147  20.827  1.00  0.00     0.164 HD
BRANCH  10  13
HETATM   13  C2  UNL     1       7.002   4.543  20.541  1.00  0.00     0.320 C 
HETATM   14  N1  UNL     1       6.450   3.208  20.407  1.00  0.00     0.119 N 
HETATM   15  C1  UNL     1       7.084   2.256  21.302  1.00  0.00     0.313 C 
HETATM   16  C21 UNL     1       6.584   2.824  19.015  1.00  0.00     0.225 C 
HETATM   17  C20 UNL     1       5.520   3.620  18.248  1.00  0.00     0.055 C 
HETATM   18 BR1  UNL     1       6.619   0.993  18.651  1.00  0.00    -0.050 Br
HETATM   19  C22 UNL     1       7.815   3.604  18.602  1.00  0.00     0.012 A 
HETATM   20  C19 UNL     1       6.016   5.057  18.395  1.00  0.00     0.011 C 
HETATM   21  C18 UNL     1       7.337   4.943  19.118  1.00  0.00     0.040 C 
HETATM   22  C23 UNL     1       8.498   3.437  17.336  1.00  0.00     0.014 A 
HETATM   23  C24 UNL     1       9.162   3.097  18.712  1.00  0.00     0.014 A 
ENDBRANCH  10  13
ENDBRANCH   1   9
BRANCH   8  24
HETATM   24  C11 UNL     1       6.526   8.070  23.944  1.00  0.00     0.377 C 
BRANCH  24  25
HETATM   25  C12 UNL     1       7.906   7.693  24.229  1.00  0.00     0.246 C 
HETATM   26  O2  UNL     1       8.593   7.226  23.260  1.00  0.00    -0.272 OA
HETATM   27  N4  UNL     1       8.503   7.819  25.487  1.00  0.00    -0.355 N 
ATOM     28  H4  UNL     1       7.974   8.194  26.275  1.00  0.00     0.162 HD
BRANCH  27  29
HETATM   29  C13 UNL     1       9.889   7.409  25.657  1.00  0.00     0.084 C 
HETATM   30  C14 UNL     1      10.148   6.912  27.059  1.00  0.00     0.025 C 
HETATM   31  C15 UNL     1      11.554   7.353  27.420  1.00  0.00     0.002 C 
HETATM   32  C16 UNL     1      12.085   8.068  26.198  1.00  0.00     0.002 C 
HETATM   33  C17 UNL     1      10.829   8.574  25.527  1.00  0.00     0.025 C 
ENDBRANCH  27  29
ENDBRANCH  24  25
ENDBRANCH   8  24
TORSDOF 5
ENDMDL
MODEL 5
REMARK VINA RESULT: -8.072464037      1.306      2.001
REMARK  5 active torsions:
REMARK  status: ('A' for Active; 'I' for Inactive)
REMARK    1  A    between atoms: C2_3  and  C3_4 
REMARK       I    between atoms: C3_4  and  N2_6 
REMARK    2  A    between atoms: N2_6  and  C4_8 
REMARK    3  A    between atoms: N3_15  and  C11_16 
REMARK    4  A    between atoms: C11_16  and  C12_17 
REMARK       I    between atoms: C12_17  and  N4_19 
REMARK    5  A    between atoms: N4_19  and  C13_21 
ROOT
HETATM    1  C4  UNL     1       6.113   8.592  20.286  1.00  0.00     0.329 C 
HETATM    2  C5  UNL     1       6.174   9.629  19.164  1.00  0.00     0.039 C 
HETATM    3  C6  UNL     1       7.565  10.160  18.995  1.00  0.00     0.010 C 
HETATM    4  C7  UNL     1       7.848  11.023  20.222  1.00  0.00     0.036 C 
HETATM    5  C8  UNL     1       7.019  10.441  21.346  1.00  0.00     0.226 C 
HETATM    6  C9  UNL     1       5.588  10.925  21.122  1.00  0.00     0.036 C 
HETATM    7  C10 UNL     1       5.266  10.766  19.657  1.00  0.00     0.010 C 
HETATM    8  N3  UNL     1       7.106   8.985  21.274  1.00  0.00     0.125 N 
ENDROOT
BRANCH   1   9
HETATM    9  N2  UNL     1       6.373   7.264  19.775  1.00  0.00    -0.329 N 
HETATM   10  C3  UNL     1       5.341   6.326  19.662  1.00  0.00     0.253 C 
HETATM   11  O1  UNL     1       4.181   6.608  19.993  1.00  0.00    -0.271 OA
ATOM     12  H2  UNL     1       7.319   7.009  19.495  1.00  0.00     0.164 HD
BRANCH  10  13
HETATM   13  C2  UNL     1       5.668   4.983  19.133  1.00  0.00     0.320 C 
HETATM   14  N1  UNL     1       7.016   4.889  18.604  1.00  0.00     0.119 N 
HETATM   15  C1  UNL     1       7.034   4.763  17.157  1.00  0.00     0.313 C 
HETATM   16  C21 UNL     1       7.659   3.766  19.259  1.00  0.00     0.225 C 
HETATM   17  C20 UNL     1       7.975   4.230  20.688  1.00  0.00     0.055 C 
HETATM   18 BR1  UNL     1       9.082   2.970  18.351  1.00  0.00    -0.050 Br
HETATM   19  C22 UNL     1       6.475   2.868  19.553  1.00  0.00     0.012 A 
HETATM   20  C19 UNL     1       6.583   4.400  21.293  1.00  0.00     0.011 C 
HETATM   21  C18 UNL     1       5.630   3.928  20.220  1.00  0.00     0.040 C 
HETATM   22  C23 UNL     1       6.586   1.510  20.046  1.00  0.00     0.014 A 
HETATM   23  C24 UNL     1       5.987   1.859  18.641  1.00  0.00     0.014 A 
ENDBRANCH  10  13
ENDBRANCH   1   9
BRANCH   8  24
HETATM   24  C11 UNL     1       6.778   8.364  22.520  1.00  0.00     0.377 C 
BRANCH  24  25
HETATM   25  C12 UNL     1       7.657   8.659  23.647  1.00  0.00     0.246 C 
HETATM   26  O2  UNL     1       7.182   9.390  24.578  1.00  0.00    -0.272 OA
HETATM   27  N4  UNL     1       8.969   8.186  23.754  1.00  0.00    -0.355 N 
ATOM     28  H4  UNL     1       9.367   7.598  23.023  1.00  0.00     0.162 HD
BRANCH  27  29
HETATM   29  C13 UNL     1       9.757   8.546  24.924  1.00  0.00     0.084 C 
HETATM   30  C14 UNL     1      11.232   8.581  24.604  1.00  0.00     0.025 C 
HETATM   31  C15 UNL     1      11.952   8.072  25.840  1.00  0.00     0.002 C 
HETATM   32  C16 UNL     1      10.870   7.788  26.857  1.00  0.00     0.002 C 
HETATM   33  C17 UNL     1       9.662   7.498  25.997  1.00  0.00     0.025 C 
ENDBRANCH  27  29
ENDBRANCH  24  25
ENDBRANCH   8  24
TORSDOF 5
ENDMDL
