MODEL 1
REMARK VINA RESULT: -7.429649545      0.000      0.000
REMARK  7 active torsions:
REMARK  status: ('A' for Active; 'I' for Inactive)
REMARK    1  A    between atoms: N1_1  and  C1_5 
REMARK    2  A    between atoms: C1_5  and  C2_6 
REMARK    3  A    between atoms: C2_6  and  N2_7 
REMARK       I    between atoms: C3_9  and  N3_10 
REMARK       I    between atoms: C3_9  and  N5_15 
REMARK    4  A    between atoms: N3_10  and  N4_12 
REMARK    5  A    between atoms: N5_15  and  N6_17 
REMARK    6  A    between atoms: C7_25  and  C8_26 
REMARK    7  A    between atoms: C8_26  and  C9_27 
ROOT
HETATM    1  N6  UNL     1      19.621 -31.900  17.425  1.00  0.00    -0.274 N 
ATOM      2  H6  UNL     1      20.364 -31.210  17.322  1.00  0.00     0.189 HD
HETATM    3  C4  UNL     1      19.878 -33.084  16.994  1.00  0.00     0.110 C 
HETATM    4  C5  UNL     1      18.832 -34.124  17.122  1.00  0.00     0.200 C 
HETATM    5  N7  UNL     1      19.000 -34.982  18.266  1.00  0.00    -0.352 N 
ATOM      6  H7  UNL     1      18.380 -34.812  19.058  1.00  0.00     0.162 HD
HETATM    7  C6  UNL     1      19.932 -36.033  18.409  1.00  0.00     0.241 C 
HETATM    8  O1  UNL     1      20.543 -36.151  19.535  1.00  0.00    -0.271 OA
HETATM    9  C7  UNL     1      20.275 -37.022  17.377  1.00  0.00     0.184 C 
HETATM   10  N9  UNL     1      20.430 -36.490  16.049  1.00  0.00    -0.346 N 
ATOM     11  H9  UNL     1      19.763 -36.791  15.338  1.00  0.00     0.163 HD
HETATM   12  C10 UNL     1      21.434 -35.584  15.660  1.00  0.00     0.235 C 
HETATM   13  O3  UNL     1      21.938 -35.765  14.493  1.00  0.00    -0.272 OA
HETATM   14  C11 UNL     1      21.948 -34.462  16.464  1.00  0.00     0.223 C 
HETATM   15  N10 UNL     1      21.159 -33.283  16.431  1.00  0.00    -0.368 N 
ATOM     16  H10 UNL     1      21.564 -32.484  15.943  1.00  0.00     0.161 HD
ENDROOT
BRANCH   1  17
HETATM   17  N5  UNL     1      18.457 -31.458  18.008  1.00  0.00    -0.130 N 
HETATM   18  C3  UNL     1      18.373 -31.459  19.443  1.00  0.00     0.706 C 
HETATM   19  N2  UNL     1      19.269 -30.834  20.118  1.00  0.00    -0.222 N 
HETATM   20  N3  UNL     1      17.340 -32.129  20.150  1.00  0.00    -0.138 N 
ATOM     21  H2  UNL     1      20.014 -30.355  19.611  1.00  0.00     0.177 HD
ATOM     22  H3  UNL     1      17.557 -32.684  20.978  1.00  0.00     0.205 HD
ATOM     23  H5  UNL     1      17.674 -31.137  17.438  1.00  0.00     0.205 HD
BRANCH  19  24
HETATM   24  C2  UNL     1      19.274 -30.778  21.559  1.00  0.00     0.165 C 
BRANCH  24  25
HETATM   25  C1  UNL     1      19.872 -32.010  22.193  1.00  0.00     0.249 C 
BRANCH  25  26
HETATM   26  N1  UNL     1      19.118 -32.454  23.361  1.00  0.00    -0.078 N 
ATOM     27  H13 UNL     1      18.773 -31.660  23.900  1.00  0.00     0.274 HD
ATOM     28  H12 UNL     1      18.225 -32.866  23.089  1.00  0.00     0.274 HD
ATOM     29  H11 UNL     1      19.654 -33.093  23.948  1.00  0.00     0.274 HD
ENDBRANCH  25  26
ENDBRANCH  24  25
ENDBRANCH  19  24
BRANCH  20  30
HETATM   30  N4  UNL     1      16.018 -32.018  19.697  1.00  0.00    -0.331 N 
ATOM     31  H42 UNL     1      15.312 -31.609  20.308  1.00  0.00     0.177 HD
ATOM     32  H41 UNL     1      15.783 -32.350  18.761  1.00  0.00     0.177 HD
ENDBRANCH  20  30
ENDBRANCH   1  17
BRANCH   9  33
HETATM   33  C8  UNL     1      21.548 -37.769  17.740  1.00  0.00     0.134 C 
BRANCH  33  34
HETATM   34  C9  UNL     1      21.730 -38.943  16.867  1.00  0.00     0.233 C 
HETATM   35  N8  UNL     1      22.905 -39.720  16.947  1.00  0.00    -0.062 NA
HETATM   36  O2  UNL     1      20.842 -39.257  16.043  1.00  0.00    -0.277 OA
ENDBRANCH  33  34
ENDBRANCH   9  33
TORSDOF 7
ENDMDL
MODEL 2
REMARK VINA RESULT: -7.401862840      1.088      1.624
REMARK  7 active torsions:
REMARK  status: ('A' for Active; 'I' for Inactive)
REMARK    1  A    between atoms: N1_1  and  C1_5 
REMARK    2  A    between atoms: C1_5  and  C2_6 
REMARK    3  A    between atoms: C2_6  and  N2_7 
REMARK       I    between atoms: C3_9  and  N3_10 
REMARK       I    between atoms: C3_9  and  N5_15 
REMARK    4  A    between atoms: N3_10  and  N4_12 
REMARK    5  A    between atoms: N5_15  and  N6_17 
REMARK    6  A    between atoms: C7_25  and  C8_26 
REMARK    7  A    between atoms: C8_26  and  C9_27 
ROOT
HETATM    1  N6  UNL     1      19.854 -32.104  17.148  1.00  0.00    -0.274 N 
ATOM      2  H6  UNL     1      20.607 -31.422  17.064  1.00  0.00     0.189 HD
HETATM    3  C4  UNL     1      20.119 -33.299  16.753  1.00  0.00     0.110 C 
HETATM    4  C5  UNL     1      19.058 -34.327  16.857  1.00  0.00     0.200 C 
HETATM    5  N7  UNL     1      19.170 -35.162  18.025  1.00  0.00    -0.352 N 
ATOM      6  H7  UNL     1      18.519 -34.971  18.786  1.00  0.00     0.162 HD
HETATM    7  C6  UNL     1      20.086 -36.219  18.228  1.00  0.00     0.241 C 
HETATM    8  O1  UNL     1      20.647 -36.318  19.381  1.00  0.00    -0.271 OA
HETATM    9  C7  UNL     1      20.463 -37.231  17.231  1.00  0.00     0.184 C 
HETATM   10  N9  UNL     1      20.678 -36.728  15.901  1.00  0.00    -0.346 N 
ATOM     11  H9  UNL     1      20.040 -37.038  15.169  1.00  0.00     0.163 HD
HETATM   12  C10 UNL     1      21.706 -35.838  15.536  1.00  0.00     0.235 C 
HETATM   13  O3  UNL     1      22.258 -36.047  14.396  1.00  0.00    -0.272 OA
HETATM   14  C11 UNL     1      22.196 -34.704  16.339  1.00  0.00     0.223 C 
HETATM   15  N10 UNL     1      21.420 -33.520  16.249  1.00  0.00    -0.368 N 
ATOM     16  H10 UNL     1      21.853 -32.735  15.762  1.00  0.00     0.161 HD
ENDROOT
BRANCH   1  17
HETATM   17  N5  UNL     1      18.671 -31.640  17.672  1.00  0.00    -0.130 N 
HETATM   18  C3  UNL     1      18.677 -31.131  19.017  1.00  0.00     0.706 C 
HETATM   19  N2  UNL     1      19.496 -30.190  19.321  1.00  0.00    -0.222 N 
HETATM   20  N3  UNL     1      17.815 -31.630  20.030  1.00  0.00    -0.138 N 
ATOM     21  H2  UNL     1      20.117 -29.833  18.595  1.00  0.00     0.177 HD
ATOM     22  H3  UNL     1      18.173 -31.812  20.967  1.00  0.00     0.205 HD
ATOM     23  H5  UNL     1      17.812 -31.656  17.122  1.00  0.00     0.205 HD
BRANCH  19  24
HETATM   24  C2  UNL     1      19.579 -29.614  20.640  1.00  0.00     0.165 C 
BRANCH  24  25
HETATM   25  C1  UNL     1      19.677 -28.108  20.617  1.00  0.00     0.249 C 
BRANCH  25  26
HETATM   26  N1  UNL     1      20.764 -27.636  19.764  1.00  0.00    -0.078 N 
ATOM     27  H13 UNL     1      21.578 -28.246  19.834  1.00  0.00     0.274 HD
ATOM     28  H12 UNL     1      20.543 -27.772  18.777  1.00  0.00     0.274 HD
ATOM     29  H11 UNL     1      21.013 -26.665  19.955  1.00  0.00     0.274 HD
ENDBRANCH  25  26
ENDBRANCH  24  25
ENDBRANCH  19  24
BRANCH  20  30
HETATM   30  N4  UNL     1      16.468 -31.870  19.725  1.00  0.00    -0.331 N 
ATOM     31  H42 UNL     1      16.217 -32.690  19.174  1.00  0.00     0.177 HD
ATOM     32  H41 UNL     1      15.758 -31.218  20.059  1.00  0.00     0.177 HD
ENDBRANCH  20  30
ENDBRANCH   1  17
BRANCH   9  33
HETATM   33  C8  UNL     1      21.712 -37.981  17.664  1.00  0.00     0.134 C 
BRANCH  33  34
HETATM   34  C9  UNL     1      21.929 -39.165  16.813  1.00  0.00     0.233 C 
HETATM   35  N8  UNL     1      23.105 -39.934  16.942  1.00  0.00    -0.062 NA
HETATM   36  O2  UNL     1      21.069 -39.496  15.965  1.00  0.00    -0.277 OA
ENDBRANCH  33  34
ENDBRANCH   9  33
TORSDOF 7
ENDMDL
MODEL 3
REMARK VINA RESULT: -7.320924402      2.141      2.517
REMARK  7 active torsions:
REMARK  status: ('A' for Active; 'I' for Inactive)
REMARK    1  A    between atoms: N1_1  and  C1_5 
REMARK    2  A    between atoms: C1_5  and  C2_6 
REMARK    3  A    between atoms: C2_6  and  N2_7 
REMARK       I    between atoms: C3_9  and  N3_10 
REMARK       I    between atoms: C3_9  and  N5_15 
REMARK    4  A    between atoms: N3_10  and  N4_12 
REMARK    5  A    between atoms: N5_15  and  N6_17 
REMARK    6  A    between atoms: C7_25  and  C8_26 
REMARK    7  A    between atoms: C8_26  and  C9_27 
ROOT
HETATM    1  N6  UNL     1      20.910 -30.765  17.338  1.00  0.00    -0.274 N 
ATOM      2  H6  UNL     1      21.770 -30.238  17.493  1.00  0.00     0.189 HD
HETATM    3  C4  UNL     1      21.050 -31.996  16.994  1.00  0.00     0.110 C 
HETATM    4  C5  UNL     1      19.832 -32.805  16.758  1.00  0.00     0.200 C 
HETATM    5  N7  UNL     1      19.449 -33.621  17.881  1.00  0.00    -0.352 N 
ATOM      6  H7  UNL     1      18.656 -33.295  18.433  1.00  0.00     0.162 HD
HETATM    7  C6  UNL     1      20.057 -34.826  18.300  1.00  0.00     0.241 C 
HETATM    8  O1  UNL     1      20.238 -35.004  19.561  1.00  0.00    -0.271 OA
HETATM    9  C7  UNL     1      20.507 -35.912  17.418  1.00  0.00     0.184 C 
HETATM   10  N9  UNL     1      21.182 -35.486  16.221  1.00  0.00    -0.346 N 
ATOM     11  H9  UNL     1      20.732 -35.687  15.328  1.00  0.00     0.163 HD
HETATM   12  C10 UNL     1      22.418 -34.813  16.193  1.00  0.00     0.235 C 
HETATM   13  O3  UNL     1      23.222 -35.146  15.249  1.00  0.00    -0.272 OA
HETATM   14  C11 UNL     1      22.860 -33.774  17.139  1.00  0.00     0.223 C 
HETATM   15  N10 UNL     1      22.376 -32.467  16.872  1.00  0.00    -0.368 N 
ATOM     16  H10 UNL     1      23.067 -31.788  16.555  1.00  0.00     0.161 HD
ENDROOT
BRANCH   1  17
HETATM   17  N5  UNL     1      19.734 -30.076  17.520  1.00  0.00    -0.130 N 
HETATM   18  C3  UNL     1      19.468 -29.519  18.818  1.00  0.00     0.706 C 
HETATM   19  N2  UNL     1      20.331 -28.725  19.342  1.00  0.00    -0.222 N 
HETATM   20  N3  UNL     1      18.288 -29.813  19.552  1.00  0.00    -0.138 N 
ATOM     21  H2  UNL     1      21.180 -28.515  18.817  1.00  0.00     0.177 HD
ATOM     22  H3  UNL     1      18.338 -30.014  20.550  1.00  0.00     0.205 HD
ATOM     23  H5  UNL     1      19.069 -29.964  16.755  1.00  0.00     0.205 HD
BRANCH  19  24
HETATM   24  C2  UNL     1      20.157 -28.116  20.637  1.00  0.00     0.165 C 
BRANCH  24  25
HETATM   25  C1  UNL     1      20.559 -26.662  20.661  1.00  0.00     0.249 C 
BRANCH  25  26
HETATM   26  N1  UNL     1      20.851 -26.189  22.010  1.00  0.00    -0.078 N 
ATOM     27  H13 UNL     1      21.344 -26.899  22.550  1.00  0.00     0.274 HD
ATOM     28  H12 UNL     1      21.570 -25.464  21.999  1.00  0.00     0.274 HD
ATOM     29  H11 UNL     1      20.014 -25.869  22.499  1.00  0.00     0.274 HD
ENDBRANCH  25  26
ENDBRANCH  24  25
ENDBRANCH  19  24
BRANCH  20  30
HETATM   30  N4  UNL     1      17.054 -29.823  18.887  1.00  0.00    -0.331 N 
ATOM     31  H42 UNL     1      16.301 -30.414  19.237  1.00  0.00     0.177 HD
ATOM     32  H41 UNL     1      16.929 -29.237  18.061  1.00  0.00     0.177 HD
ENDBRANCH  20  30
ENDBRANCH   1  17
BRANCH   9  33
HETATM   33  C8  UNL     1      21.419 -36.874  18.161  1.00  0.00     0.134 C 
BRANCH  33  34
HETATM   34  C9  UNL     1      21.567 -38.135  17.413  1.00  0.00     0.233 C 
HETATM   35  N8  UNL     1      20.666 -38.466  16.379  1.00  0.00    -0.062 NA
HETATM   36  O2  UNL     1      22.495 -38.928  17.694  1.00  0.00    -0.277 OA
ENDBRANCH  33  34
ENDBRANCH   9  33
TORSDOF 7
ENDMDL
MODEL 4
REMARK VINA RESULT: -7.152853623      1.595      1.811
REMARK  7 active torsions:
REMARK  status: ('A' for Active; 'I' for Inactive)
REMARK    1  A    between atoms: N1_1  and  C1_5 
REMARK    2  A    between atoms: C1_5  and  C2_6 
REMARK    3  A    between atoms: C2_6  and  N2_7 
REMARK       I    between atoms: C3_9  and  N3_10 
REMARK       I    between atoms: C3_9  and  N5_15 
REMARK    4  A    between atoms: N3_10  and  N4_12 
REMARK    5  A    between atoms: N5_15  and  N6_17 
REMARK    6  A    between atoms: C7_25  and  C8_26 
REMARK    7  A    between atoms: C8_26  and  C9_27 
ROOT
HETATM    1  N6  UNL     1      21.263 -30.541  18.244  1.00  0.00    -0.274 N 
ATOM      2  H6  UNL     1      22.155 -30.115  18.495  1.00  0.00     0.189 HD
HETATM    3  C4  UNL     1      21.324 -31.658  17.611  1.00  0.00     0.110 C 
HETATM    4  C5  UNL     1      20.056 -32.320  17.226  1.00  0.00     0.200 C 
HETATM    5  N7  UNL     1      19.644 -33.361  18.131  1.00  0.00    -0.352 N 
ATOM      6  H7  UNL     1      18.880 -33.135  18.769  1.00  0.00     0.162 HD
HETATM    7  C6  UNL     1      20.185 -34.662  18.230  1.00  0.00     0.241 C 
HETATM    8  O1  UNL     1      20.376 -35.149  19.405  1.00  0.00    -0.271 OA
HETATM    9  C7  UNL     1      20.555 -35.526  17.100  1.00  0.00     0.184 C 
HETATM   10  N9  UNL     1      21.234 -34.861  16.019  1.00  0.00    -0.346 N 
ATOM     11  H9  UNL     1      20.758 -34.816  15.118  1.00  0.00     0.163 HD
HETATM   12  C10 UNL     1      22.507 -34.269  16.116  1.00  0.00     0.235 C 
HETATM   13  O3  UNL     1      23.274 -34.407  15.096  1.00  0.00    -0.272 OA
HETATM   14  C11 UNL     1      23.027 -33.514  17.270  1.00  0.00     0.223 C 
HETATM   15  N10 UNL     1      22.617 -32.158  17.339  1.00  0.00    -0.368 N 
ATOM     16  H10 UNL     1      23.342 -31.460  17.173  1.00  0.00     0.161 HD
ENDROOT
BRANCH   1  17
HETATM   17  N5  UNL     1      20.134 -29.854  18.622  1.00  0.00    -0.130 N 
HETATM   18  C3  UNL     1      19.289 -30.438  19.628  1.00  0.00     0.706 C 
HETATM   19  N2  UNL     1      19.803 -30.760  20.760  1.00  0.00    -0.222 N 
HETATM   20  N3  UNL     1      17.905 -30.680  19.421  1.00  0.00    -0.138 N 
ATOM     21  H2  UNL     1      20.797 -30.589  20.909  1.00  0.00     0.177 HD
ATOM     22  H3  UNL     1      17.485 -31.560  19.721  1.00  0.00     0.205 HD
ATOM     23  H5  UNL     1      19.902 -28.954  18.201  1.00  0.00     0.205 HD
BRANCH  19  24
HETATM   24  C2  UNL     1      19.040 -31.351  21.831  1.00  0.00     0.165 C 
BRANCH  24  25
HETATM   25  C1  UNL     1      19.279 -32.834  21.972  1.00  0.00     0.249 C 
BRANCH  25  26
HETATM   26  N1  UNL     1      18.237 -33.628  21.327  1.00  0.00    -0.078 N 
ATOM     27  H13 UNL     1      18.497 -33.867  20.370  1.00  0.00     0.274 HD
ATOM     28  H12 UNL     1      18.191 -34.567  21.723  1.00  0.00     0.274 HD
ATOM     29  H11 UNL     1      17.326 -33.170  21.359  1.00  0.00     0.274 HD
ENDBRANCH  25  26
ENDBRANCH  24  25
ENDBRANCH  19  24
BRANCH  20  30
HETATM   30  N4  UNL     1      17.124 -29.696  18.799  1.00  0.00    -0.331 N 
ATOM     31  H42 UNL     1      16.457 -29.161  19.355  1.00  0.00     0.177 HD
ATOM     32  H41 UNL     1      17.236 -29.529  17.799  1.00  0.00     0.177 HD
ENDBRANCH  20  30
ENDBRANCH   1  17
BRANCH   9  33
HETATM   33  C8  UNL     1      21.420 -36.686  17.562  1.00  0.00     0.134 C 
BRANCH  33  34
HETATM   34  C9  UNL     1      21.260 -37.845  16.665  1.00  0.00     0.233 C 
HETATM   35  N8  UNL     1      21.683 -37.775  15.321  1.00  0.00    -0.062 NA
HETATM   36  O2  UNL     1      20.743 -38.903  17.091  1.00  0.00    -0.277 OA
ENDBRANCH  33  34
ENDBRANCH   9  33
TORSDOF 7
ENDMDL
MODEL 5
REMARK VINA RESULT: -6.821405498      2.817      7.429
REMARK  7 active torsions:
REMARK  status: ('A' for Active; 'I' for Inactive)
REMARK    1  A    between atoms: N1_1  and  C1_5 
REMARK    2  A    between atoms: C1_5  and  C2_6 
REMARK    3  A    between atoms: C2_6  and  N2_7 
REMARK       I    between atoms: C3_9  and  N3_10 
REMARK       I    between atoms: C3_9  and  N5_15 
REMARK    4  A    between atoms: N3_10  and  N4_12 
REMARK    5  A    between atoms: N5_15  and  N6_17 
REMARK    6  A    between atoms: C7_25  and  C8_26 
REMARK    7  A    between atoms: C8_26  and  C9_27 
ROOT
HETATM    1  N6  UNL     1      20.218 -37.353  18.051  1.00  0.00    -0.274 N 
ATOM      2  H6  UNL     1      20.274 -37.661  19.021  1.00  0.00     0.189 HD
HETATM    3  C4  UNL     1      19.861 -36.133  17.860  1.00  0.00     0.110 C 
HETATM    4  C5  UNL     1      19.767 -35.635  16.468  1.00  0.00     0.200 C 
HETATM    5  N7  UNL     1      20.926 -34.901  16.032  1.00  0.00    -0.352 N 
ATOM      6  H7  UNL     1      21.564 -35.388  15.403  1.00  0.00     0.162 HD
HETATM    7  C6  UNL     1      21.274 -33.578  16.384  1.00  0.00     0.241 C 
HETATM    8  O1  UNL     1      22.507 -33.330  16.656  1.00  0.00    -0.271 OA
HETATM    9  C7  UNL     1      20.348 -32.440  16.467  1.00  0.00     0.184 C 
HETATM   10  N9  UNL     1      19.081 -32.728  17.086  1.00  0.00    -0.346 N 
ATOM     11  H9  UNL     1      18.245 -32.661  16.506  1.00  0.00     0.163 HD
HETATM   12  C10 UNL     1      18.912 -33.096  18.434  1.00  0.00     0.235 C 
HETATM   13  O3  UNL     1      17.883 -32.610  19.029  1.00  0.00    -0.272 OA
HETATM   14  C11 UNL     1      19.801 -33.979  19.209  1.00  0.00     0.223 C 
HETATM   15  N10 UNL     1      19.590 -35.369  19.017  1.00  0.00    -0.368 N 
ATOM     16  H10 UNL     1      19.196 -35.877  19.809  1.00  0.00     0.161 HD
ENDROOT
BRANCH   1  17
HETATM   17  N5  UNL     1      20.532 -38.291  17.096  1.00  0.00    -0.130 N 
HETATM   18  C3  UNL     1      21.921 -38.562  16.842  1.00  0.00     0.706 C 
HETATM   19  N2  UNL     1      22.675 -38.909  17.821  1.00  0.00    -0.222 N 
HETATM   20  N3  UNL     1      22.498 -38.458  15.549  1.00  0.00    -0.138 N 
ATOM     21  H2  UNL     1      22.262 -38.981  18.751  1.00  0.00     0.177 HD
ATOM     22  H3  UNL     1      23.406 -38.010  15.423  1.00  0.00     0.205 HD
ATOM     23  H5  UNL     1      19.800 -38.782  16.583  1.00  0.00     0.205 HD
BRANCH  19  24
HETATM   24  C2  UNL     1      24.079 -39.200  17.669  1.00  0.00     0.165 C 
BRANCH  24  25
HETATM   25  C1  UNL     1      24.415 -40.640  17.971  1.00  0.00     0.249 C 
BRANCH  25  26
HETATM   26  N1  UNL     1      23.790 -41.565  17.031  1.00  0.00    -0.078 N 
ATOM     27  H13 UNL     1      22.892 -41.207  16.705  1.00  0.00     0.274 HD
ATOM     28  H12 UNL     1      24.291 -41.582  16.143  1.00  0.00     0.274 HD
ATOM     29  H11 UNL     1      23.693 -42.504  17.417  1.00  0.00     0.274 HD
ENDBRANCH  25  26
ENDBRANCH  24  25
ENDBRANCH  19  24
BRANCH  20  30
HETATM   30  N4  UNL     1      21.806 -38.979  14.447  1.00  0.00    -0.331 N 
ATOM     31  H42 UNL     1      21.731 -38.425  13.594  1.00  0.00     0.177 HD
ATOM     32  H41 UNL     1      21.386 -39.907  14.515  1.00  0.00     0.177 HD
ENDBRANCH  20  30
ENDBRANCH   1  17
BRANCH   9  33
HETATM   33  C8  UNL     1      20.983 -31.274  17.206  1.00  0.00     0.134 C 
BRANCH  33  34
HETATM   34  C9  UNL     1      20.363 -30.000  16.799  1.00  0.00     0.233 C 
HETATM   35  N8  UNL     1      19.689 -29.197  17.743  1.00  0.00    -0.062 NA
HETATM   36  O2  UNL     1      20.427 -29.621  15.607  1.00  0.00    -0.277 OA
ENDBRANCH  33  34
ENDBRANCH   9  33
TORSDOF 7
ENDMDL
