MODEL 1
REMARK VINA RESULT: -5.886930564      0.000      0.000
REMARK  8 active torsions:
REMARK  status: ('A' for Active; 'I' for Inactive)
REMARK    1  A    between atoms: O1_2  and  C2_3 
REMARK       I    between atoms: C2_3  and  N1_5 
REMARK    2  A    between atoms: N1_5  and  C3_7 
REMARK    3  A    between atoms: C4_11  and  O3_12 
REMARK    4  A    between atoms: C4_11  and  C5_14 
REMARK    5  A    between atoms: C5_14  and  O5_16 
REMARK    6  A    between atoms: C7_18  and  O6_19 
REMARK    7  A    between atoms: C7_18  and  O7_21 
REMARK    8  A    between atoms: C10_25  and  N4_26 
ROOT
HETATM    1  C3  UNL     1     -17.961  33.946  -7.854  1.00  0.00     0.343 C 
HETATM    2  N2  UNL     1     -17.076  33.842  -8.953  1.00  0.00    -0.001 N 
ATOM      3  H21 UNL     1     -17.468  33.231  -9.670  1.00  0.00     0.284 HD
ATOM      4  H22 UNL     1     -16.251  33.300  -8.697  1.00  0.00     0.284 HD
HETATM    5  C4  UNL     1     -16.688  35.119  -9.530  1.00  0.00     0.392 C 
HETATM    6  C7  UNL     1     -17.819  36.028  -9.770  1.00  0.00     0.317 C 
HETATM    7  N3  UNL     1     -18.771  36.015  -8.710  1.00  0.00    -0.334 N 
ATOM      8  H3  UNL     1     -19.689  36.451  -8.793  1.00  0.00     0.160 HD
HETATM    9  C10 UNL     1     -18.352  35.357  -7.542  1.00  0.00     0.332 C 
ENDROOT
BRANCH   1  10
HETATM   10  N1  UNL     1     -17.504  33.223  -6.677  1.00  0.00    -0.305 N 
HETATM   11  C2  UNL     1     -16.604  33.779  -5.730  1.00  0.00     0.361 C 
HETATM   12  O2  UNL     1     -16.194  34.957  -5.939  1.00  0.00    -0.238 OA
ATOM     13  H1  UNL     1     -17.847  32.274  -6.525  1.00  0.00     0.167 HD
BRANCH  11  14
HETATM   14  O1  UNL     1     -16.170  33.094  -4.612  1.00  0.00    -0.309 OA
HETATM   15  C1  UNL     1     -14.931  33.459  -4.043  1.00  0.00     0.215 C 
ENDBRANCH  11  14
ENDBRANCH   1  10
BRANCH   9  16
HETATM   16  N4  UNL     1     -19.480  35.335  -6.561  1.00  0.00    -0.055 N 
ATOM     17  H43 UNL     1     -20.345  34.979  -6.968  1.00  0.00     0.276 HD
ATOM     18  H42 UNL     1     -19.359  34.622  -5.841  1.00  0.00     0.276 HD
ATOM     19  H41 UNL     1     -19.591  36.271  -6.169  1.00  0.00     0.276 HD
ENDBRANCH   9  16
BRANCH   5  20
HETATM   20  O3  UNL     1     -15.863  35.698  -8.515  1.00  0.00    -0.351 OA
ATOM     21  H3  UNL     1     -15.362  36.350  -8.989  1.00  0.00     0.213 HD
ENDBRANCH   5  20
BRANCH   5  22
HETATM   22  C5  UNL     1     -15.767  34.821 -10.631  1.00  0.00     0.331 C 
HETATM   23  O4  UNL     1     -15.443  35.546 -11.597  1.00  0.00    -0.259 OA
BRANCH  22  24
HETATM   24  O5  UNL     1     -15.125  33.553 -10.663  1.00  0.00    -0.322 OA
HETATM   25  C6  UNL     1     -14.411  33.157 -11.810  1.00  0.00     0.213 C 
ENDBRANCH  22  24
ENDBRANCH   5  22
BRANCH   6  26
HETATM   26  O6  UNL     1     -18.572  35.776 -10.926  1.00  0.00    -0.339 OA
HETATM   27  C8  UNL     1     -19.913  35.813 -10.819  1.00  0.00     0.207 C 
ENDBRANCH   6  26
BRANCH   6  28
HETATM   28  O7  UNL     1     -17.390  37.381  -9.807  1.00  0.00    -0.339 OA
HETATM   29  C9  UNL     1     -17.612  38.083 -10.922  1.00  0.00     0.207 C 
ENDBRANCH   6  28
TORSDOF 8
ENDMDL
MODEL 2
REMARK VINA RESULT: -5.156493379      3.003      5.973
REMARK  8 active torsions:
REMARK  status: ('A' for Active; 'I' for Inactive)
REMARK    1  A    between atoms: O1_2  and  C2_3 
REMARK       I    between atoms: C2_3  and  N1_5 
REMARK    2  A    between atoms: N1_5  and  C3_7 
REMARK    3  A    between atoms: C4_11  and  O3_12 
REMARK    4  A    between atoms: C4_11  and  C5_14 
REMARK    5  A    between atoms: C5_14  and  O5_16 
REMARK    6  A    between atoms: C7_18  and  O6_19 
REMARK    7  A    between atoms: C7_18  and  O7_21 
REMARK    8  A    between atoms: C10_25  and  N4_26 
ROOT
HETATM    1  C3  UNL     1     -16.458  38.599 -11.317  1.00  0.00     0.343 C 
HETATM    2  N2  UNL     1     -15.736  37.383 -11.366  1.00  0.00    -0.001 N 
ATOM      3  H21 UNL     1     -14.965  37.399 -10.699  1.00  0.00     0.284 HD
ATOM      4  H22 UNL     1     -15.210  37.315 -12.238  1.00  0.00     0.284 HD
HETATM    5  C4  UNL     1     -16.553  36.196 -11.171  1.00  0.00     0.392 C 
HETATM    6  C7  UNL     1     -17.469  36.290 -10.025  1.00  0.00     0.317 C 
HETATM    7  N3  UNL     1     -18.083  37.571  -9.913  1.00  0.00    -0.334 N 
ATOM      8  H3  UNL     1     -18.606  37.858  -9.085  1.00  0.00     0.160 HD
HETATM    9  C10 UNL     1     -17.914  38.411 -11.026  1.00  0.00     0.332 C 
ENDROOT
BRANCH   1  10
HETATM   10  N1  UNL     1     -16.229  39.452 -12.474  1.00  0.00    -0.305 N 
HETATM   11  C2  UNL     1     -15.800  40.802 -12.364  1.00  0.00     0.361 C 
HETATM   12  O2  UNL     1     -15.616  41.262 -11.201  1.00  0.00    -0.238 OA
ATOM     13  H1  UNL     1     -16.382  39.063 -13.404  1.00  0.00     0.167 HD
BRANCH  11  14
HETATM   14  O1  UNL     1     -15.582  41.613 -13.461  1.00  0.00    -0.309 OA
HETATM   15  C1  UNL     1     -16.067  42.938 -13.420  1.00  0.00     0.215 C 
ENDBRANCH  11  14
ENDBRANCH   1  10
BRANCH   9  16
HETATM   16  N4  UNL     1     -18.520  39.745 -10.729  1.00  0.00    -0.055 N 
ATOM     17  H43 UNL     1     -17.851  40.393 -10.311  1.00  0.00     0.276 HD
ATOM     18  H42 UNL     1     -18.724  40.279 -11.574  1.00  0.00     0.276 HD
ATOM     19  H41 UNL     1     -19.345  39.607 -10.145  1.00  0.00     0.276 HD
ENDBRANCH   9  16
BRANCH   5  20
HETATM   20  O3  UNL     1     -17.342  36.144 -12.363  1.00  0.00    -0.351 OA
ATOM     21  H3  UNL     1     -18.175  36.506 -12.087  1.00  0.00     0.213 HD
ENDBRANCH   5  20
BRANCH   5  22
HETATM   22  C5  UNL     1     -15.653  35.044 -11.271  1.00  0.00     0.331 C 
HETATM   23  O4  UNL     1     -14.777  34.808 -12.133  1.00  0.00    -0.259 OA
BRANCH  22  24
HETATM   24  O5  UNL     1     -15.738  34.021 -10.287  1.00  0.00    -0.322 OA
HETATM   25  C6  UNL     1     -14.934  32.871 -10.401  1.00  0.00     0.213 C 
ENDBRANCH  22  24
ENDBRANCH   5  22
BRANCH   6  26
HETATM   26  O6  UNL     1     -16.898  36.060  -8.764  1.00  0.00    -0.339 OA
HETATM   27  C8  UNL     1     -17.527  35.201  -7.940  1.00  0.00     0.207 C 
ENDBRANCH   6  26
BRANCH   6  28
HETATM   28  O7  UNL     1     -18.574  35.411 -10.178  1.00  0.00    -0.339 OA
HETATM   29  C9  UNL     1     -19.803  35.938 -10.190  1.00  0.00     0.207 C 
ENDBRANCH   6  28
TORSDOF 8
ENDMDL
MODEL 3
REMARK VINA RESULT: -4.771153666      1.372      1.778
REMARK  8 active torsions:
REMARK  status: ('A' for Active; 'I' for Inactive)
REMARK    1  A    between atoms: O1_2  and  C2_3 
REMARK       I    between atoms: C2_3  and  N1_5 
REMARK    2  A    between atoms: N1_5  and  C3_7 
REMARK    3  A    between atoms: C4_11  and  O3_12 
REMARK    4  A    between atoms: C4_11  and  C5_14 
REMARK    5  A    between atoms: C5_14  and  O5_16 
REMARK    6  A    between atoms: C7_18  and  O6_19 
REMARK    7  A    between atoms: C7_18  and  O7_21 
REMARK    8  A    between atoms: C10_25  and  N4_26 
ROOT
HETATM    1  C3  UNL     1     -17.370  34.433  -8.500  1.00  0.00     0.343 C 
HETATM    2  N2  UNL     1     -16.656  34.707  -9.691  1.00  0.00    -0.001 N 
ATOM      3  H21 UNL     1     -16.885  34.019 -10.410  1.00  0.00     0.284 HD
ATOM      4  H22 UNL     1     -15.664  34.504  -9.567  1.00  0.00     0.284 HD
HETATM    5  C4  UNL     1     -16.840  36.056 -10.200  1.00  0.00     0.392 C 
HETATM    6  C7  UNL     1     -18.246  36.484 -10.246  1.00  0.00     0.317 C 
HETATM    7  N3  UNL     1     -18.984  36.078  -9.096  1.00  0.00    -0.334 N 
ATOM      8  H3  UNL     1     -20.001  36.142  -9.047  1.00  0.00     0.160 HD
HETATM    9  C10 UNL     1     -18.207  35.583  -8.035  1.00  0.00     0.332 C 
ENDROOT
BRANCH   1  10
HETATM   10  N1  UNL     1     -16.533  33.891  -7.439  1.00  0.00    -0.305 N 
HETATM   11  C2  UNL     1     -15.782  34.709  -6.555  1.00  0.00     0.361 C 
HETATM   12  O2  UNL     1     -15.858  35.961  -6.713  1.00  0.00    -0.238 OA
ATOM     13  H1  UNL     1     -16.485  32.879  -7.326  1.00  0.00     0.167 HD
BRANCH  11  14
HETATM   14  O1  UNL     1     -14.987  34.197  -5.548  1.00  0.00    -0.309 OA
HETATM   15  C1  UNL     1     -15.619  33.656  -4.407  1.00  0.00     0.215 C 
ENDBRANCH  11  14
ENDBRANCH   1  10
BRANCH   9  16
HETATM   16  N4  UNL     1     -19.114  35.106  -6.946  1.00  0.00    -0.055 N 
ATOM     17  H43 UNL     1     -19.849  35.779  -6.728  1.00  0.00     0.276 HD
ATOM     18  H42 UNL     1     -19.711  34.335  -7.246  1.00  0.00     0.276 HD
ATOM     19  H41 UNL     1     -18.549  34.869  -6.131  1.00  0.00     0.276 HD
ENDBRANCH   9  16
BRANCH   5  20
HETATM   20  O3  UNL     1     -16.163  36.864  -9.234  1.00  0.00    -0.351 OA
ATOM     21  H3  UNL     1     -16.264  37.744  -9.578  1.00  0.00     0.213 HD
ENDBRANCH   5  20
BRANCH   5  22
HETATM   22  C5  UNL     1     -16.023  36.164 -11.413  1.00  0.00     0.331 C 
HETATM   23  O4  UNL     1     -15.194  35.348 -11.872  1.00  0.00    -0.259 OA
BRANCH  22  24
HETATM   24  O5  UNL     1     -16.141  37.331 -12.216  1.00  0.00    -0.322 OA
HETATM   25  C6  UNL     1     -15.013  38.140 -12.446  1.00  0.00     0.213 C 
ENDBRANCH  22  24
ENDBRANCH   5  22
BRANCH   6  26
HETATM   26  O6  UNL     1     -18.996  36.011 -11.332  1.00  0.00    -0.339 OA
HETATM   27  C8  UNL     1     -20.290  35.711 -11.116  1.00  0.00     0.207 C 
ENDBRANCH   6  26
BRANCH   6  28
HETATM   28  O7  UNL     1     -18.352  37.901 -10.218  1.00  0.00    -0.339 OA
HETATM   29  C9  UNL     1     -18.429  38.550 -11.384  1.00  0.00     0.207 C 
ENDBRANCH   6  28
TORSDOF 8
ENDMDL
MODEL 4
REMARK VINA RESULT: -4.717938199      1.909      5.198
REMARK  8 active torsions:
REMARK  status: ('A' for Active; 'I' for Inactive)
REMARK    1  A    between atoms: O1_2  and  C2_3 
REMARK       I    between atoms: C2_3  and  N1_5 
REMARK    2  A    between atoms: N1_5  and  C3_7 
REMARK    3  A    between atoms: C4_11  and  O3_12 
REMARK    4  A    between atoms: C4_11  and  C5_14 
REMARK    5  A    between atoms: C5_14  and  O5_16 
REMARK    6  A    between atoms: C7_18  and  O6_19 
REMARK    7  A    between atoms: C7_18  and  O7_21 
REMARK    8  A    between atoms: C10_25  and  N4_26 
ROOT
HETATM    1  C3  UNL     1     -17.272  36.290  -9.977  1.00  0.00     0.343 C 
HETATM    2  N2  UNL     1     -16.081  35.559 -10.199  1.00  0.00    -0.001 N 
ATOM      3  H21 UNL     1     -15.266  36.131  -9.979  1.00  0.00     0.284 HD
ATOM      4  H22 UNL     1     -15.930  35.418 -11.198  1.00  0.00     0.284 HD
HETATM    5  C4  UNL     1     -16.018  34.291  -9.491  1.00  0.00     0.392 C 
HETATM    6  C7  UNL     1     -16.394  34.386  -8.072  1.00  0.00     0.317 C 
HETATM    7  N3  UNL     1     -17.515  35.239  -7.854  1.00  0.00    -0.334 N 
ATOM      8  H3  UNL     1     -17.794  35.549  -6.923  1.00  0.00     0.160 HD
HETATM    9  C10 UNL     1     -18.206  35.621  -9.016  1.00  0.00     0.332 C 
ENDROOT
BRANCH   1  10
HETATM   10  N1  UNL     1     -17.938  36.694 -11.207  1.00  0.00    -0.305 N 
HETATM   11  C2  UNL     1     -17.387  37.646 -12.105  1.00  0.00     0.361 C 
HETATM   12  O2  UNL     1     -16.268  38.152 -11.803  1.00  0.00    -0.238 OA
ATOM     13  H1  UNL     1     -18.839  36.275 -11.433  1.00  0.00     0.167 HD
BRANCH  11  14
HETATM   14  O1  UNL     1     -18.017  38.031 -13.272  1.00  0.00    -0.309 OA
HETATM   15  C1  UNL     1     -17.501  39.141 -13.976  1.00  0.00     0.215 C 
ENDBRANCH  11  14
ENDBRANCH   1  10
BRANCH   9  16
HETATM   16  N4  UNL     1     -19.286  36.587  -8.647  1.00  0.00    -0.055 N 
ATOM     17  H43 UNL     1     -19.288  37.416  -9.241  1.00  0.00     0.276 HD
ATOM     18  H42 UNL     1     -20.216  36.241  -8.883  1.00  0.00     0.276 HD
ATOM     19  H41 UNL     1     -19.194  36.818  -7.657  1.00  0.00     0.276 HD
ENDBRANCH   9  16
BRANCH   5  20
HETATM   20  O3  UNL     1     -17.005  33.497 -10.156  1.00  0.00    -0.351 OA
ATOM     21  H3  UNL     1     -16.560  33.216 -10.946  1.00  0.00     0.213 HD
ENDBRANCH   5  20
BRANCH   5  22
HETATM   22  C5  UNL     1     -14.739  33.671  -9.849  1.00  0.00     0.331 C 
HETATM   23  O4  UNL     1     -13.974  32.988  -9.134  1.00  0.00    -0.259 OA
BRANCH  22  24
HETATM   24  O5  UNL     1     -14.247  33.833 -11.173  1.00  0.00    -0.322 OA
HETATM   25  C6  UNL     1     -14.290  32.752 -12.074  1.00  0.00     0.213 C 
ENDBRANCH  22  24
ENDBRANCH   5  22
BRANCH   6  26
HETATM   26  O6  UNL     1     -15.403  34.876  -7.208  1.00  0.00    -0.339 OA
HETATM   27  C8  UNL     1     -15.804  35.446  -6.056  1.00  0.00     0.207 C 
ENDBRANCH   6  26
BRANCH   6  28
HETATM   28  O7  UNL     1     -16.836  33.132  -7.573  1.00  0.00    -0.339 OA
HETATM   29  C9  UNL     1     -17.909  33.113  -6.777  1.00  0.00     0.207 C 
ENDBRANCH   6  28
TORSDOF 8
ENDMDL
MODEL 5
REMARK VINA RESULT: -4.711090437      1.701      2.300
REMARK  8 active torsions:
REMARK  status: ('A' for Active; 'I' for Inactive)
REMARK    1  A    between atoms: O1_2  and  C2_3 
REMARK       I    between atoms: C2_3  and  N1_5 
REMARK    2  A    between atoms: N1_5  and  C3_7 
REMARK    3  A    between atoms: C4_11  and  O3_12 
REMARK    4  A    between atoms: C4_11  and  C5_14 
REMARK    5  A    between atoms: C5_14  and  O5_16 
REMARK    6  A    between atoms: C7_18  and  O6_19 
REMARK    7  A    between atoms: C7_18  and  O7_21 
REMARK    8  A    between atoms: C10_25  and  N4_26 
ROOT
HETATM    1  C3  UNL     1     -18.696  35.470  -9.669  1.00  0.00     0.343 C 
HETATM    2  N2  UNL     1     -17.490  35.111 -10.315  1.00  0.00    -0.001 N 
ATOM      3  H21 UNL     1     -17.680  34.514 -11.120  1.00  0.00     0.284 HD
ATOM      4  H22 UNL     1     -16.956  34.459  -9.739  1.00  0.00     0.284 HD
HETATM    5  C4  UNL     1     -16.662  36.241 -10.704  1.00  0.00     0.392 C 
HETATM    6  C7  UNL     1     -17.404  37.307 -11.394  1.00  0.00     0.317 C 
HETATM    7  N3  UNL     1     -18.679  37.559 -10.809  1.00  0.00    -0.334 N 
ATOM      8  H3  UNL     1     -19.384  38.140 -11.263  1.00  0.00     0.160 HD
HETATM    9  C10 UNL     1     -18.892  36.950  -9.561  1.00  0.00     0.332 C 
ENDROOT
BRANCH   1  10
HETATM   10  N1  UNL     1     -18.892  34.790  -8.396  1.00  0.00    -0.305 N 
HETATM   11  C2  UNL     1     -17.815  34.315  -7.601  1.00  0.00     0.361 C 
HETATM   12  O2  UNL     1     -16.643  34.502  -8.037  1.00  0.00    -0.238 OA
ATOM     13  H1  UNL     1     -19.845  34.650  -8.061  1.00  0.00     0.167 HD
BRANCH  11  14
HETATM   14  O1  UNL     1     -17.999  33.670  -6.394  1.00  0.00    -0.309 OA
HETATM   15  C1  UNL     1     -17.489  34.277  -5.227  1.00  0.00     0.215 C 
ENDBRANCH  11  14
ENDBRANCH   1  10
BRANCH   9  16
HETATM   16  N4  UNL     1     -20.295  37.217  -9.120  1.00  0.00    -0.055 N 
ATOM     17  H43 UNL     1     -20.791  37.842  -9.754  1.00  0.00     0.276 HD
ATOM     18  H42 UNL     1     -20.899  36.401  -9.224  1.00  0.00     0.276 HD
ATOM     19  H41 UNL     1     -20.275  37.569  -8.163  1.00  0.00     0.276 HD
ENDBRANCH   9  16
BRANCH   5  20
HETATM   20  O3  UNL     1     -16.207  36.759  -9.452  1.00  0.00    -0.351 OA
ATOM     21  H3  UNL     1     -15.384  36.306  -9.316  1.00  0.00     0.213 HD
ENDBRANCH   5  20
BRANCH   5  22
HETATM   22  C5  UNL     1     -15.461  35.686 -11.335  1.00  0.00     0.331 C 
HETATM   23  O4  UNL     1     -14.770  36.168 -12.259  1.00  0.00    -0.259 OA
BRANCH  22  24
HETATM   24  O5  UNL     1     -14.966  34.433 -10.881  1.00  0.00    -0.322 OA
HETATM   25  C6  UNL     1     -14.557  33.462 -11.814  1.00  0.00     0.213 C 
ENDBRANCH  22  24
ENDBRANCH   5  22
BRANCH   6  26
HETATM   26  O6  UNL     1     -17.676  37.085 -12.752  1.00  0.00    -0.339 OA
HETATM   27  C8  UNL     1     -17.481  38.108 -13.605  1.00  0.00     0.207 C 
ENDBRANCH   6  26
BRANCH   6  28
HETATM   28  O7  UNL     1     -16.737  38.556 -11.274  1.00  0.00    -0.339 OA
HETATM   29  C9  UNL     1     -17.450  39.616 -10.881  1.00  0.00     0.207 C 
ENDBRANCH   6  28
TORSDOF 8
ENDMDL
