MODEL 1
REMARK VINA RESULT: -8.626284953      0.000      0.000
REMARK  5 active torsions:
REMARK  status: ('A' for Active; 'I' for Inactive)
REMARK    1  A    between atoms: O1_2  and  C2_3 
REMARK    2  A    between atoms: C7_8  and  O2_9 
REMARK    3  A    between atoms: O2_9  and  C8_10 
REMARK    4  A    between atoms: C8_10  and  C9_11 
REMARK    5  A    between atoms: C9_11  and  O3_13 
ROOT
HETATM    1  C2  UNL     1      -7.857  -7.487   0.256  1.00  0.00     0.102 A 
HETATM    2  C3  UNL     1      -7.494  -7.915   1.484  1.00  0.00     0.040 A 
HETATM    3  C4  UNL     1      -8.245  -7.557   2.551  1.00  0.00     0.010 A 
HETATM    4  C5  UNL     1      -9.372  -6.778   2.490  1.00  0.00    -0.049 A 
HETATM    5  C6  UNL     1      -9.738  -6.341   1.207  1.00  0.00    -0.013 A 
HETATM    6  C7  UNL     1      -9.006  -6.678   0.095  1.00  0.00     0.109 A 
HETATM    7  C11 UNL     1     -10.968  -5.557   1.071  1.00  0.00     0.083 C 
HETATM    8  C12 UNL     1     -12.188  -6.354   0.698  1.00  0.00     0.100 C 
HETATM    9  C13 UNL     1     -12.330  -6.673  -0.746  1.00  0.00     0.041 C 
HETATM   10  C14 UNL     1     -13.840  -6.909  -0.879  1.00  0.00     0.003 C 
HETATM   11  C15 UNL     1     -14.487  -6.236   0.285  1.00  0.00     0.003 C 
HETATM   12  C16 UNL     1     -13.367  -5.376   0.876  1.00  0.00     0.041 C 
HETATM   13  O4  UNL     1     -12.469  -7.421   1.492  1.00  0.00    -0.229 OA
HETATM   14  O5  UNL     1     -11.448  -8.141   1.889  1.00  0.00    -0.229 OA
HETATM   15  C17 UNL     1     -11.693  -8.392   3.266  1.00  0.00     0.097 C 
HETATM   16  C18 UNL     1     -13.199  -8.592   3.338  1.00  0.00     0.048 C 
HETATM   17  C19 UNL     1     -13.608  -9.162   4.680  1.00  0.00     0.081 C 
HETATM   18  C20 UNL     1     -13.026 -10.538   4.672  1.00  0.00     0.127 C 
HETATM   19  O6  UNL     1     -13.689 -11.537   4.845  1.00  0.00    -0.298 OA
HETATM   20  C21 UNL     1     -11.588 -10.648   4.443  1.00  0.00     0.081 C 
HETATM   21  C22 UNL     1     -10.901  -9.534   3.772  1.00  0.00     0.048 C 
HETATM   22  C23 UNL     1     -11.403  -7.084   3.953  1.00  0.00     0.046 C 
HETATM   23  C24 UNL     1     -10.098  -6.458   3.716  1.00  0.00     0.042 C 
ENDROOT
BRANCH   6  24
HETATM   24  O2  UNL     1      -9.253  -6.321  -1.214  1.00  0.00    -0.345 OA
BRANCH  24  25
HETATM   25  C8  UNL     1      -9.290  -7.046  -2.366  1.00  0.00     0.207 C 
BRANCH  25  26
HETATM   26  C9  UNL     1      -8.359  -6.878  -3.483  1.00  0.00     0.138 C 
HETATM   27  C10 UNL     1      -8.145  -8.273  -4.105  1.00  0.00     0.041 C 
BRANCH  26  28
HETATM   28  O3  UNL     1      -8.788  -6.098  -4.549  1.00  0.00    -0.394 OA
ATOM     29  H3  UNL     1      -8.297  -5.305  -4.729  1.00  0.00     0.210 HD
ENDBRANCH  26  28
ENDBRANCH  25  26
ENDBRANCH  24  25
ENDBRANCH   6  24
BRANCH   1  30
HETATM   30  O1  UNL     1      -7.099  -7.841  -0.879  1.00  0.00    -0.353 OA
HETATM   31  C1  UNL     1      -5.885  -8.516  -0.791  1.00  0.00     0.210 C 
ENDBRANCH   1  30
TORSDOF 5
ENDMDL
MODEL 2
REMARK VINA RESULT: -8.293331176      2.436      4.845
REMARK  5 active torsions:
REMARK  status: ('A' for Active; 'I' for Inactive)
REMARK    1  A    between atoms: O1_2  and  C2_3 
REMARK    2  A    between atoms: C7_8  and  O2_9 
REMARK    3  A    between atoms: O2_9  and  C8_10 
REMARK    4  A    between atoms: C8_10  and  C9_11 
REMARK    5  A    between atoms: C9_11  and  O3_13 
ROOT
HETATM    1  C2  UNL     1     -13.099  -5.762   0.412  1.00  0.00     0.102 A 
HETATM    2  C3  UNL     1     -14.173  -6.341   0.988  1.00  0.00     0.040 A 
HETATM    3  C4  UNL     1     -13.980  -7.329   1.891  1.00  0.00     0.010 A 
HETATM    4  C5  UNL     1     -12.755  -7.805   2.282  1.00  0.00    -0.049 A 
HETATM    5  C6  UNL     1     -11.646  -7.193   1.676  1.00  0.00    -0.013 A 
HETATM    6  C7  UNL     1     -11.792  -6.188   0.753  1.00  0.00     0.109 A 
HETATM    7  C11 UNL     1     -10.308  -7.617   2.099  1.00  0.00     0.083 C 
HETATM    8  C12 UNL     1      -9.680  -6.759   3.163  1.00  0.00     0.100 C 
HETATM    9  C13 UNL     1      -9.041  -5.507   2.682  1.00  0.00     0.041 C 
HETATM   10  C14 UNL     1      -8.036  -5.206   3.802  1.00  0.00     0.003 C 
HETATM   11  C15 UNL     1      -7.801  -6.488   4.528  1.00  0.00     0.003 C 
HETATM   12  C16 UNL     1      -8.432  -7.543   3.616  1.00  0.00     0.041 C 
HETATM   13  O4  UNL     1     -10.422  -6.563   4.285  1.00  0.00    -0.229 OA
HETATM   14  O5  UNL     1     -11.705  -6.363   4.113  1.00  0.00    -0.229 OA
HETATM   15  C17 UNL     1     -12.334  -7.156   5.109  1.00  0.00     0.097 C 
HETATM   16  C18 UNL     1     -11.413  -7.026   6.313  1.00  0.00     0.048 C 
HETATM   17  C19 UNL     1     -12.075  -7.566   7.565  1.00  0.00     0.081 C 
HETATM   18  C20 UNL     1     -13.192  -6.605   7.816  1.00  0.00     0.127 C 
HETATM   19  O6  UNL     1     -13.326  -6.006   8.860  1.00  0.00    -0.298 OA
HETATM   20  C21 UNL     1     -14.149  -6.403   6.732  1.00  0.00     0.081 C 
HETATM   21  C22 UNL     1     -13.729  -6.731   5.360  1.00  0.00     0.048 C 
HETATM   22  C23 UNL     1     -12.197  -8.572   4.618  1.00  0.00     0.046 C 
HETATM   23  C24 UNL     1     -12.676  -8.881   3.267  1.00  0.00     0.042 C 
ENDROOT
BRANCH   6  24
HETATM   24  O2  UNL     1     -10.796  -5.504   0.088  1.00  0.00    -0.345 OA
BRANCH  24  25
HETATM   25  C8  UNL     1     -10.089  -5.791  -1.039  1.00  0.00     0.207 C 
BRANCH  25  26
HETATM   26  C9  UNL     1      -9.044  -6.813  -1.128  1.00  0.00     0.138 C 
HETATM   27  C10 UNL     1      -8.679  -6.956  -2.619  1.00  0.00     0.041 C 
BRANCH  26  28
HETATM   28  O3  UNL     1      -7.832  -6.530  -0.511  1.00  0.00    -0.394 OA
ATOM     29  H3  UNL     1      -7.555  -5.622  -0.501  1.00  0.00     0.210 HD
ENDBRANCH  26  28
ENDBRANCH  25  26
ENDBRANCH  24  25
ENDBRANCH   6  24
BRANCH   1  30
HETATM   30  O1  UNL     1     -13.261  -4.728  -0.532  1.00  0.00    -0.353 OA
HETATM   31  C1  UNL     1     -14.506  -4.198  -0.859  1.00  0.00     0.210 C 
ENDBRANCH   1  30
TORSDOF 5
ENDMDL
MODEL 3
REMARK VINA RESULT: -8.217419312      2.130      3.727
REMARK  5 active torsions:
REMARK  status: ('A' for Active; 'I' for Inactive)
REMARK    1  A    between atoms: O1_2  and  C2_3 
REMARK    2  A    between atoms: C7_8  and  O2_9 
REMARK    3  A    between atoms: O2_9  and  C8_10 
REMARK    4  A    between atoms: C8_10  and  C9_11 
REMARK    5  A    between atoms: C9_11  and  O3_13 
ROOT
HETATM    1  C2  UNL     1      -9.811  -6.407  -0.479  1.00  0.00     0.102 A 
HETATM    2  C3  UNL     1      -8.527  -6.629  -0.128  1.00  0.00     0.040 A 
HETATM    3  C4  UNL     1      -8.192  -6.601   1.182  1.00  0.00     0.010 A 
HETATM    4  C5  UNL     1      -9.068  -6.361   2.211  1.00  0.00    -0.049 A 
HETATM    5  C6  UNL     1     -10.400  -6.132   1.830  1.00  0.00    -0.013 A 
HETATM    6  C7  UNL     1     -10.786  -6.149   0.513  1.00  0.00     0.109 A 
HETATM    7  C11 UNL     1     -11.394  -5.931   2.888  1.00  0.00     0.083 C 
HETATM    8  C12 UNL     1     -12.152  -7.167   3.287  1.00  0.00     0.100 C 
HETATM    9  C13 UNL     1     -13.289  -7.535   2.403  1.00  0.00     0.041 C 
HETATM   10  C14 UNL     1     -14.166  -8.378   3.338  1.00  0.00     0.003 C 
HETATM   11  C15 UNL     1     -13.779  -8.019   4.734  1.00  0.00     0.003 C 
HETATM   12  C16 UNL     1     -12.920  -6.765   4.562  1.00  0.00     0.041 C 
HETATM   13  O4  UNL     1     -11.398  -8.243   3.633  1.00  0.00    -0.229 OA
HETATM   14  O5  UNL     1     -10.331  -8.470   2.907  1.00  0.00    -0.229 OA
HETATM   15  C17 UNL     1      -9.311  -8.781   3.845  1.00  0.00     0.097 C 
HETATM   16  C18 UNL     1     -10.033  -9.587   4.915  1.00  0.00     0.048 C 
HETATM   17  C19 UNL     1      -9.047 -10.258   5.848  1.00  0.00     0.081 C 
HETATM   18  C20 UNL     1      -8.370 -11.268   4.981  1.00  0.00     0.127 C 
HETATM   19  O6  UNL     1      -8.336 -12.450   5.245  1.00  0.00    -0.298 OA
HETATM   20  C21 UNL     1      -7.727 -10.775   3.766  1.00  0.00     0.081 C 
HETATM   21  C22 UNL     1      -8.172  -9.485   3.216  1.00  0.00     0.048 C 
HETATM   22  C23 UNL     1      -8.952  -7.462   4.475  1.00  0.00     0.046 C 
HETATM   23  C24 UNL     1      -8.583  -6.354   3.588  1.00  0.00     0.042 C 
ENDROOT
BRANCH   6  24
HETATM   24  O2  UNL     1     -12.053  -5.945   0.005  1.00  0.00    -0.345 OA
BRANCH  24  25
HETATM   25  C8  UNL     1     -12.751  -4.810  -0.276  1.00  0.00     0.207 C 
BRANCH  25  26
HETATM   26  C9  UNL     1     -12.550  -3.986  -1.469  1.00  0.00     0.138 C 
HETATM   27  C10 UNL     1     -13.500  -2.776  -1.345  1.00  0.00     0.041 C 
BRANCH  26  28
HETATM   28  O3  UNL     1     -11.297  -3.412  -1.636  1.00  0.00    -0.394 OA
ATOM     29  H3  UNL     1     -11.268  -2.474  -1.780  1.00  0.00     0.210 HD
ENDBRANCH  26  28
ENDBRANCH  25  26
ENDBRANCH  24  25
ENDBRANCH   6  24
BRANCH   1  30
HETATM   30  O1  UNL     1     -10.197  -6.429  -1.835  1.00  0.00    -0.353 OA
HETATM   31  C1  UNL     1      -9.336  -6.825  -2.855  1.00  0.00     0.210 C 
ENDBRANCH   1  30
TORSDOF 5
ENDMDL
MODEL 4
REMARK VINA RESULT: -8.162988335      3.104      6.539
REMARK  5 active torsions:
REMARK  status: ('A' for Active; 'I' for Inactive)
REMARK    1  A    between atoms: O1_2  and  C2_3 
REMARK    2  A    between atoms: C7_8  and  O2_9 
REMARK    3  A    between atoms: O2_9  and  C8_10 
REMARK    4  A    between atoms: C8_10  and  C9_11 
REMARK    5  A    between atoms: C9_11  and  O3_13 
ROOT
HETATM    1  C2  UNL     1      -9.041  -5.277   4.733  1.00  0.00     0.102 A 
HETATM    2  C3  UNL     1      -8.593  -4.984   3.494  1.00  0.00     0.040 A 
HETATM    3  C4  UNL     1      -8.977  -5.760   2.456  1.00  0.00     0.010 A 
HETATM    4  C5  UNL     1      -9.806  -6.849   2.556  1.00  0.00    -0.049 A 
HETATM    5  C6  UNL     1     -10.266  -7.142   3.850  1.00  0.00    -0.013 A 
HETATM    6  C7  UNL     1      -9.902  -6.383   4.934  1.00  0.00     0.109 A 
HETATM    7  C11 UNL     1     -11.205  -8.256   4.011  1.00  0.00     0.083 C 
HETATM    8  C12 UNL     1     -12.656  -7.863   4.030  1.00  0.00     0.100 C 
HETATM    9  C13 UNL     1     -13.166  -7.354   5.329  1.00  0.00     0.041 C 
HETATM   10  C14 UNL     1     -14.673  -7.620   5.212  1.00  0.00     0.003 C 
HETATM   11  C15 UNL     1     -14.847  -8.670   4.167  1.00  0.00     0.003 C 
HETATM   12  C16 UNL     1     -13.427  -9.195   3.940  1.00  0.00     0.041 C 
HETATM   13  O4  UNL     1     -13.084  -7.116   2.978  1.00  0.00    -0.229 OA
HETATM   14  O5  UNL     1     -12.272  -6.179   2.554  1.00  0.00    -0.229 OA
HETATM   15  C17 UNL     1     -12.307  -6.280   1.138  1.00  0.00     0.097 C 
HETATM   16  C18 UNL     1     -13.759  -6.615   0.832  1.00  0.00     0.048 C 
HETATM   17  C19 UNL     1     -14.050  -6.470  -0.647  1.00  0.00     0.081 C 
HETATM   18  C20 UNL     1     -13.924  -5.001  -0.890  1.00  0.00     0.127 C 
HETATM   19  O6  UNL     1     -14.810  -4.333  -1.375  1.00  0.00    -0.298 OA
HETATM   20  C21 UNL     1     -12.660  -4.373  -0.515  1.00  0.00     0.081 C 
HETATM   21  C22 UNL     1     -11.814  -5.050   0.480  1.00  0.00     0.048 C 
HETATM   22  C23 UNL     1     -11.508  -7.515   0.820  1.00  0.00     0.046 C 
HETATM   23  C24 UNL     1     -10.147  -7.612   1.359  1.00  0.00     0.042 C 
ENDROOT
BRANCH   6  24
HETATM   24  O2  UNL     1     -10.281  -6.558   6.249  1.00  0.00    -0.345 OA
BRANCH  24  25
HETATM   25  C8  UNL     1      -9.916  -7.472   7.190  1.00  0.00     0.207 C 
BRANCH  25  26
HETATM   26  C9  UNL     1      -8.880  -7.255   8.201  1.00  0.00     0.138 C 
HETATM   27  C10 UNL     1      -7.529  -7.601   7.542  1.00  0.00     0.041 C 
BRANCH  26  28
HETATM   28  O3  UNL     1      -8.706  -5.955   8.657  1.00  0.00    -0.394 OA
ATOM     29  H3  UNL     1      -7.998  -5.804   9.271  1.00  0.00     0.210 HD
ENDBRANCH  26  28
ENDBRANCH  25  26
ENDBRANCH  24  25
ENDBRANCH   6  24
BRANCH   1  30
HETATM   30  O1  UNL     1      -8.662  -4.489   5.838  1.00  0.00    -0.353 OA
HETATM   31  C1  UNL     1      -7.335  -4.183   6.122  1.00  0.00     0.210 C 
ENDBRANCH   1  30
TORSDOF 5
ENDMDL
MODEL 5
REMARK VINA RESULT: -7.953764253      2.443      4.683
REMARK  5 active torsions:
REMARK  status: ('A' for Active; 'I' for Inactive)
REMARK    1  A    between atoms: O1_2  and  C2_3 
REMARK    2  A    between atoms: C7_8  and  O2_9 
REMARK    3  A    between atoms: O2_9  and  C8_10 
REMARK    4  A    between atoms: C8_10  and  C9_11 
REMARK    5  A    between atoms: C9_11  and  O3_13 
ROOT
HETATM    1  C2  UNL     1     -11.567  -5.829   0.610  1.00  0.00     0.102 A 
HETATM    2  C3  UNL     1     -12.863  -5.963   0.960  1.00  0.00     0.040 A 
HETATM    3  C4  UNL     1     -13.218  -6.973   1.786  1.00  0.00     0.010 A 
HETATM    4  C5  UNL     1     -12.350  -7.896   2.314  1.00  0.00    -0.049 A 
HETATM    5  C6  UNL     1     -11.005  -7.743   1.942  1.00  0.00    -0.013 A 
HETATM    6  C7  UNL     1     -10.598  -6.735   1.104  1.00  0.00     0.109 A 
HETATM    7  C11 UNL     1     -10.021  -8.662   2.523  1.00  0.00     0.083 C 
HETATM    8  C12 UNL     1      -9.314  -8.141   3.744  1.00  0.00     0.100 C 
HETATM    9  C13 UNL     1      -8.178  -7.220   3.484  1.00  0.00     0.041 C 
HETATM   10  C14 UNL     1      -7.347  -7.361   4.766  1.00  0.00     0.003 C 
HETATM   11  C15 UNL     1      -7.742  -8.654   5.397  1.00  0.00     0.003 C 
HETATM   12  C16 UNL     1      -8.553  -9.358   4.307  1.00  0.00     0.041 C 
HETATM   13  O4  UNL     1     -10.113  -7.704   4.754  1.00  0.00    -0.229 OA
HETATM   14  O5  UNL     1     -11.175  -7.020   4.407  1.00  0.00    -0.229 OA
HETATM   15  C17 UNL     1     -12.221  -7.535   5.219  1.00  0.00     0.097 C 
HETATM   16  C18 UNL     1     -11.545  -7.804   6.556  1.00  0.00     0.048 C 
HETATM   17  C19 UNL     1     -12.570  -8.079   7.637  1.00  0.00     0.081 C 
HETATM   18  C20 UNL     1     -13.269  -6.769   7.803  1.00  0.00     0.127 C 
HETATM   19  O6  UNL     1     -13.350  -6.193   8.866  1.00  0.00    -0.298 OA
HETATM   20  C21 UNL     1     -13.874  -6.185   6.609  1.00  0.00     0.081 C 
HETATM   21  C22 UNL     1     -13.374  -6.612   5.294  1.00  0.00     0.048 C 
HETATM   22  C23 UNL     1     -12.542  -8.881   4.626  1.00  0.00     0.046 C 
HETATM   23  C24 UNL     1     -12.856  -8.944   3.195  1.00  0.00     0.042 C 
ENDROOT
BRANCH   6  24
HETATM   24  O2  UNL     1      -9.318  -6.471   0.664  1.00  0.00    -0.345 OA
BRANCH  24  25
HETATM   25  C8  UNL     1      -8.538  -7.063  -0.281  1.00  0.00     0.207 C 
BRANCH  25  26
HETATM   26  C9  UNL     1      -8.421  -6.606  -1.667  1.00  0.00     0.138 C 
HETATM   27  C10 UNL     1      -7.834  -7.778  -2.480  1.00  0.00     0.041 C 
BRANCH  26  28
HETATM   28  O3  UNL     1      -9.601  -6.297  -2.330  1.00  0.00    -0.394 OA
ATOM     29  H3  UNL     1      -9.766  -6.747  -3.149  1.00  0.00     0.210 HD
ENDBRANCH  26  28
ENDBRANCH  25  26
ENDBRANCH  24  25
ENDBRANCH   6  24
BRANCH   1  30
HETATM   30  O1  UNL     1     -11.161  -4.787  -0.249  1.00  0.00    -0.353 OA
HETATM   31  C1  UNL     1     -12.065  -3.999  -0.954  1.00  0.00     0.210 C 
ENDBRANCH   1  30
TORSDOF 5
ENDMDL
