MODEL 1
REMARK VINA RESULT: -8.719031823      0.000      0.000
REMARK  5 active torsions:
REMARK  status: ('A' for Active; 'I' for Inactive)
REMARK    1  A    between atoms: N1_1  and  C1_4 
REMARK    2  A    between atoms: C5_12  and  N4_13 
REMARK    3  A    between atoms: N8_27  and  C12_28 
REMARK    4  A    between atoms: N9_36  and  S1_37 
REMARK    5  A    between atoms: S1_37  and  C20_40 
ROOT
HETATM    1  C1  UNL     1      29.685 -36.247  -4.644  1.00  0.00     0.117 A 
HETATM    2  N2  UNL     1      29.718 -34.904  -4.628  1.00  0.00    -0.338 N 
ATOM      3  H2  UNL     1      30.614 -34.417  -4.619  1.00  0.00     0.168 HD
HETATM    4  C2  UNL     1      28.562 -34.195  -4.624  1.00  0.00     0.183 A 
HETATM    5  N3  UNL     1      27.363 -34.806  -4.636  1.00  0.00    -0.336 N 
ATOM      6  H3  UNL     1      26.511 -34.247  -4.632  1.00  0.00     0.168 HD
HETATM    7  C3  UNL     1      27.279 -36.131  -4.653  1.00  0.00     0.141 A 
HETATM    8  C4  UNL     1      28.462 -36.878  -4.657  1.00  0.00     0.098 A 
HETATM    9  C5  UNL     1      28.090 -38.186  -4.671  1.00  0.00     0.136 A 
HETATM   10  N7  UNL     1      26.723 -38.189  -4.673  1.00  0.00    -0.281 N 
ATOM     11  H7  UNL     1      26.156 -39.037  -4.682  1.00  0.00     0.189 HD
HETATM   12  N8  UNL     1      26.230 -36.987  -4.662  1.00  0.00    -0.269 N 
ENDROOT
BRANCH  12  13
HETATM   13  C12 UNL     1      24.833 -36.587  -4.660  1.00  0.00     0.110 C 
HETATM   14  C13 UNL     1      24.361 -36.066  -5.986  1.00  0.00     0.028 C 
HETATM   15  C14 UNL     1      23.523 -34.844  -5.903  1.00  0.00     0.011 C 
HETATM   16  C15 UNL     1      22.531 -34.799  -4.800  1.00  0.00    -0.038 C 
HETATM   17  C16 UNL     1      22.990 -35.496  -3.530  1.00  0.00     0.011 C 
HETATM   18  C18 UNL     1      21.187 -35.375  -5.166  1.00  0.00     0.025 C 
HETATM   19  C27 UNL     1      22.354 -33.324  -4.413  1.00  0.00     0.025 C 
HETATM   20  C17 UNL     1      24.523 -35.545  -3.621  1.00  0.00     0.028 C 
HETATM   21  C19 UNL     1      20.197 -34.315  -5.591  1.00  0.00     0.108 C 
HETATM   22  N9  UNL     1      19.941 -33.339  -4.582  1.00  0.00    -0.206 NA
HETATM   23  C26 UNL     1      21.052 -33.122  -3.686  1.00  0.00     0.108 C 
BRANCH  22  24
HETATM   24  S1  UNL     1      18.553 -33.682  -3.620  1.00  0.00     0.243 S 
HETATM   25  O2  UNL     1      17.465 -34.288  -4.487  1.00  0.00    -0.206 OA
HETATM   26  O3  UNL     1      18.970 -34.648  -2.543  1.00  0.00    -0.206 OA
BRANCH  24  27
HETATM   27  C20 UNL     1      17.958 -32.203  -2.927  1.00  0.00     0.074 A 
HETATM   28  C21 UNL     1      16.995 -31.455  -3.542  1.00  0.00     0.025 A 
HETATM   29  C22 UNL     1      16.556 -30.303  -2.966  1.00  0.00     0.002 A 
HETATM   30  C23 UNL     1      17.087 -29.896  -1.760  1.00  0.00     0.000 A 
HETATM   31  C24 UNL     1      18.065 -30.642  -1.121  1.00  0.00     0.002 A 
HETATM   32  C25 UNL     1      18.503 -31.805  -1.708  1.00  0.00     0.025 A 
ENDBRANCH  24  27
ENDBRANCH  22  24
ENDBRANCH  12  13
BRANCH   9  33
HETATM   33  N4  UNL     1      28.935 -39.327  -4.697  1.00  0.00    -0.358 N 
HETATM   34  C6  UNL     1      29.254 -39.965  -5.955  1.00  0.00     0.151 C 
HETATM   35  C7  UNL     1      28.746 -41.395  -5.998  1.00  0.00     0.197 C 
HETATM   36  O1  UNL     1      29.659 -42.239  -5.327  1.00  0.00    -0.333 OA
HETATM   37  C8  UNL     1      30.494 -41.855  -4.268  1.00  0.00     0.168 A 
HETATM   38  N5  UNL     1      31.603 -42.544  -3.897  1.00  0.00    -0.331 N 
HETATM   39  C10 UNL     1      30.422 -40.785  -3.405  1.00  0.00     0.079 A 
HETATM   40  C9  UNL     1      32.161 -41.904  -2.856  1.00  0.00     0.182 A 
ATOM     41  H5  UNL     1      31.952 -43.398  -4.332  1.00  0.00     0.168 HD
HETATM   42  N6  UNL     1      31.447 -40.811  -2.535  1.00  0.00    -0.351 N 
ATOM     43  H6  UNL     1      31.641 -40.143  -1.789  1.00  0.00     0.166 HD
HETATM   44  C11 UNL     1      29.396 -39.732  -3.387  1.00  0.00     0.186 C 
ENDBRANCH   9  33
BRANCH   1  45
HETATM   45  N1  UNL     1      30.804 -36.881  -4.638  1.00  0.00    -0.385 N 
ATOM     46  H12 UNL     1      31.506 -36.768  -3.906  1.00  0.00     0.157 HD
ATOM     47  H11 UNL     1      30.997 -37.522  -5.408  1.00  0.00     0.157 HD
ENDBRANCH   1  45
TORSDOF 5
ENDMDL
MODEL 2
REMARK VINA RESULT: -8.600715879      1.443      2.203
REMARK  5 active torsions:
REMARK  status: ('A' for Active; 'I' for Inactive)
REMARK    1  A    between atoms: N1_1  and  C1_4 
REMARK    2  A    between atoms: C5_12  and  N4_13 
REMARK    3  A    between atoms: N8_27  and  C12_28 
REMARK    4  A    between atoms: N9_36  and  S1_37 
REMARK    5  A    between atoms: S1_37  and  C20_40 
ROOT
HETATM    1  C1  UNL     1      30.387 -37.214  -5.173  1.00  0.00     0.117 A 
HETATM    2  N2  UNL     1      30.639 -35.951  -5.554  1.00  0.00    -0.338 N 
ATOM      3  H2  UNL     1      31.583 -35.682  -5.831  1.00  0.00     0.168 HD
HETATM    4  C2  UNL     1      29.642 -35.033  -5.571  1.00  0.00     0.183 A 
HETATM    5  N3  UNL     1      28.385 -35.355  -5.212  1.00  0.00    -0.336 N 
ATOM      6  H3  UNL     1      27.656 -34.643  -5.235  1.00  0.00     0.168 HD
HETATM    7  C3  UNL     1      28.086 -36.590  -4.829  1.00  0.00     0.141 A 
HETATM    8  C4  UNL     1      29.103 -37.550  -4.805  1.00  0.00     0.098 A 
HETATM    9  C5  UNL     1      28.530 -38.707  -4.378  1.00  0.00     0.136 A 
HETATM   10  N7  UNL     1      27.212 -38.416  -4.160  1.00  0.00    -0.281 N 
ATOM     11  H7  UNL     1      26.526 -39.096  -3.831  1.00  0.00     0.189 HD
HETATM   12  N8  UNL     1      26.934 -37.173  -4.421  1.00  0.00    -0.269 N 
ENDROOT
BRANCH  12  13
HETATM   13  C12 UNL     1      25.654 -36.495  -4.311  1.00  0.00     0.110 C 
HETATM   14  C13 UNL     1      25.771 -34.999  -4.310  1.00  0.00     0.028 C 
HETATM   15  C14 UNL     1      24.922 -34.317  -3.302  1.00  0.00     0.011 C 
HETATM   16  C15 UNL     1      23.553 -34.859  -3.119  1.00  0.00    -0.038 C 
HETATM   17  C16 UNL     1      23.456 -36.364  -3.303  1.00  0.00     0.011 C 
HETATM   18  C18 UNL     1      22.523 -34.231  -4.021  1.00  0.00     0.025 C 
HETATM   19  C27 UNL     1      23.158 -34.603  -1.657  1.00  0.00     0.025 C 
HETATM   20  C17 UNL     1      24.881 -36.896  -3.085  1.00  0.00     0.028 C 
HETATM   21  C19 UNL     1      21.761 -33.113  -3.345  1.00  0.00     0.108 C 
HETATM   22  N9  UNL     1      21.053 -33.533  -2.180  1.00  0.00    -0.206 NA
HETATM   23  C26 UNL     1      21.663 -34.650  -1.498  1.00  0.00     0.108 C 
BRANCH  22  24
HETATM   24  S1  UNL     1      19.405 -33.938  -2.476  1.00  0.00     0.243 S 
HETATM   25  O2  UNL     1      19.277 -34.604  -3.834  1.00  0.00    -0.206 OA
HETATM   26  O3  UNL     1      18.959 -34.874  -1.384  1.00  0.00    -0.206 OA
BRANCH  24  27
HETATM   27  C20 UNL     1      18.449 -32.485  -2.473  1.00  0.00     0.074 A 
HETATM   28  C21 UNL     1      18.558 -31.554  -1.481  1.00  0.00     0.025 A 
HETATM   29  C22 UNL     1      17.792 -30.430  -1.515  1.00  0.00     0.002 A 
HETATM   30  C23 UNL     1      16.907 -30.237  -2.556  1.00  0.00     0.000 A 
HETATM   31  C24 UNL     1      16.782 -31.173  -3.571  1.00  0.00     0.002 A 
HETATM   32  C25 UNL     1      17.560 -32.305  -3.530  1.00  0.00     0.025 A 
ENDBRANCH  24  27
ENDBRANCH  22  24
ENDBRANCH  12  13
BRANCH   9  33
HETATM   33  N4  UNL     1      29.154 -39.971  -4.206  1.00  0.00    -0.358 N 
HETATM   34  C6  UNL     1      29.679 -40.351  -2.914  1.00  0.00     0.151 C 
HETATM   35  C7  UNL     1      31.181 -40.568  -2.966  1.00  0.00     0.197 C 
HETATM   36  O1  UNL     1      31.452 -41.861  -3.467  1.00  0.00    -0.333 OA
HETATM   37  C8  UNL     1      30.639 -42.574  -4.360  1.00  0.00     0.168 A 
HETATM   38  N5  UNL     1      30.708 -43.919  -4.531  1.00  0.00    -0.331 N 
HETATM   39  C10 UNL     1      29.651 -42.146  -5.219  1.00  0.00     0.079 A 
HETATM   40  C9  UNL     1      29.797 -44.267  -5.455  1.00  0.00     0.182 A 
ATOM     41  H5  UNL     1      31.341 -44.553  -4.044  1.00  0.00     0.168 HD
HETATM   42  N6  UNL     1      29.130 -43.186  -5.894  1.00  0.00    -0.351 N 
ATOM     43  H6  UNL     1      28.386 -43.160  -6.591  1.00  0.00     0.166 HD
HETATM   44  C11 UNL     1      29.189 -40.764  -5.414  1.00  0.00     0.186 C 
ENDBRANCH   9  33
BRANCH   1  45
HETATM   45  N1  UNL     1      31.363 -38.051  -5.162  1.00  0.00    -0.385 N 
ATOM     46  H12 UNL     1      32.334 -37.778  -5.319  1.00  0.00     0.157 HD
ATOM     47  H11 UNL     1      31.152 -39.035  -4.995  1.00  0.00     0.157 HD
ENDBRANCH   1  45
TORSDOF 5
ENDMDL
MODEL 3
REMARK VINA RESULT: -8.562062795      6.813     10.778
REMARK  5 active torsions:
REMARK  status: ('A' for Active; 'I' for Inactive)
REMARK    1  A    between atoms: N1_1  and  C1_4 
REMARK    2  A    between atoms: C5_12  and  N4_13 
REMARK    3  A    between atoms: N8_27  and  C12_28 
REMARK    4  A    between atoms: N9_36  and  S1_37 
REMARK    5  A    between atoms: S1_37  and  C20_40 
ROOT
HETATM    1  C1  UNL     1      19.544 -33.393  -4.979  1.00  0.00     0.117 A 
HETATM    2  N2  UNL     1      18.256 -33.759  -5.087  1.00  0.00    -0.338 N 
ATOM      3  H2  UNL     1      17.573 -33.426  -4.406  1.00  0.00     0.168 HD
HETATM    4  C2  UNL     1      17.862 -34.571  -6.099  1.00  0.00     0.183 A 
HETATM    5  N3  UNL     1      18.736 -35.028  -7.013  1.00  0.00    -0.336 N 
ATOM      6  H3  UNL     1      18.410 -35.638  -7.763  1.00  0.00     0.168 HD
HETATM    7  C3  UNL     1      20.019 -34.694  -6.950  1.00  0.00     0.141 A 
HETATM    8  C4  UNL     1      20.443 -33.857  -5.912  1.00  0.00     0.098 A 
HETATM    9  C5  UNL     1      21.781 -33.682  -6.082  1.00  0.00     0.136 A 
HETATM   10  N7  UNL     1      22.117 -34.405  -7.193  1.00  0.00    -0.281 N 
ATOM     11  H7  UNL     1      23.064 -34.464  -7.568  1.00  0.00     0.189 HD
HETATM   12  N8  UNL     1      21.091 -35.007  -7.716  1.00  0.00    -0.269 N 
ENDROOT
BRANCH  12  13
HETATM   13  C12 UNL     1      21.050 -35.859  -8.891  1.00  0.00     0.110 C 
HETATM   14  C13 UNL     1      20.421 -37.197  -8.634  1.00  0.00     0.028 C 
HETATM   15  C14 UNL     1      21.144 -38.343  -9.240  1.00  0.00     0.011 C 
HETATM   16  C15 UNL     1      21.683 -38.133 -10.608  1.00  0.00    -0.038 C 
HETATM   17  C16 UNL     1      22.147 -36.711 -10.875  1.00  0.00     0.011 C 
HETATM   18  C18 UNL     1      20.720 -38.503 -11.706  1.00  0.00     0.025 C 
HETATM   19  C27 UNL     1      22.942 -39.003 -10.734  1.00  0.00     0.025 C 
HETATM   20  C17 UNL     1      22.409 -36.098  -9.490  1.00  0.00     0.028 C 
HETATM   21  C19 UNL     1      20.953 -39.898 -12.238  1.00  0.00     0.108 C 
HETATM   22  N9  UNL     1      22.258 -40.086 -12.785  1.00  0.00    -0.206 NA
HETATM   23  C26 UNL     1      23.268 -39.251 -12.181  1.00  0.00     0.108 C 
BRANCH  22  24
HETATM   24  S1  UNL     1      22.337 -39.853 -14.491  1.00  0.00     0.243 S 
HETATM   25  O2  UNL     1      23.513 -40.625 -15.060  1.00  0.00    -0.206 OA
HETATM   26  O3  UNL     1      21.043 -40.349 -15.081  1.00  0.00    -0.206 OA
BRANCH  24  27
HETATM   27  C20 UNL     1      22.561 -38.162 -14.827  1.00  0.00     0.074 A 
HETATM   28  C21 UNL     1      23.800 -37.590 -14.844  1.00  0.00     0.025 A 
HETATM   29  C22 UNL     1      23.934 -36.263 -15.112  1.00  0.00     0.002 A 
HETATM   30  C23 UNL     1      22.812 -35.500 -15.366  1.00  0.00     0.000 A 
HETATM   31  C24 UNL     1      21.546 -36.065 -15.352  1.00  0.00     0.002 A 
HETATM   32  C25 UNL     1      21.420 -37.406 -15.081  1.00  0.00     0.025 A 
ENDBRANCH  24  27
ENDBRANCH  22  24
ENDBRANCH  12  13
BRANCH   9  33
HETATM   33  N4  UNL     1      22.660 -32.898  -5.289  1.00  0.00    -0.358 N 
HETATM   34  C6  UNL     1      22.888 -31.508  -5.616  1.00  0.00     0.151 C 
HETATM   35  C7  UNL     1      24.342 -31.250  -5.967  1.00  0.00     0.197 C 
HETATM   36  O1  UNL     1      25.093 -31.104  -4.780  1.00  0.00    -0.333 OA
HETATM   37  C8  UNL     1      24.797 -31.708  -3.550  1.00  0.00     0.168 A 
HETATM   38  N5  UNL     1      25.285 -31.274  -2.360  1.00  0.00    -0.331 N 
HETATM   39  C10 UNL     1      24.011 -32.797  -3.246  1.00  0.00     0.079 A 
HETATM   40  C9  UNL     1      24.805 -32.076  -1.395  1.00  0.00     0.182 A 
ATOM     41  H5  UNL     1      25.908 -30.478  -2.223  1.00  0.00     0.168 HD
HETATM   42  N6  UNL     1      24.012 -33.026  -1.921  1.00  0.00    -0.351 N 
ATOM     43  H6  UNL     1      23.517 -33.764  -1.421  1.00  0.00     0.166 HD
HETATM   44  C11 UNL     1      23.253 -33.630  -4.192  1.00  0.00     0.186 C 
ENDBRANCH   9  33
BRANCH   1  45
HETATM   45  N1  UNL     1      19.877 -32.629  -4.000  1.00  0.00    -0.385 N 
ATOM     46  H12 UNL     1      19.858 -32.930  -3.025  1.00  0.00     0.157 HD
ATOM     47  H11 UNL     1      20.169 -31.675  -4.211  1.00  0.00     0.157 HD
ENDBRANCH   1  45
TORSDOF 5
ENDMDL
MODEL 4
REMARK VINA RESULT: -8.464693117      6.220     11.377
REMARK  5 active torsions:
REMARK  status: ('A' for Active; 'I' for Inactive)
REMARK    1  A    between atoms: N1_1  and  C1_4 
REMARK    2  A    between atoms: C5_12  and  N4_13 
REMARK    3  A    between atoms: N8_27  and  C12_28 
REMARK    4  A    between atoms: N9_36  and  S1_37 
REMARK    5  A    between atoms: S1_37  and  C20_40 
ROOT
HETATM    1  C1  UNL     1      22.068 -34.668  -2.067  1.00  0.00     0.117 A 
HETATM    2  N2  UNL     1      22.967 -35.042  -1.144  1.00  0.00    -0.338 N 
ATOM      3  H2  UNL     1      22.713 -35.730  -0.434  1.00  0.00     0.168 HD
HETATM    4  C2  UNL     1      24.214 -34.507  -1.151  1.00  0.00     0.183 A 
HETATM    5  N3  UNL     1      24.582 -33.598  -2.072  1.00  0.00    -0.336 N 
ATOM      6  H3  UNL     1      25.526 -33.214  -2.053  1.00  0.00     0.168 HD
HETATM    7  C3  UNL     1      23.729 -33.198  -3.006  1.00  0.00     0.141 A 
HETATM    8  C4  UNL     1      22.439 -33.739  -3.013  1.00  0.00     0.098 A 
HETATM    9  C5  UNL     1      21.784 -33.159  -4.056  1.00  0.00     0.136 A 
HETATM   10  N7  UNL     1      22.680 -32.303  -4.633  1.00  0.00    -0.281 N 
ATOM     11  H7  UNL     1      22.470 -31.724  -5.446  1.00  0.00     0.189 HD
HETATM   12  N8  UNL     1      23.830 -32.314  -4.027  1.00  0.00    -0.269 N 
ENDROOT
BRANCH  12  13
HETATM   13  C12 UNL     1      25.021 -31.546  -4.345  1.00  0.00     0.110 C 
HETATM   14  C13 UNL     1      24.854 -30.655  -5.540  1.00  0.00     0.028 C 
HETATM   15  C14 UNL     1      26.003 -30.665  -6.480  1.00  0.00     0.011 C 
HETATM   16  C15 UNL     1      27.355 -30.678  -5.867  1.00  0.00    -0.038 C 
HETATM   17  C16 UNL     1      27.431 -31.452  -4.561  1.00  0.00     0.011 C 
HETATM   18  C18 UNL     1      27.921 -29.306  -5.608  1.00  0.00     0.025 C 
HETATM   19  C27 UNL     1      28.282 -31.426  -6.837  1.00  0.00     0.025 C 
HETATM   20  C17 UNL     1      26.230 -32.410  -4.581  1.00  0.00     0.028 C 
HETATM   21  C19 UNL     1      28.841 -28.838  -6.712  1.00  0.00     0.108 C 
HETATM   22  N9  UNL     1      29.967 -29.692  -6.912  1.00  0.00    -0.206 NA
HETATM   23  C26 UNL     1      29.720 -31.072  -6.569  1.00  0.00     0.108 C 
BRANCH  22  24
HETATM   24  S1  UNL     1      31.380 -29.188  -6.066  1.00  0.00     0.243 S 
HETATM   25  O2  UNL     1      31.211 -29.453  -4.581  1.00  0.00    -0.206 OA
HETATM   26  O3  UNL     1      32.546 -29.970  -6.613  1.00  0.00    -0.206 OA
BRANCH  24  27
HETATM   27  C20 UNL     1      31.613 -27.482  -6.307  1.00  0.00     0.074 A 
HETATM   28  C21 UNL     1      31.310 -26.569  -5.338  1.00  0.00     0.025 A 
HETATM   29  C22 UNL     1      31.507 -25.243  -5.566  1.00  0.00     0.002 A 
HETATM   30  C23 UNL     1      32.015 -24.826  -6.779  1.00  0.00     0.000 A 
HETATM   31  C24 UNL     1      32.329 -25.738  -7.775  1.00  0.00     0.002 A 
HETATM   32  C25 UNL     1      32.127 -27.076  -7.537  1.00  0.00     0.025 A 
ENDBRANCH  24  27
ENDBRANCH  22  24
ENDBRANCH  12  13
BRANCH   9  33
HETATM   33  N4  UNL     1      20.451 -33.398  -4.482  1.00  0.00    -0.358 N 
HETATM   34  C6  UNL     1      19.392 -32.496  -4.089  1.00  0.00     0.151 C 
HETATM   35  C7  UNL     1      18.346 -33.199  -3.244  1.00  0.00     0.197 C 
HETATM   36  O1  UNL     1      17.452 -33.898  -4.086  1.00  0.00    -0.333 OA
HETATM   37  C8  UNL     1      17.769 -34.431  -5.344  1.00  0.00     0.168 A 
HETATM   38  N5  UNL     1      16.840 -34.753  -6.281  1.00  0.00    -0.331 N 
HETATM   39  C10 UNL     1      18.984 -34.743  -5.911  1.00  0.00     0.079 A 
HETATM   40  C9  UNL     1      17.485 -35.235  -7.356  1.00  0.00     0.182 A 
ATOM     41  H5  UNL     1      15.831 -34.646  -6.185  1.00  0.00     0.168 HD
HETATM   42  N6  UNL     1      18.813 -35.237  -7.150  1.00  0.00    -0.351 N 
ATOM     43  H6  UNL     1      19.538 -35.548  -7.797  1.00  0.00     0.166 HD
HETATM   44  C11 UNL     1      20.311 -34.582  -5.300  1.00  0.00     0.186 C 
ENDBRANCH   9  33
BRANCH   1  45
HETATM   45  N1  UNL     1      20.895 -35.192  -2.019  1.00  0.00    -0.385 N 
ATOM     46  H12 UNL     1      20.244 -35.035  -1.249  1.00  0.00     0.157 HD
ATOM     47  H11 UNL     1      20.607 -35.800  -2.787  1.00  0.00     0.157 HD
ENDBRANCH   1  45
TORSDOF 5
ENDMDL
MODEL 5
REMARK VINA RESULT: -8.375901514      1.221      1.491
REMARK  5 active torsions:
REMARK  status: ('A' for Active; 'I' for Inactive)
REMARK    1  A    between atoms: N1_1  and  C1_4 
REMARK    2  A    between atoms: C5_12  and  N4_13 
REMARK    3  A    between atoms: N8_27  and  C12_28 
REMARK    4  A    between atoms: N9_36  and  S1_37 
REMARK    5  A    between atoms: S1_37  and  C20_40 
ROOT
HETATM    1  C1  UNL     1      30.497 -36.606  -5.535  1.00  0.00     0.117 A 
HETATM    2  N2  UNL     1      30.675 -35.314  -5.854  1.00  0.00    -0.338 N 
ATOM      3  H2  UNL     1      31.597 -34.981  -6.135  1.00  0.00     0.168 HD
HETATM    4  C2  UNL     1      29.631 -34.450  -5.804  1.00  0.00     0.183 A 
HETATM    5  N3  UNL     1      28.401 -34.856  -5.438  1.00  0.00    -0.336 N 
ATOM      6  H3  UNL     1      27.635 -34.184  -5.409  1.00  0.00     0.168 HD
HETATM    7  C3  UNL     1      28.175 -36.124  -5.114  1.00  0.00     0.141 A 
HETATM    8  C4  UNL     1      29.241 -37.028  -5.161  1.00  0.00     0.098 A 
HETATM    9  C5  UNL     1      28.738 -38.234  -4.784  1.00  0.00     0.136 A 
HETATM   10  N7  UNL     1      27.413 -38.026  -4.525  1.00  0.00    -0.281 N 
ATOM     11  H7  UNL     1      26.770 -38.757  -4.219  1.00  0.00     0.189 HD
HETATM   12  N8  UNL     1      27.065 -36.788  -4.715  1.00  0.00    -0.269 N 
ENDROOT
BRANCH  12  13
HETATM   13  C12 UNL     1      25.754 -36.185  -4.545  1.00  0.00     0.110 C 
HETATM   14  C13 UNL     1      25.783 -34.685  -4.549  1.00  0.00     0.028 C 
HETATM   15  C14 UNL     1      24.945 -34.051  -3.502  1.00  0.00     0.011 C 
HETATM   16  C15 UNL     1      23.619 -34.671  -3.254  1.00  0.00    -0.038 C 
HETATM   17  C16 UNL     1      23.602 -36.180  -3.434  1.00  0.00     0.011 C 
HETATM   18  C18 UNL     1      22.513 -34.106  -4.107  1.00  0.00     0.025 C 
HETATM   19  C27 UNL     1      23.280 -34.434  -1.775  1.00  0.00     0.025 C 
HETATM   20  C17 UNL     1      25.065 -36.627  -3.283  1.00  0.00     0.028 C 
HETATM   21  C19 UNL     1      21.720 -33.033  -3.395  1.00  0.00     0.108 C 
HETATM   22  N9  UNL     1      21.094 -33.490  -2.197  1.00  0.00    -0.206 NA
HETATM   23  C26 UNL     1      21.800 -34.568  -1.545  1.00  0.00     0.108 C 
BRANCH  22  24
HETATM   24  S1  UNL     1      19.460 -33.991  -2.415  1.00  0.00     0.243 S 
HETATM   25  O2  UNL     1      19.348 -34.845  -3.665  1.00  0.00    -0.206 OA
HETATM   26  O3  UNL     1      19.056 -34.781  -1.198  1.00  0.00    -0.206 OA
BRANCH  24  27
HETATM   27  C20 UNL     1      18.451 -32.588  -2.604  1.00  0.00     0.074 A 
HETATM   28  C21 UNL     1      17.693 -32.391  -3.722  1.00  0.00     0.025 A 
HETATM   29  C22 UNL     1      16.916 -31.279  -3.831  1.00  0.00     0.002 A 
HETATM   30  C23 UNL     1      16.899 -30.354  -2.808  1.00  0.00     0.000 A 
HETATM   31  C24 UNL     1      17.663 -30.537  -1.665  1.00  0.00     0.002 A 
HETATM   32  C25 UNL     1      18.444 -31.663  -1.563  1.00  0.00     0.025 A 
ENDBRANCH  24  27
ENDBRANCH  22  24
ENDBRANCH  12  13
BRANCH   9  33
HETATM   33  N4  UNL     1      29.431 -39.471  -4.691  1.00  0.00    -0.358 N 
HETATM   34  C6  UNL     1      29.471 -40.366  -5.825  1.00  0.00     0.151 C 
HETATM   35  C7  UNL     1      28.801 -41.691  -5.512  1.00  0.00     0.197 C 
HETATM   36  O1  UNL     1      29.703 -42.522  -4.812  1.00  0.00    -0.333 OA
HETATM   37  C8  UNL     1      30.734 -42.077  -3.972  1.00  0.00     0.168 A 
HETATM   38  N5  UNL     1      31.800 -42.839  -3.619  1.00  0.00    -0.331 N 
HETATM   39  C10 UNL     1      30.924 -40.868  -3.340  1.00  0.00     0.079 A 
HETATM   40  C9  UNL     1      32.585 -42.107  -2.811  1.00  0.00     0.182 A 
ATOM     41  H5  UNL     1      31.974 -43.799  -3.915  1.00  0.00     0.168 HD
HETATM   42  N6  UNL     1      32.063 -40.883  -2.625  1.00  0.00    -0.351 N 
ATOM     43  H6  UNL     1      32.448 -40.125  -2.062  1.00  0.00     0.166 HD
HETATM   44  C11 UNL     1      30.042 -39.693  -3.399  1.00  0.00     0.186 C 
ENDBRANCH   9  33
BRANCH   1  45
HETATM   45  N1  UNL     1      31.515 -37.390  -5.588  1.00  0.00    -0.385 N 
ATOM     46  H12 UNL     1      32.377 -37.221  -5.068  1.00  0.00     0.157 HD
ATOM     47  H11 UNL     1      31.457 -38.215  -6.185  1.00  0.00     0.157 HD
ENDBRANCH   1  45
TORSDOF 5
ENDMDL
