MODEL 1
REMARK VINA RESULT: -9.089580546      0.000      0.000
REMARK  5 active torsions:
REMARK  status: ('A' for Active; 'I' for Inactive)
REMARK    1  A    between atoms: N2_10  and  C7_11 
REMARK    2  A    between atoms: C8_14  and  C9_15 
REMARK    3  A    between atoms: C12_18  and  N4_19 
REMARK    4  A    between atoms: N4_19  and  C13_20 
REMARK    5  A    between atoms: C26_38  and  N8_39 
ROOT
HETATM    1  C7  UNL     1      22.127 -33.838  -4.660  1.00  0.00     0.696 A 
HETATM    2  N3  UNL     1      22.115 -34.606  -5.763  1.00  0.00    -0.175 N 
ATOM      3  H3  UNL     1      23.002 -34.894  -6.175  1.00  0.00     0.186 HD
HETATM    4  C8  UNL     1      20.967 -35.006  -6.340  1.00  0.00     0.146 A 
HETATM    5  N7  UNL     1      19.815 -34.615  -5.777  1.00  0.00    -0.175 N 
ATOM      6  H7  UNL     1      18.939 -34.912  -6.206  1.00  0.00     0.186 HD
HETATM    7  C26 UNL     1      19.762 -33.850  -4.676  1.00  0.00     0.696 A 
HETATM    8  N10 UNL     1      20.941 -33.484  -4.149  1.00  0.00    -0.022 N 
ATOM      9  H10 UNL     1      20.934 -32.902  -3.312  1.00  0.00     0.203 HD
ENDROOT
BRANCH   4  10
HETATM   10  C9  UNL     1      21.019 -35.842  -7.532  1.00  0.00     0.009 A 
HETATM   11  C10 UNL     1      21.413 -35.296  -8.735  1.00  0.00     0.018 A 
HETATM   12  C11 UNL     1      21.464 -36.041  -9.866  1.00  0.00     0.045 A 
HETATM   13  C12 UNL     1      21.112 -37.427  -9.871  1.00  0.00     0.109 A 
HETATM   14  C24 UNL     1      20.717 -37.936  -8.624  1.00  0.00     0.045 A 
HETATM   15  C25 UNL     1      20.672 -37.172  -7.495  1.00  0.00     0.018 A 
BRANCH  13  16
HETATM   16  N4  UNL     1      21.157 -38.130 -10.979  1.00  0.00    -0.385 NA
BRANCH  16  17
HETATM   17  C13 UNL     1      21.205 -38.767 -11.982  1.00  0.00     0.207 A 
HETATM   18  N5  UNL     1      20.665 -40.039 -12.044  1.00  0.00    -0.327 N 
HETATM   19  C14 UNL     1      20.694 -40.810 -13.113  1.00  0.00     0.062 A 
ATOM     20  H5  UNL     1      20.213 -40.404 -11.206  1.00  0.00     0.168 HD
HETATM   21  C15 UNL     1      20.136 -42.089 -13.116  1.00  0.00     0.032 A 
HETATM   22  C19 UNL     1      21.306 -40.305 -14.237  1.00  0.00     0.066 A 
HETATM   23  C16 UNL     1      20.176 -42.886 -14.231  1.00  0.00     0.002 A 
HETATM   24  C17 UNL     1      20.788 -42.384 -15.364  1.00  0.00     0.002 A 
HETATM   25  C18 UNL     1      21.336 -41.116 -15.346  1.00  0.00     0.032 A 
HETATM   26  N6  UNL     1      21.856 -39.087 -14.279  1.00  0.00    -0.316 N 
HETATM   27  C20 UNL     1      22.497 -38.387 -15.246  1.00  0.00     0.098 A 
HETATM   28  C23 UNL     1      21.813 -38.325 -13.178  1.00  0.00     0.098 A 
HETATM   29  C21 UNL     1      22.878 -37.159 -14.790  1.00  0.00     0.020 A 
HETATM   30  C22 UNL     1      22.433 -37.129 -13.458  1.00  0.00     0.036 A 
ENDBRANCH  16  17
ENDBRANCH  13  16
ENDBRANCH   4  10
BRANCH   1  31
HETATM   31  N2  UNL     1      23.386 -33.463  -4.121  1.00  0.00    -0.216 N 
HETATM   32  C6  UNL     1      24.171 -34.445  -3.355  1.00  0.00     0.142 C 
HETATM   33  C5  UNL     1      25.457 -33.806  -2.988  1.00  0.00     0.041 C 
HETATM   34  C4  UNL     1      25.306 -32.350  -3.354  1.00  0.00     0.060 C 
HETATM   35  C1  UNL     1      25.262 -31.479  -2.178  1.00  0.00     0.228 C 
HETATM   36  C3  UNL     1      26.544 -31.936  -4.080  1.00  0.00     0.041 C 
HETATM   37  C31 UNL     1      24.061 -32.213  -4.197  1.00  0.00     0.160 C 
HETATM   38  O1  UNL     1      24.419 -31.508  -1.243  1.00  0.00    -0.273 OA
HETATM   39  N1  UNL     1      26.332 -30.547  -2.213  1.00  0.00    -0.360 N 
HETATM   40  C2  UNL     1      26.889 -30.549  -3.570  1.00  0.00     0.124 C 
ATOM     41  H1  UNL     1      26.655 -29.976  -1.432  1.00  0.00     0.162 HD
ENDBRANCH   1  31
BRANCH   7  42
HETATM   42  N8  UNL     1      18.524 -33.452  -4.102  1.00  0.00    -0.214 N 
HETATM   43  C27 UNL     1      17.294 -33.508  -4.867  1.00  0.00     0.168 C 
HETATM   44  C28 UNL     1      16.593 -32.174  -4.766  1.00  0.00     0.252 C 
HETATM   45  N9  UNL     1      16.352 -31.880  -3.366  1.00  0.00    -0.072 N 
HETATM   46  C29 UNL     1      17.669 -31.647  -2.763  1.00  0.00     0.252 C 
ATOM     47  H92 UNL     1      15.697 -31.111  -3.220  1.00  0.00     0.277 HD
ATOM     48  H91 UNL     1      15.809 -32.599  -2.888  1.00  0.00     0.277 HD
HETATM   49  C30 UNL     1      18.425 -32.967  -2.739  1.00  0.00     0.168 C 
ENDBRANCH   7  42
TORSDOF 5
ENDMDL
MODEL 2
REMARK VINA RESULT: -8.758954938      3.431     11.208
REMARK  5 active torsions:
REMARK  status: ('A' for Active; 'I' for Inactive)
REMARK    1  A    between atoms: N2_10  and  C7_11 
REMARK    2  A    between atoms: C8_14  and  C9_15 
REMARK    3  A    between atoms: C12_18  and  N4_19 
REMARK    4  A    between atoms: N4_19  and  C13_20 
REMARK    5  A    between atoms: C26_38  and  N8_39 
ROOT
HETATM    1  C7  UNL     1      22.555 -38.383 -12.892  1.00  0.00     0.696 A 
HETATM    2  N3  UNL     1      22.250 -37.701 -11.775  1.00  0.00    -0.175 N 
ATOM      3  H3  UNL     1      22.840 -36.916 -11.499  1.00  0.00     0.186 HD
HETATM    4  C8  UNL     1      21.192 -38.021 -11.010  1.00  0.00     0.146 A 
HETATM    5  N7  UNL     1      20.432 -39.056 -11.396  1.00  0.00    -0.175 N 
ATOM      6  H7  UNL     1      19.627 -39.309 -10.823  1.00  0.00     0.186 HD
HETATM    7  C26 UNL     1      20.683 -39.776 -12.500  1.00  0.00     0.696 A 
HETATM    8  N10 UNL     1      21.754 -39.405 -13.220  1.00  0.00    -0.022 N 
ATOM      9  H10 UNL     1      21.971 -39.933 -14.065  1.00  0.00     0.203 HD
ENDROOT
BRANCH   4  10
HETATM   10  C9  UNL     1      20.910 -37.240  -9.813  1.00  0.00     0.009 A 
HETATM   11  C10 UNL     1      20.282 -37.834  -8.739  1.00  0.00     0.018 A 
HETATM   12  C11 UNL     1      19.997 -37.136  -7.612  1.00  0.00     0.045 A 
HETATM   13  C12 UNL     1      20.331 -35.752  -7.480  1.00  0.00     0.109 A 
HETATM   14  C24 UNL     1      20.968 -35.193  -8.599  1.00  0.00     0.045 A 
HETATM   15  C25 UNL     1      21.248 -35.910  -9.724  1.00  0.00     0.018 A 
BRANCH  13  16
HETATM   16  N4  UNL     1      20.037 -35.088  -6.386  1.00  0.00    -0.385 NA
BRANCH  16  17
HETATM   17  C13 UNL     1      19.768 -34.482  -5.399  1.00  0.00     0.207 A 
HETATM   18  N5  UNL     1      18.766 -33.529  -5.400  1.00  0.00    -0.327 N 
HETATM   19  C14 UNL     1      18.422 -32.807  -4.352  1.00  0.00     0.062 A 
ATOM     20  H5  UNL     1      18.259 -33.374  -6.271  1.00  0.00     0.168 HD
HETATM   21  C15 UNL     1      17.404 -31.853  -4.414  1.00  0.00     0.032 A 
HETATM   22  C19 UNL     1      19.113 -33.025  -3.183  1.00  0.00     0.066 A 
HETATM   23  C16 UNL     1      17.057 -31.103  -3.321  1.00  0.00     0.002 A 
HETATM   24  C17 UNL     1      17.747 -31.319  -2.142  1.00  0.00     0.002 A 
HETATM   25  C18 UNL     1      18.752 -32.266  -2.096  1.00  0.00     0.032 A 
HETATM   26  N6  UNL     1      20.097 -33.925  -3.078  1.00  0.00    -0.316 N 
HETATM   27  C20 UNL     1      20.901 -34.311  -2.059  1.00  0.00     0.098 A 
HETATM   28  C23 UNL     1      20.426 -34.645  -4.159  1.00  0.00     0.098 A 
HETATM   29  C21 UNL     1      21.764 -35.288  -2.460  1.00  0.00     0.020 A 
HETATM   30  C22 UNL     1      21.450 -35.495  -3.814  1.00  0.00     0.036 A 
ENDBRANCH  16  17
ENDBRANCH  13  16
ENDBRANCH   4  10
BRANCH   1  31
HETATM   31  N2  UNL     1      23.692 -37.974 -13.636  1.00  0.00    -0.216 N 
HETATM   32  C6  UNL     1      24.196 -38.830 -14.723  1.00  0.00     0.142 C 
HETATM   33  C5  UNL     1      25.330 -38.123 -15.365  1.00  0.00     0.041 C 
HETATM   34  C4  UNL     1      25.625 -36.940 -14.476  1.00  0.00     0.060 C 
HETATM   35  C1  UNL     1      26.913 -37.063 -13.791  1.00  0.00     0.228 C 
HETATM   36  C3  UNL     1      25.783 -35.743 -15.356  1.00  0.00     0.041 C 
HETATM   37  C31 UNL     1      24.484 -36.800 -13.498  1.00  0.00     0.160 C 
HETATM   38  O1  UNL     1      27.264 -37.970 -12.991  1.00  0.00    -0.273 OA
HETATM   39  N1  UNL     1      27.768 -35.987 -14.147  1.00  0.00    -0.360 N 
HETATM   40  C2  UNL     1      26.950 -34.954 -14.790  1.00  0.00     0.124 C 
ATOM     41  H1  UNL     1      28.774 -35.942 -13.985  1.00  0.00     0.162 HD
ENDBRANCH   1  31
BRANCH   7  42
HETATM   42  N8  UNL     1      19.858 -40.868 -12.883  1.00  0.00    -0.214 N 
HETATM   43  C27 UNL     1      18.420 -40.812 -12.715  1.00  0.00     0.168 C 
HETATM   44  C28 UNL     1      17.962 -42.056 -11.989  1.00  0.00     0.252 C 
HETATM   45  N9  UNL     1      18.378 -43.218 -12.750  1.00  0.00    -0.072 N 
HETATM   46  C29 UNL     1      19.843 -43.263 -12.665  1.00  0.00     0.252 C 
ATOM     47  H92 UNL     1      17.928 -44.083 -12.449  1.00  0.00     0.277 HD
ATOM     48  H91 UNL     1      18.028 -43.222 -13.708  1.00  0.00     0.277 HD
HETATM   49  C30 UNL     1      20.404 -42.087 -13.450  1.00  0.00     0.168 C 
ENDBRANCH   7  42
TORSDOF 5
ENDMDL
MODEL 3
REMARK VINA RESULT: -8.757903242      4.366     11.559
REMARK  5 active torsions:
REMARK  status: ('A' for Active; 'I' for Inactive)
REMARK    1  A    between atoms: N2_10  and  C7_11 
REMARK    2  A    between atoms: C8_14  and  C9_15 
REMARK    3  A    between atoms: C12_18  and  N4_19 
REMARK    4  A    between atoms: N4_19  and  C13_20 
REMARK    5  A    between atoms: C26_38  and  N8_39 
ROOT
HETATM    1  C7  UNL     1      21.579 -34.542  -4.375  1.00  0.00     0.696 A 
HETATM    2  N3  UNL     1      22.633 -33.709  -4.431  1.00  0.00    -0.175 N 
ATOM      3  H3  UNL     1      22.542 -32.769  -4.047  1.00  0.00     0.186 HD
HETATM    4  C8  UNL     1      23.805 -34.079  -4.979  1.00  0.00     0.146 A 
HETATM    5  N7  UNL     1      23.898 -35.320  -5.476  1.00  0.00    -0.175 N 
ATOM      6  H7  UNL     1      24.782 -35.611  -5.894  1.00  0.00     0.186 HD
HETATM    7  C26 UNL     1      22.883 -36.197  -5.449  1.00  0.00     0.696 A 
HETATM    8  N10 UNL     1      21.741 -35.767  -4.889  1.00  0.00    -0.022 N 
ATOM      9  H10 UNL     1      20.952 -36.411  -4.853  1.00  0.00     0.203 HD
ENDROOT
BRANCH   4  10
HETATM   10  C9  UNL     1      24.912 -33.133  -5.006  1.00  0.00     0.009 A 
HETATM   11  C10 UNL     1      24.914 -32.106  -5.926  1.00  0.00     0.018 A 
HETATM   12  C11 UNL     1      25.932 -31.212  -5.985  1.00  0.00     0.045 A 
HETATM   13  C12 UNL     1      27.054 -31.289  -5.102  1.00  0.00     0.109 A 
HETATM   14  C24 UNL     1      27.006 -32.351  -4.185  1.00  0.00     0.045 A 
HETATM   15  C25 UNL     1      25.973 -33.240  -4.138  1.00  0.00     0.018 A 
BRANCH  13  16
HETATM   16  N4  UNL     1      28.036 -30.422  -5.182  1.00  0.00    -0.385 NA
BRANCH  16  17
HETATM   17  C13 UNL     1      28.928 -29.640  -5.261  1.00  0.00     0.207 A 
HETATM   18  N5  UNL     1      28.682 -28.279  -5.286  1.00  0.00    -0.327 N 
HETATM   19  C14 UNL     1      29.616 -27.354  -5.388  1.00  0.00     0.062 A 
ATOM     20  H5  UNL     1      27.712 -27.971  -5.222  1.00  0.00     0.168 HD
HETATM   21  C15 UNL     1      29.306 -25.993  -5.414  1.00  0.00     0.032 A 
HETATM   22  C19 UNL     1      30.919 -27.782  -5.473  1.00  0.00     0.066 A 
HETATM   23  C16 UNL     1      30.283 -25.038  -5.526  1.00  0.00     0.002 A 
HETATM   24  C17 UNL     1      31.596 -25.461  -5.611  1.00  0.00     0.002 A 
HETATM   25  C18 UNL     1      31.886 -26.812  -5.583  1.00  0.00     0.032 A 
HETATM   26  N6  UNL     1      31.262 -29.074  -5.456  1.00  0.00    -0.316 N 
HETATM   27  C20 UNL     1      32.449 -29.725  -5.522  1.00  0.00     0.098 A 
HETATM   28  C23 UNL     1      30.293 -29.994  -5.352  1.00  0.00     0.098 A 
HETATM   29  C21 UNL     1      32.270 -31.076  -5.461  1.00  0.00     0.020 A 
HETATM   30  C22 UNL     1      30.879 -31.238  -5.352  1.00  0.00     0.036 A 
ENDBRANCH  16  17
ENDBRANCH  13  16
ENDBRANCH   4  10
BRANCH   1  31
HETATM   31  N2  UNL     1      20.382 -34.064  -3.780  1.00  0.00    -0.216 N 
HETATM   32  C6  UNL     1      19.731 -34.855  -2.722  1.00  0.00     0.142 C 
HETATM   33  C5  UNL     1      18.560 -34.085  -2.239  1.00  0.00     0.041 C 
HETATM   34  C4  UNL     1      18.406 -32.934  -3.203  1.00  0.00     0.060 C 
HETATM   35  C1  UNL     1      17.198 -33.048  -4.022  1.00  0.00     0.228 C 
HETATM   36  C3  UNL     1      18.196 -31.695  -2.397  1.00  0.00     0.041 C 
HETATM   37  C31 UNL     1      19.653 -32.874  -4.053  1.00  0.00     0.160 C 
HETATM   38  O1  UNL     1      16.906 -33.979  -4.819  1.00  0.00    -0.273 OA
HETATM   39  N1  UNL     1      16.348 -31.932  -3.808  1.00  0.00    -0.360 N 
HETATM   40  C2  UNL     1      17.127 -30.896  -3.120  1.00  0.00     0.124 C 
ATOM     41  H1  UNL     1      15.369 -31.862  -4.083  1.00  0.00     0.162 HD
ENDBRANCH   1  31
BRANCH   7  42
HETATM   42  N8  UNL     1      23.014 -37.508  -5.984  1.00  0.00    -0.214 N 
HETATM   43  C27 UNL     1      24.219 -37.913  -6.681  1.00  0.00     0.168 C 
HETATM   44  C28 UNL     1      23.835 -38.521  -8.010  1.00  0.00     0.252 C 
HETATM   45  N9  UNL     1      22.941 -39.638  -7.769  1.00  0.00    -0.072 N 
HETATM   46  C29 UNL     1      21.692 -39.063  -7.256  1.00  0.00     0.252 C 
ATOM     47  H92 UNL     1      22.807 -40.234  -8.586  1.00  0.00     0.277 HD
ATOM     48  H91 UNL     1      23.339 -40.352  -7.158  1.00  0.00     0.277 HD
HETATM   49  C30 UNL     1      21.960 -38.497  -5.869  1.00  0.00     0.168 C 
ENDBRANCH   7  42
TORSDOF 5
ENDMDL
MODEL 4
REMARK VINA RESULT: -8.725997855      2.496      5.410
REMARK  5 active torsions:
REMARK  status: ('A' for Active; 'I' for Inactive)
REMARK    1  A    between atoms: N2_10  and  C7_11 
REMARK    2  A    between atoms: C8_14  and  C9_15 
REMARK    3  A    between atoms: C12_18  and  N4_19 
REMARK    4  A    between atoms: N4_19  and  C13_20 
REMARK    5  A    between atoms: C26_38  and  N8_39 
ROOT
HETATM    1  C7  UNL     1      21.165 -34.677  -3.301  1.00  0.00     0.696 A 
HETATM    2  N3  UNL     1      21.274 -35.343  -4.463  1.00  0.00    -0.175 N 
ATOM      3  H3  UNL     1      20.466 -35.390  -5.084  1.00  0.00     0.186 HD
HETATM    4  C8  UNL     1      22.417 -35.948  -4.833  1.00  0.00     0.146 A 
HETATM    5  N7  UNL     1      23.464 -35.868  -4.000  1.00  0.00    -0.175 N 
ATOM      6  H7  UNL     1      24.336 -36.323  -4.270  1.00  0.00     0.186 HD
HETATM    7  C26 UNL     1      23.418 -35.218  -2.827  1.00  0.00     0.696 A 
HETATM    8  N10 UNL     1      22.249 -34.636  -2.517  1.00  0.00    -0.022 N 
ATOM      9  H10 UNL     1      22.182 -34.134  -1.632  1.00  0.00     0.203 HD
ENDROOT
BRANCH   4  10
HETATM   10  C9  UNL     1      22.475 -36.650  -6.108  1.00  0.00     0.009 A 
HETATM   11  C10 UNL     1      22.114 -35.997  -7.267  1.00  0.00     0.018 A 
HETATM   12  C11 UNL     1      22.147 -36.622  -8.470  1.00  0.00     0.045 A 
HETATM   13  C12 UNL     1      22.556 -37.986  -8.598  1.00  0.00     0.109 A 
HETATM   14  C24 UNL     1      22.914 -38.607  -7.391  1.00  0.00     0.045 A 
HETATM   15  C25 UNL     1      22.876 -37.963  -6.190  1.00  0.00     0.018 A 
BRANCH  13  16
HETATM   16  N4  UNL     1      22.572 -38.579  -9.770  1.00  0.00    -0.385 NA
BRANCH  16  17
HETATM   17  C13 UNL     1      22.593 -39.118 -10.829  1.00  0.00     0.207 A 
HETATM   18  N5  UNL     1      22.951 -40.449 -10.944  1.00  0.00    -0.327 N 
HETATM   19  C14 UNL     1      23.013 -41.109 -12.083  1.00  0.00     0.062 A 
ATOM     20  H5  UNL     1      23.183 -40.953 -10.089  1.00  0.00     0.168 HD
HETATM   21  C15 UNL     1      23.387 -42.453 -12.138  1.00  0.00     0.032 A 
HETATM   22  C19 UNL     1      22.697 -40.418 -13.229  1.00  0.00     0.066 A 
HETATM   23  C16 UNL     1      23.454 -43.130 -13.328  1.00  0.00     0.002 A 
HETATM   24  C17 UNL     1      23.137 -42.442 -14.484  1.00  0.00     0.002 A 
HETATM   25  C18 UNL     1      22.768 -41.112 -14.413  1.00  0.00     0.032 A 
HETATM   26  N6  UNL     1      22.337 -39.130 -13.225  1.00  0.00    -0.316 N 
HETATM   27  C20 UNL     1      21.986 -38.257 -14.200  1.00  0.00     0.098 A 
HETATM   28  C23 UNL     1      22.283 -38.483 -12.053  1.00  0.00     0.098 A 
HETATM   29  C21 UNL     1      21.697 -37.031 -13.678  1.00  0.00     0.020 A 
HETATM   30  C22 UNL     1      21.892 -37.187 -12.295  1.00  0.00     0.036 A 
ENDBRANCH  16  17
ENDBRANCH  13  16
ENDBRANCH   4  10
BRANCH   1  31
HETATM   31  N2  UNL     1      19.918 -34.070  -2.993  1.00  0.00    -0.216 N 
HETATM   32  C6  UNL     1      18.942 -34.796  -2.165  1.00  0.00     0.142 C 
HETATM   33  C5  UNL     1      17.782 -33.899  -1.946  1.00  0.00     0.041 C 
HETATM   34  C4  UNL     1      18.001 -32.721  -2.862  1.00  0.00     0.060 C 
HETATM   35  C1  UNL     1      17.029 -32.673  -3.955  1.00  0.00     0.228 C 
HETATM   36  C3  UNL     1      17.738 -31.481  -2.072  1.00  0.00     0.041 C 
HETATM   37  C31 UNL     1      19.418 -32.795  -3.379  1.00  0.00     0.160 C 
HETATM   38  O1  UNL     1      16.840 -33.546  -4.843  1.00  0.00    -0.273 OA
HETATM   39  N1  UNL     1      16.283 -31.466  -3.901  1.00  0.00    -0.360 N 
HETATM   40  C2  UNL     1      16.979 -30.546  -2.995  1.00  0.00     0.124 C 
ATOM     41  H1  UNL     1      15.416 -31.274  -4.402  1.00  0.00     0.162 HD
ENDBRANCH   1  31
BRANCH   7  42
HETATM   42  N8  UNL     1      24.547 -35.151  -1.966  1.00  0.00    -0.214 N 
HETATM   43  C27 UNL     1      24.872 -36.247  -1.075  1.00  0.00     0.168 C 
HETATM   44  C28 UNL     1      25.065 -35.703   0.321  1.00  0.00     0.252 C 
HETATM   45  N9  UNL     1      26.110 -34.697   0.288  1.00  0.00    -0.072 N 
HETATM   46  C29 UNL     1      25.567 -33.566  -0.472  1.00  0.00     0.252 C 
ATOM     47  H92 UNL     1      26.451 -34.437   1.214  1.00  0.00     0.277 HD
ATOM     48  H91 UNL     1      26.996 -35.045  -0.079  1.00  0.00     0.277 HD
HETATM   49  C30 UNL     1      25.420 -33.993  -1.925  1.00  0.00     0.168 C 
ENDBRANCH   7  42
TORSDOF 5
ENDMDL
MODEL 5
REMARK VINA RESULT: -8.646506652      4.641     12.003
REMARK  5 active torsions:
REMARK  status: ('A' for Active; 'I' for Inactive)
REMARK    1  A    between atoms: N2_10  and  C7_11 
REMARK    2  A    between atoms: C8_14  and  C9_15 
REMARK    3  A    between atoms: C12_18  and  N4_19 
REMARK    4  A    between atoms: N4_19  and  C13_20 
REMARK    5  A    between atoms: C26_38  and  N8_39 
ROOT
HETATM    1  C7  UNL     1      21.719 -34.096  -4.237  1.00  0.00     0.696 A 
HETATM    2  N3  UNL     1      22.639 -33.120  -4.324  1.00  0.00    -0.175 N 
ATOM      3  H3  UNL     1      22.400 -32.185  -3.992  1.00  0.00     0.186 HD
HETATM    4  C8  UNL     1      23.864 -33.338  -4.834  1.00  0.00     0.146 A 
HETATM    5  N7  UNL     1      24.152 -34.576  -5.261  1.00  0.00    -0.175 N 
ATOM      6  H7  UNL     1      25.078 -34.753  -5.649  1.00  0.00     0.186 HD
HETATM    7  C26 UNL     1      23.278 -35.592  -5.200  1.00  0.00     0.696 A 
HETATM    8  N10 UNL     1      22.072 -35.308  -4.681  1.00  0.00    -0.022 N 
ATOM      9  H10 UNL     1      21.386 -36.060  -4.622  1.00  0.00     0.203 HD
ENDROOT
BRANCH   4  10
HETATM   10  C9  UNL     1      24.820 -32.240  -4.897  1.00  0.00     0.009 A 
HETATM   11  C10 UNL     1      24.470 -31.063  -5.522  1.00  0.00     0.018 A 
HETATM   12  C11 UNL     1      25.337 -30.023  -5.607  1.00  0.00     0.045 A 
HETATM   13  C12 UNL     1      26.654 -30.095  -5.055  1.00  0.00     0.109 A 
HETATM   14  C24 UNL     1      26.962 -31.313  -4.430  1.00  0.00     0.045 A 
HETATM   15  C25 UNL     1      26.078 -32.348  -4.353  1.00  0.00     0.018 A 
BRANCH  13  16
HETATM   16  N4  UNL     1      27.484 -29.082  -5.157  1.00  0.00    -0.385 NA
BRANCH  16  17
HETATM   17  C13 UNL     1      28.230 -28.161  -5.247  1.00  0.00     0.207 A 
HETATM   18  N5  UNL     1      29.470 -28.304  -5.841  1.00  0.00    -0.327 N 
HETATM   19  C14 UNL     1      30.355 -27.335  -5.963  1.00  0.00     0.062 A 
ATOM     20  H5  UNL     1      29.716 -29.222  -6.211  1.00  0.00     0.168 HD
HETATM   21  C15 UNL     1      31.596 -27.540  -6.569  1.00  0.00     0.032 A 
HETATM   22  C19 UNL     1      30.011 -26.102  -5.461  1.00  0.00     0.066 A 
HETATM   23  C16 UNL     1      32.513 -26.528  -6.686  1.00  0.00     0.002 A 
HETATM   24  C17 UNL     1      32.173 -25.285  -6.185  1.00  0.00     0.002 A 
HETATM   25  C18 UNL     1      30.941 -25.098  -5.588  1.00  0.00     0.032 A 
HETATM   26  N6  UNL     1      28.837 -25.860  -4.870  1.00  0.00    -0.316 N 
HETATM   27  C20 UNL     1      28.283 -24.755  -4.314  1.00  0.00     0.098 A 
HETATM   28  C23 UNL     1      27.955 -26.863  -4.759  1.00  0.00     0.098 A 
HETATM   29  C21 UNL     1      27.034 -25.022  -3.835  1.00  0.00     0.020 A 
HETATM   30  C22 UNL     1      26.833 -26.382  -4.126  1.00  0.00     0.036 A 
ENDBRANCH  16  17
ENDBRANCH  13  16
ENDBRANCH   4  10
BRANCH   1  31
HETATM   31  N2  UNL     1      20.451 -33.772  -3.686  1.00  0.00    -0.216 N 
HETATM   32  C6  UNL     1      19.807 -34.706  -2.748  1.00  0.00     0.142 C 
HETATM   33  C5  UNL     1      18.547 -34.079  -2.281  1.00  0.00     0.041 C 
HETATM   34  C4  UNL     1      18.355 -32.861  -3.150  1.00  0.00     0.060 C 
HETATM   35  C1  UNL     1      17.213 -32.995  -4.057  1.00  0.00     0.228 C 
HETATM   36  C3  UNL     1      17.990 -31.722  -2.256  1.00  0.00     0.041 C 
HETATM   37  C31 UNL     1      19.641 -32.624  -3.905  1.00  0.00     0.160 C 
HETATM   38  O1  UNL     1      17.050 -33.869  -4.949  1.00  0.00    -0.273 OA
HETATM   39  N1  UNL     1      16.259 -31.974  -3.805  1.00  0.00    -0.360 N 
HETATM   40  C2  UNL     1      16.904 -30.948  -2.979  1.00  0.00     0.124 C 
ATOM     41  H1  UNL     1      15.296 -31.958  -4.139  1.00  0.00     0.162 HD
ENDBRANCH   1  31
BRANCH   7  42
HETATM   42  N8  UNL     1      23.613 -36.894  -5.661  1.00  0.00    -0.214 N 
HETATM   43  C27 UNL     1      24.994 -37.274  -5.883  1.00  0.00     0.168 C 
HETATM   44  C28 UNL     1      25.121 -37.872  -7.265  1.00  0.00     0.252 C 
HETATM   45  N9  UNL     1      24.219 -39.004  -7.367  1.00  0.00    -0.072 N 
HETATM   46  C29 UNL     1      22.860 -38.452  -7.331  1.00  0.00     0.252 C 
ATOM     47  H92 UNL     1      24.397 -39.592  -8.182  1.00  0.00     0.277 HD
ATOM     48  H91 UNL     1      24.385 -39.720  -6.658  1.00  0.00     0.277 HD
HETATM   49  C30 UNL     1      22.605 -37.899  -5.937  1.00  0.00     0.168 C 
ENDBRANCH   7  42
TORSDOF 5
ENDMDL
