MODEL 1
REMARK VINA RESULT: -10.272305010      0.000      0.000
REMARK  5 active torsions:
REMARK  status: ('A' for Active; 'I' for Inactive)
REMARK    1  A    between atoms: N1_1  and  C1_4 
REMARK    2  A    between atoms: C9_14  and  C10_15 
REMARK       I    between atoms: C10_15  and  N3_17 
REMARK    3  A    between atoms: N4_20  and  C13_21 
REMARK    4  A    between atoms: C21_35  and  C22_36 
REMARK    5  A    between atoms: N10_43  and  C25_45 
ROOT
HETATM    1  C13 UNL     1      21.395 -35.653  -6.399  1.00  0.00     0.119 C 
HETATM    2  N5  UNL     1      22.212 -36.762  -6.269  1.00  0.00    -0.326 N 
ATOM      3  H5  UNL     1      22.475 -37.049  -5.326  1.00  0.00     0.169 HD
HETATM    4  C14 UNL     1      22.691 -37.499  -7.312  1.00  0.00     0.135 A 
HETATM    5  N6  UNL     1      23.654 -38.433  -7.217  1.00  0.00    -0.284 N 
ATOM      6  H6  UNL     1      24.133 -38.699  -6.356  1.00  0.00     0.188 HD
HETATM    7  N7  UNL     1      23.885 -38.958  -8.419  1.00  0.00    -0.298 N 
ATOM      8  H7  UNL     1      24.570 -39.688  -8.617  1.00  0.00     0.187 HD
HETATM    9  C15 UNL     1      23.082 -38.384  -9.335  1.00  0.00     0.063 A 
HETATM   10  C16 UNL     1      22.871 -38.506 -10.693  1.00  0.00     0.032 A 
HETATM   11  C17 UNL     1      21.928 -37.719 -11.321  1.00  0.00     0.003 A 
HETATM   12  C18 UNL     1      21.161 -36.791 -10.640  1.00  0.00     0.012 A 
HETATM   13  C19 UNL     1      21.368 -36.670  -9.301  1.00  0.00    -0.019 A 
HETATM   14  C20 UNL     1      20.541 -35.708  -8.713  1.00  0.00     0.031 C 
HETATM   15  C21 UNL     1      20.445 -35.437  -7.333  1.00  0.00     0.053 C 
HETATM   16  C28 UNL     1      22.313 -37.447  -8.636  1.00  0.00     0.048 A 
ENDROOT
BRANCH   1  17
HETATM   17  N4  UNL     1      21.658 -34.664  -5.445  1.00  0.00    -0.363 N 
HETATM   18  C12 UNL     1      21.331 -34.929  -4.052  1.00  0.00     0.144 C 
HETATM   19  C11 UNL     1      22.483 -34.567  -3.140  1.00  0.00     0.146 C 
HETATM   20  N3  UNL     1      23.355 -33.556  -3.687  1.00  0.00    -0.345 N 
HETATM   21  C10 UNL     1      24.701 -33.494  -3.243  1.00  0.00     0.257 C 
HETATM   22  C30 UNL     1      22.810 -32.648  -4.666  1.00  0.00     0.146 C 
HETATM   23  O1  UNL     1      25.092 -34.326  -2.386  1.00  0.00    -0.267 OA
HETATM   24  C29 UNL     1      22.309 -33.445  -5.849  1.00  0.00     0.144 C 
BRANCH  21  25
HETATM   25  C9  UNL     1      25.670 -32.528  -3.716  1.00  0.00     0.076 A 
HETATM   26  C1  UNL     1      25.806 -31.341  -3.036  1.00  0.00     0.115 A 
HETATM   27  N2  UNL     1      26.694 -30.423  -3.446  1.00  0.00    -0.341 N 
HETATM   28  C2  UNL     1      27.483 -30.603  -4.518  1.00  0.00     0.044 A 
ATOM     29  H2  UNL     1      26.773 -29.551  -2.922  1.00  0.00     0.167 HD
HETATM   30  C3  UNL     1      28.362 -29.601  -4.860  1.00  0.00     0.030 A 
HETATM   31  C7  UNL     1      27.375 -31.781  -5.224  1.00  0.00    -0.008 A 
HETATM   32  C4  UNL     1      29.166 -29.798  -5.962  1.00  0.00     0.002 A 
HETATM   33  C5  UNL     1      29.080 -30.963  -6.688  1.00  0.00     0.001 A 
HETATM   34  C6  UNL     1      28.189 -31.951  -6.321  1.00  0.00     0.014 A 
HETATM   35  C8  UNL     1      26.472 -32.731  -4.817  1.00  0.00     0.034 A 
BRANCH  26  36
HETATM   36  N1  UNL     1      25.082 -31.097  -1.997  1.00  0.00    -0.385 N 
ATOM     37  H12 UNL     1      25.364 -30.380  -1.328  1.00  0.00     0.157 HD
ATOM     38  H11 UNL     1      24.224 -31.628  -1.852  1.00  0.00     0.157 HD
ENDBRANCH  26  36
ENDBRANCH  21  25
ENDBRANCH   1  17
BRANCH  15  39
HETATM   39  C22 UNL     1      19.201 -34.876  -6.859  1.00  0.00     0.136 A 
HETATM   40  N8  UNL     1      18.031 -35.353  -7.271  1.00  0.00    -0.337 N 
HETATM   41  C23 UNL     1      16.878 -34.846  -6.837  1.00  0.00     0.199 A 
ATOM     42  H8  UNL     1      18.015 -36.127  -7.935  1.00  0.00     0.168 HD
HETATM   43  N9  UNL     1      16.823 -33.833  -5.966  1.00  0.00    -0.188 N 
HETATM   44  C24 UNL     1      18.012 -33.341  -5.542  1.00  0.00     0.681 A 
ATOM     45  H9  UNL     1      15.935 -33.452  -5.639  1.00  0.00     0.185 HD
HETATM   46  N10 UNL     1      18.005 -32.379  -4.717  1.00  0.00    -0.217 N 
HETATM   47  N11 UNL     1      19.161 -33.854  -5.981  1.00  0.00    -0.176 N 
ATOM     48  H10 UNL     1      18.912 -32.028  -4.413  1.00  0.00     0.178 HD
ATOM     49  H11 UNL     1      20.039 -33.461  -5.641  1.00  0.00     0.186 HD
BRANCH  46  50
HETATM   50  C25 UNL     1      16.848 -31.737  -4.170  1.00  0.00     0.147 C 
HETATM   51  C26 UNL     1      16.456 -32.132  -2.788  1.00  0.00     0.195 C 
HETATM   52  O2  UNL     1      16.121 -30.803  -2.528  1.00  0.00    -0.387 OA
HETATM   53  C27 UNL     1      17.048 -30.422  -3.496  1.00  0.00     0.195 C 
ENDBRANCH  46  50
ENDBRANCH  15  39
TORSDOF 5
ENDMDL
MODEL 2
REMARK VINA RESULT: -10.011229680      3.012      8.697
REMARK  5 active torsions:
REMARK  status: ('A' for Active; 'I' for Inactive)
REMARK    1  A    between atoms: N1_1  and  C1_4 
REMARK    2  A    between atoms: C9_14  and  C10_15 
REMARK       I    between atoms: C10_15  and  N3_17 
REMARK    3  A    between atoms: N4_20  and  C13_21 
REMARK    4  A    between atoms: C21_35  and  C22_36 
REMARK    5  A    between atoms: N10_43  and  C25_45 
ROOT
HETATM    1  C13 UNL     1      26.998 -30.513  -6.119  1.00  0.00     0.119 C 
HETATM    2  N5  UNL     1      27.714 -29.714  -6.992  1.00  0.00    -0.326 N 
ATOM      3  H5  UNL     1      27.955 -30.106  -7.903  1.00  0.00     0.169 HD
HETATM    4  C14 UNL     1      28.123 -28.442  -6.722  1.00  0.00     0.135 A 
HETATM    5  N6  UNL     1      29.000 -27.741  -7.463  1.00  0.00    -0.284 N 
ATOM      6  H6  UNL     1      29.457 -28.079  -8.310  1.00  0.00     0.188 HD
HETATM    7  N7  UNL     1      29.180 -26.537  -6.920  1.00  0.00    -0.298 N 
ATOM      8  H7  UNL     1      29.797 -25.815  -7.290  1.00  0.00     0.187 HD
HETATM    9  C15 UNL     1      28.426 -26.416  -5.810  1.00  0.00     0.063 A 
HETATM   10  C16 UNL     1      28.200 -25.440  -4.860  1.00  0.00     0.032 A 
HETATM   11  C17 UNL     1      27.327 -25.677  -3.819  1.00  0.00     0.003 A 
HETATM   12  C18 UNL     1      26.648 -26.873  -3.675  1.00  0.00     0.012 A 
HETATM   13  C19 UNL     1      26.870 -27.836  -4.611  1.00  0.00    -0.019 A 
HETATM   14  C20 UNL     1      26.133 -29.000  -4.372  1.00  0.00     0.031 C 
HETATM   15  C21 UNL     1      26.066 -30.121  -5.223  1.00  0.00     0.053 C 
HETATM   16  C28 UNL     1      27.745 -27.630  -5.674  1.00  0.00     0.048 A 
ENDROOT
BRANCH   1  17
HETATM   17  N4  UNL     1      27.350 -31.865  -6.196  1.00  0.00    -0.363 N 
HETATM   18  C12 UNL     1      28.213 -32.424  -5.165  1.00  0.00     0.144 C 
HETATM   19  C11 UNL     1      27.660 -33.729  -4.637  1.00  0.00     0.146 C 
HETATM   20  N3  UNL     1      26.813 -34.420  -5.580  1.00  0.00    -0.345 N 
HETATM   21  C10 UNL     1      25.833 -35.323  -5.092  1.00  0.00     0.257 C 
HETATM   22  C30 UNL     1      27.008 -34.158  -6.985  1.00  0.00     0.146 C 
HETATM   23  O1  UNL     1      25.732 -35.491  -3.850  1.00  0.00    -0.267 OA
HETATM   24  C29 UNL     1      26.796 -32.683  -7.242  1.00  0.00     0.144 C 
BRANCH  21  25
HETATM   25  C9  UNL     1      24.926 -36.073  -5.935  1.00  0.00     0.076 A 
HETATM   26  C1  UNL     1      25.287 -37.338  -6.332  1.00  0.00     0.115 A 
HETATM   27  N2  UNL     1      24.472 -38.062  -7.115  1.00  0.00    -0.341 N 
HETATM   28  C2  UNL     1      23.284 -37.605  -7.545  1.00  0.00     0.044 A 
ATOM     29  H2  UNL     1      24.765 -38.999  -7.393  1.00  0.00     0.167 HD
HETATM   30  C3  UNL     1      22.520 -38.423  -8.346  1.00  0.00     0.030 A 
HETATM   31  C7  UNL     1      22.890 -36.341  -7.168  1.00  0.00    -0.008 A 
HETATM   32  C4  UNL     1      21.304 -37.942  -8.783  1.00  0.00     0.002 A 
HETATM   33  C5  UNL     1      20.883 -36.683  -8.423  1.00  0.00     0.001 A 
HETATM   34  C6  UNL     1      21.672 -35.885  -7.619  1.00  0.00     0.014 A 
HETATM   35  C8  UNL     1      23.712 -35.588  -6.368  1.00  0.00     0.034 A 
BRANCH  26  36
HETATM   36  N1  UNL     1      26.413 -37.844  -5.958  1.00  0.00    -0.385 N 
ATOM     37  H12 UNL     1      26.540 -38.856  -5.926  1.00  0.00     0.157 HD
ATOM     38  H11 UNL     1      27.176 -37.221  -5.693  1.00  0.00     0.157 HD
ENDBRANCH  26  36
ENDBRANCH  21  25
ENDBRANCH   1  17
BRANCH  15  39
HETATM   39  C22 UNL     1      24.879 -30.939  -5.140  1.00  0.00     0.136 A 
HETATM   40  N8  UNL     1      23.903 -30.826  -6.035  1.00  0.00    -0.337 N 
HETATM   41  C23 UNL     1      22.806 -31.579  -5.970  1.00  0.00     0.199 A 
ATOM     42  H8  UNL     1      23.997 -30.147  -6.790  1.00  0.00     0.168 HD
HETATM   43  N9  UNL     1      22.616 -32.489  -5.009  1.00  0.00    -0.188 N 
HETATM   44  C24 UNL     1      23.606 -32.609  -4.093  1.00  0.00     0.681 A 
ATOM     45  H9  UNL     1      21.772 -33.061  -4.969  1.00  0.00     0.185 HD
HETATM   46  N10 UNL     1      23.466 -33.460  -3.164  1.00  0.00    -0.217 N 
HETATM   47  N11 UNL     1      24.701 -31.853  -4.165  1.00  0.00    -0.176 N 
ATOM     48  H10 UNL     1      24.225 -33.531  -2.488  1.00  0.00     0.178 HD
ATOM     49  H11 UNL     1      25.429 -31.969  -3.460  1.00  0.00     0.186 HD
BRANCH  46  50
HETATM   50  C25 UNL     1      22.346 -34.329  -2.970  1.00  0.00     0.147 C 
HETATM   51  C26 UNL     1      22.478 -35.364  -1.907  1.00  0.00     0.195 C 
HETATM   52  O2  UNL     1      21.141 -35.155  -1.569  1.00  0.00    -0.387 OA
HETATM   53  C27 UNL     1      21.260 -33.858  -2.063  1.00  0.00     0.195 C 
ENDBRANCH  46  50
ENDBRANCH  15  39
TORSDOF 5
ENDMDL
MODEL 3
REMARK VINA RESULT: -9.875868482      1.856      2.792
REMARK  5 active torsions:
REMARK  status: ('A' for Active; 'I' for Inactive)
REMARK    1  A    between atoms: N1_1  and  C1_4 
REMARK    2  A    between atoms: C9_14  and  C10_15 
REMARK       I    between atoms: C10_15  and  N3_17 
REMARK    3  A    between atoms: N4_20  and  C13_21 
REMARK    4  A    between atoms: C21_35  and  C22_36 
REMARK    5  A    between atoms: N10_43  and  C25_45 
ROOT
HETATM    1  C13 UNL     1      22.462 -35.528  -4.923  1.00  0.00     0.119 C 
HETATM    2  N5  UNL     1      23.144 -36.668  -5.309  1.00  0.00    -0.326 N 
ATOM      3  H5  UNL     1      23.746 -37.117  -4.618  1.00  0.00     0.169 HD
HETATM    4  C14 UNL     1      23.070 -37.234  -6.548  1.00  0.00     0.135 A 
HETATM    5  N6  UNL     1      23.887 -38.201  -7.003  1.00  0.00    -0.284 N 
ATOM      6  H6  UNL     1      24.652 -38.622  -6.475  1.00  0.00     0.188 HD
HETATM    7  N7  UNL     1      23.544 -38.525  -8.249  1.00  0.00    -0.298 N 
ATOM      8  H7  UNL     1      24.008 -39.231  -8.819  1.00  0.00     0.187 HD
HETATM    9  C15 UNL     1      22.494 -37.780  -8.645  1.00  0.00     0.063 A 
HETATM   10  C16 UNL     1      21.726 -37.667  -9.786  1.00  0.00     0.032 A 
HETATM   11  C17 UNL     1      20.690 -36.758  -9.835  1.00  0.00     0.003 A 
HETATM   12  C18 UNL     1      20.372 -35.933  -8.772  1.00  0.00     0.012 A 
HETATM   13  C19 UNL     1      21.129 -36.044  -7.646  1.00  0.00    -0.019 A 
HETATM   14  C20 UNL     1      20.721 -35.169  -6.635  1.00  0.00     0.031 C 
HETATM   15  C21 UNL     1      21.235 -35.129  -5.323  1.00  0.00     0.053 C 
HETATM   16  C28 UNL     1      22.182 -36.950  -7.563  1.00  0.00     0.048 A 
ENDROOT
BRANCH   1  17
HETATM   17  N4  UNL     1      23.194 -34.721  -4.046  1.00  0.00    -0.363 N 
HETATM   18  C12 UNL     1      24.123 -35.354  -3.122  1.00  0.00     0.144 C 
HETATM   19  C11 UNL     1      25.469 -34.662  -3.138  1.00  0.00     0.146 C 
HETATM   20  N3  UNL     1      25.401 -33.279  -3.547  1.00  0.00    -0.345 N 
HETATM   21  C10 UNL     1      26.551 -32.671  -4.112  1.00  0.00     0.257 C 
HETATM   22  C30 UNL     1      24.156 -32.576  -3.358  1.00  0.00     0.146 C 
HETATM   23  O1  UNL     1      27.596 -33.359  -4.241  1.00  0.00    -0.267 OA
HETATM   24  C29 UNL     1      23.068 -33.289  -4.128  1.00  0.00     0.144 C 
BRANCH  21  25
HETATM   25  C9  UNL     1      26.608 -31.295  -4.560  1.00  0.00     0.076 A 
HETATM   26  C1  UNL     1      26.646 -31.041  -5.910  1.00  0.00     0.115 A 
HETATM   27  N2  UNL     1      26.699 -29.778  -6.361  1.00  0.00    -0.341 N 
HETATM   28  C2  UNL     1      26.717 -28.714  -5.541  1.00  0.00     0.044 A 
ATOM     29  H2  UNL     1      26.726 -29.619  -7.368  1.00  0.00     0.167 HD
HETATM   30  C3  UNL     1      26.774 -27.458  -6.100  1.00  0.00     0.030 A 
HETATM   31  C7  UNL     1      26.681 -28.931  -4.182  1.00  0.00    -0.008 A 
HETATM   32  C4  UNL     1      26.794 -26.374  -5.248  1.00  0.00     0.002 A 
HETATM   33  C5  UNL     1      26.758 -26.559  -3.885  1.00  0.00     0.001 A 
HETATM   34  C6  UNL     1      26.702 -27.832  -3.353  1.00  0.00     0.014 A 
HETATM   35  C8  UNL     1      26.626 -30.216  -3.704  1.00  0.00     0.034 A 
BRANCH  26  36
HETATM   36  N1  UNL     1      26.631 -32.012  -6.758  1.00  0.00    -0.385 N 
ATOM     37  H12 UNL     1      27.205 -31.971  -7.601  1.00  0.00     0.157 HD
ATOM     38  H11 UNL     1      26.040 -32.823  -6.577  1.00  0.00     0.157 HD
ENDBRANCH  26  36
ENDBRANCH  21  25
ENDBRANCH   1  17
BRANCH  15  39
HETATM   39  C22 UNL     1      20.364 -34.617  -4.291  1.00  0.00     0.136 A 
HETATM   40  N8  UNL     1      20.290 -35.204  -3.101  1.00  0.00    -0.337 N 
HETATM   41  C23 UNL     1      19.492 -34.738  -2.141  1.00  0.00     0.199 A 
ATOM     42  H8  UNL     1      20.857 -36.032  -2.918  1.00  0.00     0.168 HD
HETATM   43  N9  UNL     1      18.723 -33.658  -2.310  1.00  0.00    -0.188 N 
HETATM   44  C24 UNL     1      18.793 -33.054  -3.521  1.00  0.00     0.681 A 
ATOM     45  H9  UNL     1      18.116 -33.308  -1.568  1.00  0.00     0.185 HD
HETATM   46  N10 UNL     1      18.078 -32.028  -3.723  1.00  0.00    -0.217 N 
HETATM   47  N11 UNL     1      19.593 -33.527  -4.476  1.00  0.00    -0.176 N 
ATOM     48  H10 UNL     1      18.150 -31.592  -4.642  1.00  0.00     0.178 HD
ATOM     49  H11 UNL     1      19.624 -33.049  -5.376  1.00  0.00     0.186 HD
BRANCH  46  50
HETATM   50  C25 UNL     1      17.180 -31.420  -2.789  1.00  0.00     0.147 C 
HETATM   51  C26 UNL     1      16.952 -29.955  -2.937  1.00  0.00     0.195 C 
HETATM   52  O2  UNL     1      15.609 -30.155  -2.619  1.00  0.00    -0.387 OA
HETATM   53  C27 UNL     1      15.725 -31.452  -3.116  1.00  0.00     0.195 C 
ENDBRANCH  46  50
ENDBRANCH  15  39
TORSDOF 5
ENDMDL
MODEL 4
REMARK VINA RESULT: -9.854385661      0.890      1.362
REMARK  5 active torsions:
REMARK  status: ('A' for Active; 'I' for Inactive)
REMARK    1  A    between atoms: N1_1  and  C1_4 
REMARK    2  A    between atoms: C9_14  and  C10_15 
REMARK       I    between atoms: C10_15  and  N3_17 
REMARK    3  A    between atoms: N4_20  and  C13_21 
REMARK    4  A    between atoms: C21_35  and  C22_36 
REMARK    5  A    between atoms: N10_43  and  C25_45 
ROOT
HETATM    1  C13 UNL     1      21.476 -35.710  -6.443  1.00  0.00     0.119 C 
HETATM    2  N5  UNL     1      22.298 -36.815  -6.318  1.00  0.00    -0.326 N 
ATOM      3  H5  UNL     1      22.571 -37.099  -5.377  1.00  0.00     0.169 HD
HETATM    4  C14 UNL     1      22.771 -37.553  -7.363  1.00  0.00     0.135 A 
HETATM    5  N6  UNL     1      23.738 -38.483  -7.274  1.00  0.00    -0.284 N 
ATOM      6  H6  UNL     1      24.227 -38.744  -6.417  1.00  0.00     0.188 HD
HETATM    7  N7  UNL     1      23.961 -39.011  -8.477  1.00  0.00    -0.298 N 
ATOM      8  H7  UNL     1      24.647 -39.738  -8.679  1.00  0.00     0.187 HD
HETATM    9  C15 UNL     1      23.147 -38.442  -9.387  1.00  0.00     0.063 A 
HETATM   10  C16 UNL     1      22.924 -38.570 -10.743  1.00  0.00     0.032 A 
HETATM   11  C17 UNL     1      21.972 -37.789 -11.364  1.00  0.00     0.003 A 
HETATM   12  C18 UNL     1      21.208 -36.862 -10.679  1.00  0.00     0.012 A 
HETATM   13  C19 UNL     1      21.426 -36.736  -9.342  1.00  0.00    -0.019 A 
HETATM   14  C20 UNL     1      20.600 -35.776  -8.750  1.00  0.00     0.031 C 
HETATM   15  C21 UNL     1      20.516 -35.501  -7.370  1.00  0.00     0.053 C 
HETATM   16  C28 UNL     1      22.380 -37.507  -8.684  1.00  0.00     0.048 A 
ENDROOT
BRANCH   1  17
HETATM   17  N4  UNL     1      21.743 -34.717  -5.495  1.00  0.00    -0.363 N 
HETATM   18  C12 UNL     1      21.460 -34.991  -4.094  1.00  0.00     0.144 C 
HETATM   19  C11 UNL     1      22.629 -34.606  -3.214  1.00  0.00     0.146 C 
HETATM   20  N3  UNL     1      23.464 -33.575  -3.783  1.00  0.00    -0.345 N 
HETATM   21  C10 UNL     1      24.819 -33.485  -3.375  1.00  0.00     0.257 C 
HETATM   22  C30 UNL     1      22.872 -32.677  -4.744  1.00  0.00     0.146 C 
HETATM   23  O1  UNL     1      25.253 -34.309  -2.532  1.00  0.00    -0.267 OA
HETATM   24  C29 UNL     1      22.356 -33.483  -5.914  1.00  0.00     0.144 C 
BRANCH  21  25
HETATM   25  C9  UNL     1      25.754 -32.497  -3.873  1.00  0.00     0.076 A 
HETATM   26  C1  UNL     1      26.873 -32.926  -4.545  1.00  0.00     0.115 A 
HETATM   27  N2  UNL     1      27.761 -32.038  -5.020  1.00  0.00    -0.341 N 
HETATM   28  C2  UNL     1      27.613 -30.711  -4.869  1.00  0.00     0.044 A 
ATOM     29  H2  UNL     1      28.583 -32.385  -5.515  1.00  0.00     0.167 HD
HETATM   30  C3  UNL     1      28.580 -29.883  -5.391  1.00  0.00     0.030 A 
HETATM   31  C7  UNL     1      26.504 -30.245  -4.200  1.00  0.00    -0.008 A 
HETATM   32  C4  UNL     1      28.417 -28.523  -5.229  1.00  0.00     0.002 A 
HETATM   33  C5  UNL     1      27.319 -28.026  -4.565  1.00  0.00     0.001 A 
HETATM   34  C6  UNL     1      26.366 -28.883  -4.053  1.00  0.00     0.014 A 
HETATM   35  C8  UNL     1      25.586 -31.139  -3.709  1.00  0.00     0.034 A 
BRANCH  26  36
HETATM   36  N1  UNL     1      27.083 -34.185  -4.728  1.00  0.00    -0.385 N 
ATOM     37  H12 UNL     1      27.813 -34.669  -4.204  1.00  0.00     0.157 HD
ATOM     38  H11 UNL     1      26.510 -34.692  -5.402  1.00  0.00     0.157 HD
ENDBRANCH  26  36
ENDBRANCH  21  25
ENDBRANCH   1  17
BRANCH  15  39
HETATM   39  C22 UNL     1      19.274 -34.944  -6.886  1.00  0.00     0.136 A 
HETATM   40  N8  UNL     1      18.103 -35.417  -7.297  1.00  0.00    -0.337 N 
HETATM   41  C23 UNL     1      16.952 -34.913  -6.854  1.00  0.00     0.199 A 
ATOM     42  H8  UNL     1      18.084 -36.185  -7.968  1.00  0.00     0.168 HD
HETATM   43  N9  UNL     1      16.901 -33.908  -5.974  1.00  0.00    -0.188 N 
HETATM   44  C24 UNL     1      18.091 -33.420  -5.550  1.00  0.00     0.681 A 
ATOM     45  H9  UNL     1      16.014 -33.529  -5.640  1.00  0.00     0.185 HD
HETATM   46  N10 UNL     1      18.087 -32.466  -4.717  1.00  0.00    -0.217 N 
HETATM   47  N11 UNL     1      19.238 -33.930  -5.999  1.00  0.00    -0.176 N 
ATOM     48  H10 UNL     1      18.996 -32.117  -4.414  1.00  0.00     0.178 HD
ATOM     49  H11 UNL     1      20.118 -33.540  -5.659  1.00  0.00     0.186 HD
BRANCH  46  50
HETATM   50  C25 UNL     1      16.933 -31.828  -4.160  1.00  0.00     0.147 C 
HETATM   51  C26 UNL     1      16.581 -32.191  -2.759  1.00  0.00     0.195 C 
HETATM   52  O2  UNL     1      16.229 -30.860  -2.527  1.00  0.00    -0.387 OA
HETATM   53  C27 UNL     1      17.126 -30.491  -3.528  1.00  0.00     0.195 C 
ENDBRANCH  46  50
ENDBRANCH  15  39
TORSDOF 5
ENDMDL
MODEL 5
REMARK VINA RESULT: -9.659259786      2.936      8.786
REMARK  5 active torsions:
REMARK  status: ('A' for Active; 'I' for Inactive)
REMARK    1  A    between atoms: N1_1  and  C1_4 
REMARK    2  A    between atoms: C9_14  and  C10_15 
REMARK       I    between atoms: C10_15  and  N3_17 
REMARK    3  A    between atoms: N4_20  and  C13_21 
REMARK    4  A    between atoms: C21_35  and  C22_36 
REMARK    5  A    between atoms: N10_43  and  C25_45 
ROOT
HETATM    1  C13 UNL     1      26.364 -30.396  -5.793  1.00  0.00     0.119 C 
HETATM    2  N5  UNL     1      26.168 -29.627  -6.926  1.00  0.00    -0.326 N 
ATOM      3  H5  UNL     1      25.830 -30.098  -7.766  1.00  0.00     0.169 HD
HETATM    4  C14 UNL     1      26.396 -28.285  -7.001  1.00  0.00     0.135 A 
HETATM    5  N6  UNL     1      26.424 -27.571  -8.140  1.00  0.00    -0.284 N 
ATOM      6  H6  UNL     1      26.276 -27.950  -9.076  1.00  0.00     0.188 HD
HETATM    7  N7  UNL     1      26.675 -26.292  -7.859  1.00  0.00    -0.298 N 
ATOM      8  H7  UNL     1      26.748 -25.545  -8.550  1.00  0.00     0.187 HD
HETATM    9  C15 UNL     1      26.818 -26.133  -6.530  1.00  0.00     0.063 A 
HETATM   10  C16 UNL     1      27.078 -25.082  -5.674  1.00  0.00     0.032 A 
HETATM   11  C17 UNL     1      27.159 -25.301  -4.315  1.00  0.00     0.003 A 
HETATM   12  C18 UNL     1      26.985 -26.551  -3.751  1.00  0.00     0.012 A 
HETATM   13  C19 UNL     1      26.728 -27.588  -4.593  1.00  0.00    -0.019 A 
HETATM   14  C20 UNL     1      26.567 -28.803  -3.920  1.00  0.00     0.031 C 
HETATM   15  C21 UNL     1      26.184 -30.026  -4.507  1.00  0.00     0.053 C 
HETATM   16  C28 UNL     1      26.642 -27.403  -5.970  1.00  0.00     0.048 A 
ENDROOT
BRANCH   1  17
HETATM   17  N4  UNL     1      26.835 -31.682  -6.077  1.00  0.00    -0.363 N 
HETATM   18  C12 UNL     1      27.889 -32.242  -5.243  1.00  0.00     0.144 C 
HETATM   19  C11 UNL     1      27.552 -33.651  -4.807  1.00  0.00     0.146 C 
HETATM   20  N3  UNL     1      26.652 -34.333  -5.706  1.00  0.00    -0.345 N 
HETATM   21  C10 UNL     1      25.849 -35.390  -5.205  1.00  0.00     0.257 C 
HETATM   22  C30 UNL     1      26.616 -33.904  -7.083  1.00  0.00     0.146 C 
HETATM   23  O1  UNL     1      25.945 -35.698  -3.991  1.00  0.00    -0.267 OA
HETATM   24  C29 UNL     1      26.222 -32.446  -7.132  1.00  0.00     0.144 C 
BRANCH  21  25
HETATM   25  C9  UNL     1      24.911 -36.148  -6.006  1.00  0.00     0.076 A 
HETATM   26  C1  UNL     1      25.297 -37.373  -6.494  1.00  0.00     0.115 A 
HETATM   27  N2  UNL     1      24.454 -38.103  -7.241  1.00  0.00    -0.341 N 
HETATM   28  C2  UNL     1      23.213 -37.690  -7.548  1.00  0.00     0.044 A 
ATOM     29  H2  UNL     1      24.768 -39.009  -7.589  1.00  0.00     0.167 HD
HETATM   30  C3  UNL     1      22.424 -38.511  -8.321  1.00  0.00     0.030 A 
HETATM   31  C7  UNL     1      22.791 -36.467  -7.076  1.00  0.00    -0.008 A 
HETATM   32  C4  UNL     1      21.152 -38.075  -8.630  1.00  0.00     0.002 A 
HETATM   33  C5  UNL     1      20.702 -36.858  -8.174  1.00  0.00     0.001 A 
HETATM   34  C6  UNL     1      21.518 -36.057  -7.400  1.00  0.00     0.014 A 
HETATM   35  C8  UNL     1      23.641 -35.708  -6.311  1.00  0.00     0.034 A 
BRANCH  26  36
HETATM   36  N1  UNL     1      26.474 -37.835  -6.241  1.00  0.00    -0.385 N 
ATOM     37  H12 UNL     1      27.122 -38.045  -7.001  1.00  0.00     0.157 HD
ATOM     38  H11 UNL     1      26.751 -37.988  -5.271  1.00  0.00     0.157 HD
ENDBRANCH  26  36
ENDBRANCH  21  25
ENDBRANCH   1  17
BRANCH  15  39
HETATM   39  C22 UNL     1      25.524 -30.986  -3.654  1.00  0.00     0.136 A 
HETATM   40  N8  UNL     1      25.948 -31.208  -2.413  1.00  0.00    -0.337 N 
HETATM   41  C23 UNL     1      25.344 -32.088  -1.617  1.00  0.00     0.199 A 
ATOM     42  H8  UNL     1      26.755 -30.692  -2.063  1.00  0.00     0.168 HD
HETATM   43  N9  UNL     1      24.281 -32.798  -2.008  1.00  0.00    -0.188 N 
HETATM   44  C24 UNL     1      23.843 -32.578  -3.271  1.00  0.00     0.681 A 
ATOM     45  H9  UNL     1      23.825 -33.470  -1.390  1.00  0.00     0.185 HD
HETATM   46  N10 UNL     1      22.839 -33.232  -3.682  1.00  0.00    -0.217 N 
HETATM   47  N11 UNL     1      24.454 -31.695  -4.062  1.00  0.00    -0.176 N 
ATOM     48  H10 UNL     1      22.530 -33.046  -4.636  1.00  0.00     0.178 HD
ATOM     49  H11 UNL     1      24.098 -31.551  -5.007  1.00  0.00     0.186 HD
BRANCH  46  50
HETATM   50  C25 UNL     1      22.097 -34.205  -2.940  1.00  0.00     0.147 C 
HETATM   51  C26 UNL     1      20.798 -33.758  -2.365  1.00  0.00     0.195 C 
HETATM   52  O2  UNL     1      20.255 -35.004  -2.679  1.00  0.00    -0.387 OA
HETATM   53  C27 UNL     1      21.190 -35.107  -3.708  1.00  0.00     0.195 C 
ENDBRANCH  46  50
ENDBRANCH  15  39
TORSDOF 5
ENDMDL
