MODEL 1
REMARK VINA RESULT: -6.772131068      0.000      0.000
REMARK  4 active torsions:
REMARK  status: ('A' for Active; 'I' for Inactive)
REMARK    1  A    between atoms: C4_5  and  C5_6 
REMARK    2  A    between atoms: C7_11  and  S2_12 
REMARK    3  A    between atoms: S2_12  and  C8_13 
REMARK    4  A    between atoms: C11_18  and  S3_19 
ROOT
HETATM    1  C5  UNL     1      34.515   7.533  24.259  1.00  0.00     0.074 A 
HETATM    2  C6  UNL     1      35.185   7.000  23.142  1.00  0.00     0.134 A 
HETATM    3  N1  UNL     1      35.272   7.735  21.945  1.00  0.00    -0.082 NA
HETATM    4  N2  UNL     1      35.729   5.784  23.242  1.00  0.00    -0.324 N 
ATOM      5  H2  UNL     1      36.217   5.393  22.436  1.00  0.00     0.169 HD
HETATM    6  C7  UNL     1      35.654   5.060  24.369  1.00  0.00     0.146 A 
HETATM    7  N3  UNL     1      35.020   5.597  25.391  1.00  0.00    -0.330 N 
ATOM      8  H3  UNL     1      34.960   5.050  26.249  1.00  0.00     0.168 HD
HETATM    9  C11 UNL     1      34.422   6.861  25.388  1.00  0.00     0.103 A 
ENDROOT
BRANCH   1  10
HETATM   10  C4  UNL     1      33.898   8.862  24.034  1.00  0.00     0.090 A 
HETATM   11  S1  UNL     1      32.185   9.173  24.094  1.00  0.00    -0.081 SA
HETATM   12  C3  UNL     1      32.202  10.865  23.929  1.00  0.00     0.076 A 
HETATM   13  C2  UNL     1      33.544  11.100  23.836  1.00  0.00     0.012 A 
HETATM   14  C1  UNL     1      34.061  12.520  23.671  1.00  0.00     0.068 C 
HETATM   15  N4  UNL     1      34.338  10.077  23.892  1.00  0.00    -0.353 N 
ATOM     16  H4  UNL     1      35.344  10.231  23.823  1.00  0.00     0.166 HD
ENDBRANCH   1  10
BRANCH   9  17
HETATM   17  S3  UNL     1      33.884   7.362  26.831  1.00  0.00    -0.000 SA
HETATM   18 CL1  UNL     1      31.918   7.664  27.410  1.00  0.00    -0.037 Cl
ENDBRANCH   9  17
BRANCH   6  19
HETATM   19  S2  UNL     1      36.362   3.435  24.557  1.00  0.00    -0.090 SA
BRANCH  19  20
HETATM   20  C8  UNL     1      38.140   3.439  24.288  1.00  0.00     0.047 C 
HETATM   21  C9  UNL     1      38.824   2.598  25.350  1.00  0.00     0.021 C 
HETATM   22  C10 UNL     1      38.490   2.826  22.949  1.00  0.00     0.021 C 
ENDBRANCH  19  20
ENDBRANCH   6  19
TORSDOF 4
ENDMDL
MODEL 2
REMARK VINA RESULT: -6.612536590      2.703      7.147
REMARK  4 active torsions:
REMARK  status: ('A' for Active; 'I' for Inactive)
REMARK    1  A    between atoms: C4_5  and  C5_6 
REMARK    2  A    between atoms: C7_11  and  S2_12 
REMARK    3  A    between atoms: S2_12  and  C8_13 
REMARK    4  A    between atoms: C11_18  and  S3_19 
ROOT
HETATM    1  C5  UNL     1      35.049   6.070  23.999  1.00  0.00     0.074 A 
HETATM    2  C6  UNL     1      34.419   6.438  25.202  1.00  0.00     0.134 A 
HETATM    3  N1  UNL     1      34.518   5.615  26.339  1.00  0.00    -0.082 NA
HETATM    4  N2  UNL     1      33.721   7.577  25.237  1.00  0.00    -0.324 N 
ATOM      5  H2  UNL     1      33.263   7.849  26.107  1.00  0.00     0.169 HD
HETATM    6  C7  UNL     1      33.604   8.374  24.165  1.00  0.00     0.146 A 
HETATM    7  N3  UNL     1      34.212   7.995  23.059  1.00  0.00    -0.330 N 
ATOM      8  H3  UNL     1      34.125   8.598  22.242  1.00  0.00     0.168 HD
HETATM    9  C11 UNL     1      34.967   6.826  22.922  1.00  0.00     0.103 A 
ENDROOT
BRANCH   1  10
HETATM   10  C4  UNL     1      35.751   4.766  24.041  1.00  0.00     0.090 A 
HETATM   11  S1  UNL     1      35.130   3.291  23.352  1.00  0.00    -0.081 SA
HETATM   12  C3  UNL     1      36.473   2.279  23.599  1.00  0.00     0.076 A 
HETATM   13  C2  UNL     1      37.337   3.144  24.208  1.00  0.00     0.012 A 
HETATM   14  C1  UNL     1      38.718   2.671  24.631  1.00  0.00     0.068 C 
HETATM   15  N4  UNL     1      36.932   4.359  24.404  1.00  0.00    -0.353 N 
ATOM     16  H4  UNL     1      37.562   5.020  24.858  1.00  0.00     0.166 HD
ENDBRANCH   1  10
BRANCH   9  17
HETATM   17  S3  UNL     1      35.770   6.696  21.522  1.00  0.00    -0.000 SA
HETATM   18 CL1  UNL     1      36.487   8.231  20.330  1.00  0.00    -0.037 Cl
ENDBRANCH   9  17
BRANCH   6  19
HETATM   19  S2  UNL     1      32.688   9.904  24.158  1.00  0.00    -0.090 SA
BRANCH  19  20
HETATM   20  C8  UNL     1      30.966   9.661  24.611  1.00  0.00     0.047 C 
HETATM   21  C9  UNL     1      30.790   9.876  26.103  1.00  0.00     0.021 C 
HETATM   22  C10 UNL     1      30.071  10.664  23.914  1.00  0.00     0.021 C 
ENDBRANCH  19  20
ENDBRANCH   6  19
TORSDOF 4
ENDMDL
MODEL 3
REMARK VINA RESULT: -6.590964632      4.563      7.661
REMARK  4 active torsions:
REMARK  status: ('A' for Active; 'I' for Inactive)
REMARK    1  A    between atoms: C4_5  and  C5_6 
REMARK    2  A    between atoms: C7_11  and  S2_12 
REMARK    3  A    between atoms: S2_12  and  C8_13 
REMARK    4  A    between atoms: C11_18  and  S3_19 
ROOT
HETATM    1  C5  UNL     1      31.611   8.724  26.018  1.00  0.00     0.074 A 
HETATM    2  C6  UNL     1      30.719   9.710  26.480  1.00  0.00     0.134 A 
HETATM    3  N1  UNL     1      30.453   9.842  27.855  1.00  0.00    -0.082 NA
HETATM    4  N2  UNL     1      30.128  10.508  25.586  1.00  0.00    -0.324 N 
ATOM      5  H2  UNL     1      29.481  11.225  25.915  1.00  0.00     0.169 HD
HETATM    6  C7  UNL     1      30.358  10.397  24.269  1.00  0.00     0.146 A 
HETATM    7  N3  UNL     1      31.202   9.463  23.879  1.00  0.00    -0.330 N 
ATOM      8  H3  UNL     1      31.379   9.375  22.879  1.00  0.00     0.168 HD
HETATM    9  C11 UNL     1      31.873   8.583  24.734  1.00  0.00     0.103 A 
ENDROOT
BRANCH   1  10
HETATM   10  C4  UNL     1      32.173   7.853  27.077  1.00  0.00     0.090 A 
HETATM   11  S1  UNL     1      33.873   7.546  27.299  1.00  0.00    -0.081 SA
HETATM   12  C3  UNL     1      33.809   6.647  28.741  1.00  0.00     0.076 A 
HETATM   13  C2  UNL     1      32.464   6.633  28.974  1.00  0.00     0.012 A 
HETATM   14  C1  UNL     1      31.909   5.920  30.197  1.00  0.00     0.068 C 
HETATM   15  N4  UNL     1      31.700   7.242  28.122  1.00  0.00    -0.353 N 
ATOM     16  H4  UNL     1      30.692   7.241  28.278  1.00  0.00     0.166 HD
ENDBRANCH   1  10
BRANCH   9  17
HETATM   17  S3  UNL     1      33.000   7.667  24.018  1.00  0.00    -0.000 SA
HETATM   18 CL1  UNL     1      32.708   6.170  22.617  1.00  0.00    -0.037 Cl
ENDBRANCH   9  17
BRANCH   6  19
HETATM   19  S2  UNL     1      29.599  11.436  23.035  1.00  0.00    -0.090 SA
BRANCH  19  20
HETATM   20  C8  UNL     1      30.698  12.751  22.492  1.00  0.00     0.047 C 
HETATM   21  C9  UNL     1      32.028  12.643  23.213  1.00  0.00     0.021 C 
HETATM   22  C10 UNL     1      30.990  12.641  21.010  1.00  0.00     0.021 C 
ENDBRANCH  19  20
ENDBRANCH   6  19
TORSDOF 4
ENDMDL
MODEL 4
REMARK VINA RESULT: -6.564546037      1.167      1.273
REMARK  4 active torsions:
REMARK  status: ('A' for Active; 'I' for Inactive)
REMARK    1  A    between atoms: C4_5  and  C5_6 
REMARK    2  A    between atoms: C7_11  and  S2_12 
REMARK    3  A    between atoms: S2_12  and  C8_13 
REMARK    4  A    between atoms: C11_18  and  S3_19 
ROOT
HETATM    1  C5  UNL     1      34.786   7.094  23.965  1.00  0.00     0.074 A 
HETATM    2  C6  UNL     1      35.431   6.623  22.806  1.00  0.00     0.134 A 
HETATM    3  N1  UNL     1      35.493   7.422  21.649  1.00  0.00    -0.082 NA
HETATM    4  N2  UNL     1      35.976   5.402  22.828  1.00  0.00    -0.324 N 
ATOM      5  H2  UNL     1      36.445   5.056  21.991  1.00  0.00     0.169 HD
HETATM    6  C7  UNL     1      35.923   4.618  23.915  1.00  0.00     0.146 A 
HETATM    7  N3  UNL     1      35.312   5.098  24.978  1.00  0.00    -0.330 N 
ATOM      8  H3  UNL     1      35.270   4.504  25.806  1.00  0.00     0.168 HD
HETATM    9  C11 UNL     1      34.716   6.361  25.057  1.00  0.00     0.103 A 
ENDROOT
BRANCH   1  10
HETATM   10  C4  UNL     1      34.167   8.433  23.826  1.00  0.00     0.090 A 
HETATM   11  S1  UNL     1      32.477   8.767  24.090  1.00  0.00    -0.081 SA
HETATM   12  C3  UNL     1      32.500  10.460  23.941  1.00  0.00     0.076 A 
HETATM   13  C2  UNL     1      33.825  10.678  23.692  1.00  0.00     0.012 A 
HETATM   14  C1  UNL     1      34.340  12.092  23.481  1.00  0.00     0.068 C 
HETATM   15  N4  UNL     1      34.605   9.643  23.645  1.00  0.00    -0.353 N 
ATOM     16  H4  UNL     1      35.597   9.784  23.459  1.00  0.00     0.166 HD
ENDBRANCH   1  10
BRANCH   9  17
HETATM   17  S3  UNL     1      34.210   6.782  26.537  1.00  0.00    -0.000 SA
HETATM   18 CL1  UNL     1      34.564   5.792  28.322  1.00  0.00    -0.037 Cl
ENDBRANCH   9  17
BRANCH   6  19
HETATM   19  S2  UNL     1      36.633   2.985  23.998  1.00  0.00    -0.090 SA
BRANCH  19  20
HETATM   20  C8  UNL     1      37.449   2.682  25.571  1.00  0.00     0.047 C 
HETATM   21  C9  UNL     1      37.274   1.229  25.971  1.00  0.00     0.021 C 
HETATM   22  C10 UNL     1      38.938   2.935  25.471  1.00  0.00     0.021 C 
ENDBRANCH  19  20
ENDBRANCH   6  19
TORSDOF 4
ENDMDL
MODEL 5
REMARK VINA RESULT: -6.471447637      2.545      6.999
REMARK  4 active torsions:
REMARK  status: ('A' for Active; 'I' for Inactive)
REMARK    1  A    between atoms: C4_5  and  C5_6 
REMARK    2  A    between atoms: C7_11  and  S2_12 
REMARK    3  A    between atoms: S2_12  and  C8_13 
REMARK    4  A    between atoms: C11_18  and  S3_19 
ROOT
HETATM    1  C5  UNL     1      35.036   6.152  23.995  1.00  0.00     0.074 A 
HETATM    2  C6  UNL     1      34.429   6.554  25.199  1.00  0.00     0.134 A 
HETATM    3  N1  UNL     1      34.525   5.749  26.350  1.00  0.00    -0.082 NA
HETATM    4  N2  UNL     1      33.756   7.708  25.223  1.00  0.00    -0.324 N 
ATOM      5  H2  UNL     1      33.314   8.005  26.093  1.00  0.00     0.169 HD
HETATM    6  C7  UNL     1      33.642   8.489  24.138  1.00  0.00     0.146 A 
HETATM    7  N3  UNL     1      34.228   8.077  23.032  1.00  0.00    -0.330 N 
ATOM      8  H3  UNL     1      34.143   8.668  22.206  1.00  0.00     0.168 HD
HETATM    9  C11 UNL     1      34.956   6.890  22.906  1.00  0.00     0.103 A 
ENDROOT
BRANCH   1  10
HETATM   10  C4  UNL     1      35.711   4.834  24.052  1.00  0.00     0.090 A 
HETATM   11  S1  UNL     1      35.025   3.351  23.448  1.00  0.00    -0.081 SA
HETATM   12  C3  UNL     1      36.356   2.317  23.667  1.00  0.00     0.076 A 
HETATM   13  C2  UNL     1      37.267   3.182  24.202  1.00  0.00     0.012 A 
HETATM   14  C1  UNL     1      38.657   2.692  24.575  1.00  0.00     0.068 C 
HETATM   15  N4  UNL     1      36.898   4.413  24.372  1.00  0.00    -0.353 N 
ATOM     16  H4  UNL     1      37.564   5.075  24.771  1.00  0.00     0.166 HD
ENDBRANCH   1  10
BRANCH   9  17
HETATM   17  S3  UNL     1      35.738   6.719  21.499  1.00  0.00    -0.000 SA
HETATM   18 CL1  UNL     1      36.506   8.215  20.291  1.00  0.00    -0.037 Cl
ENDBRANCH   9  17
BRANCH   6  19
HETATM   19  S2  UNL     1      32.759  10.037  24.115  1.00  0.00    -0.090 SA
BRANCH  19  20
HETATM   20  C8  UNL     1      33.869  11.449  24.183  1.00  0.00     0.047 C 
HETATM   21  C9  UNL     1      34.954  11.303  23.132  1.00  0.00     0.021 C 
HETATM   22  C10 UNL     1      33.134  12.737  23.880  1.00  0.00     0.021 C 
ENDBRANCH  19  20
ENDBRANCH   6  19
TORSDOF 4
ENDMDL
