MODEL 1
REMARK VINA RESULT: -7.256454493      0.000      0.000
REMARK  6 active torsions:
REMARK  status: ('A' for Active; 'I' for Inactive)
REMARK    1  A    between atoms: C2_2  and  C4_4 
REMARK    2  A    between atoms: C7_7  and  O1_8 
REMARK    3  A    between atoms: C10_12  and  O2_13 
REMARK    4  A    between atoms: C10_12  and  C11_15 
REMARK    5  A    between atoms: C11_15  and  C14_18 
REMARK    6  A    between atoms: C19_24  and  O4_25 
ROOT
HETATM    1  C4  UNL     1       5.522  11.857  23.836  1.00  0.00    -0.000 C 
HETATM    2  C5  UNL     1       6.275  11.082  22.738  1.00  0.00     0.009 C 
HETATM    3  C6  UNL     1       5.228  10.061  22.252  1.00  0.00     0.039 C 
HETATM    4  C7  UNL     1       4.691   9.673  23.642  1.00  0.00     0.070 C 
HETATM    5  C8  UNL     1       3.563   8.712  23.597  1.00  0.00     0.028 C 
HETATM    6  C9  UNL     1       3.962   7.287  23.359  1.00  0.00     0.047 C 
HETATM    7  C10 UNL     1       3.826   6.350  24.521  1.00  0.00     0.072 C 
HETATM    8  C17 UNL     1       2.548   6.486  25.257  1.00  0.00     0.032 C 
HETATM    9  C18 UNL     1       1.530   5.422  25.255  1.00  0.00     0.040 C 
HETATM   10  C19 UNL     1       0.662   5.608  26.524  1.00  0.00     0.118 C 
HETATM   11  C20 UNL     1      -0.016   6.936  26.526  1.00  0.00     0.032 C 
HETATM   12  C21 UNL     1       0.925   8.050  26.204  1.00  0.00     0.012 C 
HETATM   13  C22 UNL     1       1.769   7.748  24.949  1.00  0.00    -0.033 C 
HETATM   14  C23 UNL     1       0.791   7.597  23.801  1.00  0.00     0.016 C 
HETATM   15  C24 UNL     1       2.581   8.972  24.669  1.00  0.00     0.001 C 
HETATM   16  C25 UNL     1       3.052   9.700  25.878  1.00  0.00     0.007 C 
HETATM   17  C26 UNL     1       3.959  10.863  25.586  1.00  0.00     0.013 C 
HETATM   18  C27 UNL     1       4.332  11.049  24.154  1.00  0.00    -0.009 C 
HETATM   19  C28 UNL     1       3.172  11.691  23.421  1.00  0.00     0.019 C 
ENDROOT
BRANCH   7  20
HETATM   20  O2  UNL     1       4.835   6.891  25.406  1.00  0.00    -0.389 OA
ATOM     21  H2  UNL     1       4.698   6.345  26.171  1.00  0.00     0.210 HD
ENDBRANCH   7  20
BRANCH   7  22
HETATM   22  C11 UNL     1       4.406   5.025  24.300  1.00  0.00     0.017 C 
HETATM   23  C12 UNL     1       5.954   5.214  24.325  1.00  0.00     0.021 C 
HETATM   24  C13 UNL     1       4.237   4.218  25.610  1.00  0.00     0.021 C 
BRANCH  22  25
HETATM   25  C14 UNL     1       4.186   4.178  23.125  1.00  0.00     0.088 A 
HETATM   26  C15 UNL     1       5.538   3.607  22.617  1.00  0.00     0.049 C 
HETATM   27  C16 UNL     1       3.417   4.544  21.891  1.00  0.00     0.207 A 
HETATM   28  O3  UNL     1       3.003   3.609  22.790  1.00  0.00    -0.374 OA
ENDBRANCH  22  25
ENDBRANCH   7  22
BRANCH   4  29
HETATM   29  O1  UNL     1       5.811   9.294  24.346  1.00  0.00    -0.389 OA
ATOM     30  H1  UNL     1       5.608   9.514  25.248  1.00  0.00     0.210 HD
ENDBRANCH   4  29
BRANCH  10  31
HETATM   31  O4  UNL     1      -0.309   4.619  26.477  1.00  0.00    -0.396 OA
ATOM     32  H4  UNL     1      -0.537   4.428  27.379  1.00  0.00     0.210 HD
ENDBRANCH  10  31
BRANCH   1  33
HETATM   33  C2  UNL     1       6.488  12.198  24.917  1.00  0.00    -0.018 C 
HETATM   34  C1  UNL     1       7.875  12.092  24.233  1.00  0.00     0.010 C 
HETATM   35  C3  UNL     1       6.369  13.670  25.281  1.00  0.00     0.010 C 
ENDBRANCH   1  33
TORSDOF 6
ENDMDL
MODEL 2
REMARK VINA RESULT: -6.873873008      0.927      1.262
REMARK  6 active torsions:
REMARK  status: ('A' for Active; 'I' for Inactive)
REMARK    1  A    between atoms: C2_2  and  C4_4 
REMARK    2  A    between atoms: C7_7  and  O1_8 
REMARK    3  A    between atoms: C10_12  and  O2_13 
REMARK    4  A    between atoms: C10_12  and  C11_15 
REMARK    5  A    between atoms: C11_15  and  C14_18 
REMARK    6  A    between atoms: C19_24  and  O4_25 
ROOT
HETATM    1  C4  UNL     1       5.619  11.145  23.545  1.00  0.00    -0.000 C 
HETATM    2  C5  UNL     1       6.282  10.253  22.479  1.00  0.00     0.009 C 
HETATM    3  C6  UNL     1       5.152   9.283  22.084  1.00  0.00     0.039 C 
HETATM    4  C7  UNL     1       4.631   9.019  23.508  1.00  0.00     0.070 C 
HETATM    5  C8  UNL     1       3.436   8.141  23.552  1.00  0.00     0.028 C 
HETATM    6  C9  UNL     1       3.726   6.679  23.392  1.00  0.00     0.047 C 
HETATM    7  C10 UNL     1       3.559   5.826  24.613  1.00  0.00     0.072 C 
HETATM    8  C17 UNL     1       2.316   6.098  25.371  1.00  0.00     0.032 C 
HETATM    9  C18 UNL     1       1.226   5.113  25.461  1.00  0.00     0.040 C 
HETATM   10  C19 UNL     1       0.411   5.436  26.738  1.00  0.00     0.118 C 
HETATM   11  C20 UNL     1      -0.171   6.808  26.674  1.00  0.00     0.032 C 
HETATM   12  C21 UNL     1       0.836   7.830  26.260  1.00  0.00     0.012 C 
HETATM   13  C22 UNL     1       1.619   7.392  25.005  1.00  0.00    -0.033 C 
HETATM   14  C23 UNL     1       0.600   7.244  23.894  1.00  0.00     0.016 C 
HETATM   15  C24 UNL     1       2.507   8.536  24.629  1.00  0.00     0.001 C 
HETATM   16  C25 UNL     1       3.064   9.299  25.779  1.00  0.00     0.007 C 
HETATM   17  C26 UNL     1       4.042  10.374  25.392  1.00  0.00     0.013 C 
HETATM   18  C27 UNL     1       4.385  10.446  23.943  1.00  0.00    -0.009 C 
HETATM   19  C28 UNL     1       3.252  11.125  23.200  1.00  0.00     0.019 C 
ENDROOT
BRANCH   7  20
HETATM   20  O2  UNL     1       4.630   6.344  25.437  1.00  0.00    -0.389 OA
ATOM     21  H2  UNL     1       4.297   7.216  25.616  1.00  0.00     0.210 HD
ENDBRANCH   7  20
BRANCH   7  22
HETATM   22  C11 UNL     1       4.037   4.452  24.460  1.00  0.00     0.017 C 
HETATM   23  C12 UNL     1       3.900   3.781  25.861  1.00  0.00     0.021 C 
HETATM   24  C13 UNL     1       2.943   3.660  23.702  1.00  0.00     0.021 C 
BRANCH  22  25
HETATM   25  C14 UNL     1       5.376   4.053  24.021  1.00  0.00     0.088 A 
HETATM   26  C15 UNL     1       6.234   3.627  25.243  1.00  0.00     0.049 C 
HETATM   27  C16 UNL     1       6.299   4.841  23.140  1.00  0.00     0.207 A 
HETATM   28  O3  UNL     1       5.700   3.678  22.760  1.00  0.00    -0.374 OA
ENDBRANCH  22  25
ENDBRANCH   7  22
BRANCH   4  29
HETATM   29  O1  UNL     1       5.741   8.602  24.206  1.00  0.00    -0.389 OA
ATOM     30  H1  UNL     1       6.042   9.383  24.657  1.00  0.00     0.210 HD
ENDBRANCH   4  29
BRANCH  10  31
HETATM   31  O4  UNL     1      -0.628   4.519  26.776  1.00  0.00    -0.396 OA
ATOM     32  H4  UNL     1      -1.403   4.984  26.483  1.00  0.00     0.210 HD
ENDBRANCH  10  31
BRANCH   1  33
HETATM   33  C2  UNL     1       6.638  11.479  24.578  1.00  0.00    -0.018 C 
HETATM   34  C1  UNL     1       7.993  11.228  23.868  1.00  0.00     0.010 C 
HETATM   35  C3  UNL     1       6.637  12.975  24.851  1.00  0.00     0.010 C 
ENDBRANCH   1  33
TORSDOF 6
ENDMDL
MODEL 3
REMARK VINA RESULT: -6.626024641      1.141      1.698
REMARK  6 active torsions:
REMARK  status: ('A' for Active; 'I' for Inactive)
REMARK    1  A    between atoms: C2_2  and  C4_4 
REMARK    2  A    between atoms: C7_7  and  O1_8 
REMARK    3  A    between atoms: C10_12  and  O2_13 
REMARK    4  A    between atoms: C10_12  and  C11_15 
REMARK    5  A    between atoms: C11_15  and  C14_18 
REMARK    6  A    between atoms: C19_24  and  O4_25 
ROOT
HETATM    1  C4  UNL     1       5.389  11.889  23.794  1.00  0.00    -0.000 C 
HETATM    2  C5  UNL     1       6.301  11.071  22.859  1.00  0.00     0.009 C 
HETATM    3  C6  UNL     1       5.383   9.926  22.391  1.00  0.00     0.039 C 
HETATM    4  C7  UNL     1       4.738   9.637  23.759  1.00  0.00     0.070 C 
HETATM    5  C8  UNL     1       3.690   8.588  23.713  1.00  0.00     0.028 C 
HETATM    6  C9  UNL     1       4.209   7.183  23.666  1.00  0.00     0.047 C 
HETATM    7  C10 UNL     1       4.024   6.359  24.904  1.00  0.00     0.072 C 
HETATM    8  C17 UNL     1       2.671   6.465  25.500  1.00  0.00     0.032 C 
HETATM    9  C18 UNL     1       1.736   5.329  25.518  1.00  0.00     0.040 C 
HETATM   10  C19 UNL     1       0.734   5.570  26.674  1.00  0.00     0.118 C 
HETATM   11  C20 UNL     1      -0.033   6.833  26.470  1.00  0.00     0.032 C 
HETATM   12  C21 UNL     1       0.856   7.981  26.119  1.00  0.00     0.012 C 
HETATM   13  C22 UNL     1       1.841   7.623  24.987  1.00  0.00    -0.033 C 
HETATM   14  C23 UNL     1       0.996   7.281  23.777  1.00  0.00     0.016 C 
HETATM   15  C24 UNL     1       2.589   8.875  24.654  1.00  0.00     0.001 C 
HETATM   16  C25 UNL     1       2.884   9.755  25.818  1.00  0.00     0.007 C 
HETATM   17  C26 UNL     1       3.732  10.952  25.487  1.00  0.00     0.013 C 
HETATM   18  C27 UNL     1       4.233  11.024  24.085  1.00  0.00    -0.009 C 
HETATM   19  C28 UNL     1       3.111  11.495  23.182  1.00  0.00     0.019 C 
ENDROOT
BRANCH   7  20
HETATM   20  O2  UNL     1       4.898   7.065  25.816  1.00  0.00    -0.389 OA
ATOM     21  H2  UNL     1       5.713   6.601  25.661  1.00  0.00     0.210 HD
ENDBRANCH   7  20
BRANCH   7  22
HETATM   22  C11 UNL     1       4.714   5.070  24.881  1.00  0.00     0.017 C 
HETATM   23  C12 UNL     1       3.650   4.011  24.457  1.00  0.00     0.021 C 
HETATM   24  C13 UNL     1       5.605   5.041  23.616  1.00  0.00     0.021 C 
BRANCH  22  25
HETATM   25  C14 UNL     1       5.389   4.437  26.017  1.00  0.00     0.088 A 
HETATM   26  C15 UNL     1       6.604   3.607  25.522  1.00  0.00     0.049 C 
HETATM   27  C16 UNL     1       4.747   3.607  27.088  1.00  0.00     0.207 A 
HETATM   28  O3  UNL     1       5.281   4.841  27.306  1.00  0.00    -0.374 OA
ENDBRANCH  22  25
ENDBRANCH   7  22
BRANCH   4  29
HETATM   29  O1  UNL     1       5.805   9.420  24.600  1.00  0.00    -0.389 OA
ATOM     30  H1  UNL     1       6.452  10.061  24.330  1.00  0.00     0.210 HD
ENDBRANCH   4  29
BRANCH  10  31
HETATM   31  O4  UNL     1      -0.156   4.507  26.643  1.00  0.00    -0.396 OA
ATOM     32  H4  UNL     1      -0.970   4.852  26.297  1.00  0.00     0.210 HD
ENDBRANCH  10  31
BRANCH   1  33
HETATM   33  C2  UNL     1       6.216  12.412  24.917  1.00  0.00    -0.018 C 
HETATM   34  C1  UNL     1       7.627  12.588  24.299  1.00  0.00     0.010 C 
HETATM   35  C3  UNL     1       5.788  13.829  25.267  1.00  0.00     0.010 C 
ENDBRANCH   1  33
TORSDOF 6
ENDMDL
MODEL 4
REMARK VINA RESULT: -6.351618585      3.637      5.865
REMARK  6 active torsions:
REMARK  status: ('A' for Active; 'I' for Inactive)
REMARK    1  A    between atoms: C2_2  and  C4_4 
REMARK    2  A    between atoms: C7_7  and  O1_8 
REMARK    3  A    between atoms: C10_12  and  O2_13 
REMARK    4  A    between atoms: C10_12  and  C11_15 
REMARK    5  A    between atoms: C11_15  and  C14_18 
REMARK    6  A    between atoms: C19_24  and  O4_25 
ROOT
HETATM    1  C4  UNL     1       5.285   5.704  30.971  1.00  0.00    -0.000 C 
HETATM    2  C5  UNL     1       5.992   4.739  30.000  1.00  0.00     0.009 C 
HETATM    3  C6  UNL     1       5.888   5.469  28.647  1.00  0.00     0.039 C 
HETATM    4  C7  UNL     1       4.428   5.934  28.801  1.00  0.00     0.070 C 
HETATM    5  C8  UNL     1       3.949   6.773  27.676  1.00  0.00     0.028 C 
HETATM    6  C9  UNL     1       3.571   6.012  26.442  1.00  0.00     0.047 C 
HETATM    7  C10 UNL     1       2.109   5.939  26.121  1.00  0.00     0.072 C 
HETATM    8  C17 UNL     1       1.400   7.234  26.252  1.00  0.00     0.032 C 
HETATM    9  C18 UNL     1       0.847   7.941  25.085  1.00  0.00     0.040 C 
HETATM   10  C19 UNL     1      -0.281   8.870  25.597  1.00  0.00     0.118 C 
HETATM   11  C20 UNL     1       0.242   9.869  26.574  1.00  0.00     0.032 C 
HETATM   12  C21 UNL     1       1.100   9.237  27.620  1.00  0.00     0.012 C 
HETATM   13  C22 UNL     1       2.163   8.302  27.008  1.00  0.00    -0.033 C 
HETATM   14  C23 UNL     1       3.038   9.168  26.125  1.00  0.00     0.016 C 
HETATM   15  C24 UNL     1       3.021   7.825  28.137  1.00  0.00     0.001 C 
HETATM   16  C25 UNL     1       2.299   7.599  29.419  1.00  0.00     0.007 C 
HETATM   17  C26 UNL     1       3.149   7.015  30.512  1.00  0.00     0.013 C 
HETATM   18  C27 UNL     1       4.543   6.654  30.125  1.00  0.00    -0.009 C 
HETATM   19  C28 UNL     1       5.381   7.914  30.065  1.00  0.00     0.019 C 
ENDROOT
BRANCH   7  20
HETATM   20  O2  UNL     1       1.642   5.135  27.229  1.00  0.00    -0.389 OA
ATOM     21  H2  UNL     1       1.236   4.417  26.757  1.00  0.00     0.210 HD
ENDBRANCH   7  20
BRANCH   7  22
HETATM   22  C11 UNL     1       1.775   5.030  25.025  1.00  0.00     0.017 C 
HETATM   23  C12 UNL     1       2.225   3.608  25.482  1.00  0.00     0.021 C 
HETATM   24  C13 UNL     1       0.242   4.820  25.045  1.00  0.00     0.021 C 
BRANCH  22  25
HETATM   25  C14 UNL     1       2.278   5.121  23.652  1.00  0.00     0.088 A 
HETATM   26  C15 UNL     1       3.274   3.963  23.370  1.00  0.00     0.049 C 
HETATM   27  C16 UNL     1       2.875   6.330  22.997  1.00  0.00     0.207 A 
HETATM   28  O3  UNL     1       1.672   5.797  22.646  1.00  0.00    -0.374 OA
ENDBRANCH  22  25
ENDBRANCH   7  22
BRANCH   4  29
HETATM   29  O1  UNL     1       3.728   4.778  29.064  1.00  0.00    -0.389 OA
ATOM     30  H1  UNL     1       3.382   4.907  29.940  1.00  0.00     0.210 HD
ENDBRANCH   4  29
BRANCH  10  31
HETATM   31  O4  UNL     1      -0.757   9.550  24.486  1.00  0.00    -0.396 OA
ATOM     32  H4  UNL     1      -0.794   8.914  23.782  1.00  0.00     0.210 HD
ENDBRANCH  10  31
BRANCH   1  33
HETATM   33  C2  UNL     1       4.551   4.896  31.985  1.00  0.00    -0.018 C 
HETATM   34  C1  UNL     1       5.403   3.609  32.133  1.00  0.00     0.010 C 
HETATM   35  C3  UNL     1       4.644   5.558  33.350  1.00  0.00     0.010 C 
ENDBRANCH   1  33
TORSDOF 6
ENDMDL
MODEL 5
REMARK VINA RESULT: -6.310027957      2.271      3.751
REMARK  6 active torsions:
REMARK  status: ('A' for Active; 'I' for Inactive)
REMARK    1  A    between atoms: C2_2  and  C4_4 
REMARK    2  A    between atoms: C7_7  and  O1_8 
REMARK    3  A    between atoms: C10_12  and  O2_13 
REMARK    4  A    between atoms: C10_12  and  C11_15 
REMARK    5  A    between atoms: C11_15  and  C14_18 
REMARK    6  A    between atoms: C19_24  and  O4_25 
ROOT
HETATM    1  C4  UNL     1       6.336   9.760  23.205  1.00  0.00    -0.000 C 
HETATM    2  C5  UNL     1       6.542   8.245  23.398  1.00  0.00     0.009 C 
HETATM    3  C6  UNL     1       5.103   7.697  23.417  1.00  0.00     0.039 C 
HETATM    4  C7  UNL     1       4.496   8.804  24.299  1.00  0.00     0.070 C 
HETATM    5  C8  UNL     1       3.033   8.667  24.504  1.00  0.00     0.028 C 
HETATM    6  C9  UNL     1       2.636   7.643  25.524  1.00  0.00     0.047 C 
HETATM    7  C10 UNL     1       2.083   8.164  26.816  1.00  0.00     0.072 C 
HETATM    8  C17 UNL     1       1.085   9.246  26.650  1.00  0.00     0.032 C 
HETATM    9  C18 UNL     1      -0.333   9.057  26.996  1.00  0.00     0.040 C 
HETATM   10  C19 UNL     1      -0.934  10.457  27.273  1.00  0.00     0.118 C 
HETATM   11  C20 UNL     1      -0.835  11.336  26.071  1.00  0.00     0.032 C 
HETATM   12  C21 UNL     1       0.531  11.313  25.468  1.00  0.00     0.012 C 
HETATM   13  C22 UNL     1       1.052   9.874  25.273  1.00  0.00    -0.033 C 
HETATM   14  C23 UNL     1       0.093   9.198  24.315  1.00  0.00     0.016 C 
HETATM   15  C24 UNL     1       2.366   9.983  24.566  1.00  0.00     0.001 C 
HETATM   16  C25 UNL     1       3.190  11.160  24.954  1.00  0.00     0.007 C 
HETATM   17  C26 UNL     1       4.553  11.197  24.321  1.00  0.00     0.013 C 
HETATM   18  C27 UNL     1       4.913  10.011  23.492  1.00  0.00    -0.009 C 
HETATM   19  C28 UNL     1       4.221  10.118  22.149  1.00  0.00     0.019 C 
ENDROOT
BRANCH   7  20
HETATM   20  O2  UNL     1       3.260   8.810  27.356  1.00  0.00    -0.389 OA
ATOM     21  H2  UNL     1       3.895   8.594  26.683  1.00  0.00     0.210 HD
ENDBRANCH   7  20
BRANCH   7  22
HETATM   22  C11 UNL     1       1.892   7.143  27.846  1.00  0.00     0.017 C 
HETATM   23  C12 UNL     1       3.318   6.659  28.254  1.00  0.00     0.021 C 
HETATM   24  C13 UNL     1       1.498   7.870  29.155  1.00  0.00     0.021 C 
BRANCH  22  25
HETATM   25  C14 UNL     1       1.142   5.895  27.689  1.00  0.00     0.088 A 
HETATM   26  C15 UNL     1       2.110   4.681  27.725  1.00  0.00     0.049 C 
HETATM   27  C16 UNL     1       0.147   5.581  26.612  1.00  0.00     0.207 A 
HETATM   28  O3  UNL     1      -0.186   5.753  27.921  1.00  0.00    -0.374 OA
ENDBRANCH  22  25
ENDBRANCH   7  22
BRANCH   4  29
HETATM   29  O1  UNL     1       5.289   8.815  25.425  1.00  0.00    -0.389 OA
ATOM     30  H1  UNL     1       6.040   8.282  25.190  1.00  0.00     0.210 HD
ENDBRANCH   4  29
BRANCH  10  31
HETATM   31  O4  UNL     1      -2.276  10.253  27.557  1.00  0.00    -0.396 OA
ATOM     32  H4  UNL     1      -2.306   9.574  28.220  1.00  0.00     0.210 HD
ENDBRANCH  10  31
BRANCH   1  33
HETATM   33  C2  UNL     1       7.381  10.480  23.984  1.00  0.00    -0.018 C 
HETATM   34  C1  UNL     1       8.661   9.632  23.775  1.00  0.00     0.010 C 
HETATM   35  C3  UNL     1       7.707  11.809  23.322  1.00  0.00     0.010 C 
ENDBRANCH   1  33
TORSDOF 6
ENDMDL
