MODEL 1
REMARK VINA RESULT: -5.293258662      0.000      0.000
REMARK  13 active torsions:
REMARK  status: ('A' for Active; 'I' for Inactive)
REMARK    1  A    between atoms: N2_3  and  C2_5 
REMARK    2  A    between atoms: C2_5  and  O1_7 
REMARK    3  A    between atoms: O1_7  and  N3_8 
REMARK    4  A    between atoms: C4_11  and  O2_12 
REMARK    5  A    between atoms: C5_15  and  C6_16 
REMARK    6  A    between atoms: C6_16  and  O4_17 
REMARK    7  A    between atoms: C6_16  and  C7_19 
REMARK    8  A    between atoms: C7_19  and  N4_20 
REMARK    9  A    between atoms: C7_19  and  C8_24 
REMARK   10  A    between atoms: C8_24  and  C9_26 
REMARK   11  A    between atoms: C9_26  and  O6_27 
REMARK   12  A    between atoms: C9_26  and  O7_29 
REMARK   13  A    between atoms: C10_31  and  N5_32 
ROOT
HETATM    1  N1  UNL     1     -19.637  20.575  26.109  1.00  0.00    -0.172 NA
HETATM    2  C1  UNL     1     -20.256  19.731  25.616  1.00  0.00     0.184 C 
HETATM    3  N2  UNL     1     -21.018  18.727  25.011  1.00  0.00    -0.263 N 
ATOM      4  H2  UNL     1     -20.639  17.781  24.962  1.00  0.00     0.181 HD
ENDROOT
BRANCH   3   5
HETATM    5  C2  UNL     1     -22.300  18.981  24.465  1.00  0.00     0.248 C 
HETATM    6  S1  UNL     1     -23.391  19.764  25.388  1.00  0.00    -0.030 SA
BRANCH   5   7
HETATM    7  O1  UNL     1     -22.624  18.582  23.193  1.00  0.00    -0.207 OA
BRANCH   7   8
HETATM    8  N3  UNL     1     -23.377  17.467  22.979  1.00  0.00    -0.259 N 
HETATM    9  C3  UNL     1     -22.866  16.486  22.361  1.00  0.00     0.098 C 
HETATM   10  C4  UNL     1     -21.497  16.341  21.796  1.00  0.00     0.308 C 
HETATM   11  C10 UNL     1     -23.473  15.160  22.001  1.00  0.00     0.267 C 
HETATM   12  O3  UNL     1     -21.254  14.991  21.657  1.00  0.00    -0.346 OA
HETATM   13  C5  UNL     1     -22.290  14.303  22.267  1.00  0.00     0.192 C 
ATOM     14  H3  UNL     1     -24.340  17.422  23.311  1.00  0.00     0.194 HD
BRANCH  10  15
HETATM   15  O2  UNL     1     -21.529  16.890  20.502  1.00  0.00    -0.366 OA
ATOM     16  H2  UNL     1     -20.865  16.437  19.994  1.00  0.00     0.213 HD
ENDBRANCH  10  15
BRANCH  13  17
HETATM   17  C6  UNL     1     -22.361  12.902  21.804  1.00  0.00     0.187 C 
BRANCH  17  18
HETATM   18  O4  UNL     1     -22.369  12.895  20.410  1.00  0.00    -0.390 OA
ATOM     19  H4  UNL     1     -22.385  11.993  20.113  1.00  0.00     0.210 HD
ENDBRANCH  17  18
BRANCH  17  20
HETATM   20  C7  UNL     1     -21.294  11.987  22.268  1.00  0.00     0.288 C 
BRANCH  20  21
HETATM   21  N4  UNL     1     -20.241  12.663  22.993  1.00  0.00    -0.066 N 
ATOM     22  H43 UNL     1     -19.833  13.410  22.429  1.00  0.00     0.275 HD
ATOM     23  H42 UNL     1     -20.626  13.220  23.756  1.00  0.00     0.275 HD
ATOM     24  H41 UNL     1     -19.518  12.030  23.334  1.00  0.00     0.275 HD
ENDBRANCH  20  21
BRANCH  20  25
HETATM   25  C8  UNL     1     -20.770  11.248  21.083  1.00  0.00     0.213 C 
HETATM   26  O5  UNL     1     -21.341  10.201  20.811  1.00  0.00    -0.290 OA
BRANCH  25  27
HETATM   27  C9  UNL     1     -19.658  11.662  20.239  1.00  0.00     0.327 C 
BRANCH  27  28
HETATM   28  O6  UNL     1     -19.311  12.981  20.305  1.00  0.00    -0.365 OA
ATOM     29  H6  UNL     1     -18.583  13.250  19.758  1.00  0.00     0.213 HD
ENDBRANCH  27  28
BRANCH  27  30
HETATM   30  O7  UNL     1     -19.945  11.363  18.897  1.00  0.00    -0.365 OA
ATOM     31  H7  UNL     1     -19.847  12.144  18.366  1.00  0.00     0.213 HD
ENDBRANCH  27  30
ENDBRANCH  25  27
ENDBRANCH  20  25
ENDBRANCH  17  20
ENDBRANCH  13  17
BRANCH  11  32
HETATM   32  N5  UNL     1     -23.846  15.283  20.634  1.00  0.00    -0.067 N 
ATOM     33  H53 UNL     1     -24.177  16.214  20.379  1.00  0.00     0.275 HD
ATOM     34  H52 UNL     1     -23.058  15.257  19.988  1.00  0.00     0.275 HD
ATOM     35  H51 UNL     1     -24.532  14.544  20.478  1.00  0.00     0.275 HD
ENDBRANCH  11  32
ENDBRANCH   7   8
ENDBRANCH   5   7
ENDBRANCH   3   5
TORSDOF 13
ENDMDL
MODEL 2
REMARK VINA RESULT: -5.201698618      1.393      1.517
REMARK  13 active torsions:
REMARK  status: ('A' for Active; 'I' for Inactive)
REMARK    1  A    between atoms: N2_3  and  C2_5 
REMARK    2  A    between atoms: C2_5  and  O1_7 
REMARK    3  A    between atoms: O1_7  and  N3_8 
REMARK    4  A    between atoms: C4_11  and  O2_12 
REMARK    5  A    between atoms: C5_15  and  C6_16 
REMARK    6  A    between atoms: C6_16  and  O4_17 
REMARK    7  A    between atoms: C6_16  and  C7_19 
REMARK    8  A    between atoms: C7_19  and  N4_20 
REMARK    9  A    between atoms: C7_19  and  C8_24 
REMARK   10  A    between atoms: C8_24  and  C9_26 
REMARK   11  A    between atoms: C9_26  and  O6_27 
REMARK   12  A    between atoms: C9_26  and  O7_29 
REMARK   13  A    between atoms: C10_31  and  N5_32 
ROOT
HETATM    1  N1  UNL     1     -19.325  20.571  26.089  1.00  0.00    -0.172 NA
HETATM    2  C1  UNL     1     -19.968  19.756  25.579  1.00  0.00     0.184 C 
HETATM    3  N2  UNL     1     -20.763  18.784  24.964  1.00  0.00    -0.263 N 
ATOM      4  H2  UNL     1     -20.309  17.996  24.501  1.00  0.00     0.181 HD
ENDROOT
BRANCH   3   5
HETATM    5  C2  UNL     1     -22.177  18.858  24.964  1.00  0.00     0.248 C 
HETATM    6  S1  UNL     1     -22.874  20.312  25.200  1.00  0.00    -0.030 SA
BRANCH   5   7
HETATM    7  O1  UNL     1     -22.949  17.740  24.771  1.00  0.00    -0.207 OA
BRANCH   7   8
HETATM    8  N3  UNL     1     -23.428  17.424  23.536  1.00  0.00    -0.259 N 
HETATM    9  C3  UNL     1     -22.796  16.589  22.823  1.00  0.00     0.098 C 
HETATM   10  C4  UNL     1     -21.540  15.852  23.130  1.00  0.00     0.308 C 
HETATM   11  C10 UNL     1     -23.106  16.077  21.445  1.00  0.00     0.267 C 
HETATM   12  O3  UNL     1     -21.501  14.750  22.302  1.00  0.00    -0.346 OA
HETATM   13  C5  UNL     1     -22.721  14.659  21.652  1.00  0.00     0.192 C 
ATOM     14  H3  UNL     1     -24.285  17.855  23.188  1.00  0.00     0.194 HD
BRANCH  10  15
HETATM   15  O2  UNL     1     -20.473  16.688  22.755  1.00  0.00    -0.366 OA
ATOM     16  H2  UNL     1     -20.182  16.396  21.899  1.00  0.00     0.213 HD
ENDBRANCH  10  15
BRANCH  13  17
HETATM   17  C6  UNL     1     -22.634  13.806  20.449  1.00  0.00     0.187 C 
BRANCH  17  18
HETATM   18  O4  UNL     1     -21.512  14.189  19.714  1.00  0.00    -0.390 OA
ATOM     19  H4  UNL     1     -21.268  15.069  19.974  1.00  0.00     0.210 HD
ENDBRANCH  17  18
BRANCH  17  20
HETATM   20  C7  UNL     1     -22.571  12.343  20.665  1.00  0.00     0.288 C 
BRANCH  20  21
HETATM   21  N4  UNL     1     -22.773  11.964  22.046  1.00  0.00    -0.066 N 
ATOM     22  H43 UNL     1     -22.114  12.448  22.656  1.00  0.00     0.275 HD
ATOM     23  H42 UNL     1     -23.647  12.349  22.404  1.00  0.00     0.275 HD
ATOM     24  H41 UNL     1     -22.732  10.956  22.195  1.00  0.00     0.275 HD
ENDBRANCH  20  21
BRANCH  20  25
HETATM   25  C8  UNL     1     -21.266  11.852  20.137  1.00  0.00     0.213 C 
HETATM   26  O5  UNL     1     -21.295  11.355  19.019  1.00  0.00    -0.290 OA
BRANCH  25  27
HETATM   27  C9  UNL     1     -19.985  11.915  20.826  1.00  0.00     0.327 C 
BRANCH  27  28
HETATM   28  O6  UNL     1     -20.013  12.398  22.103  1.00  0.00    -0.365 OA
ATOM     29  H6  UNL     1     -19.757  11.790  22.786  1.00  0.00     0.213 HD
ENDBRANCH  27  28
BRANCH  27  30
HETATM   30  O7  UNL     1     -19.089  12.706  20.089  1.00  0.00    -0.365 OA
ATOM     31  H7  UNL     1     -18.211  12.604  20.436  1.00  0.00     0.213 HD
ENDBRANCH  27  30
ENDBRANCH  25  27
ENDBRANCH  20  25
ENDBRANCH  17  20
ENDBRANCH  13  17
BRANCH  11  32
HETATM   32  N5  UNL     1     -22.262  16.821  20.575  1.00  0.00    -0.067 N 
ATOM     33  H53 UNL     1     -22.665  17.706  20.265  1.00  0.00     0.275 HD
ATOM     34  H52 UNL     1     -21.444  17.220  21.035  1.00  0.00     0.275 HD
ATOM     35  H51 UNL     1     -22.036  16.181  19.813  1.00  0.00     0.275 HD
ENDBRANCH  11  32
ENDBRANCH   7   8
ENDBRANCH   5   7
ENDBRANCH   3   5
TORSDOF 13
ENDMDL
MODEL 3
REMARK VINA RESULT: -5.106218510      3.100      3.386
REMARK  13 active torsions:
REMARK  status: ('A' for Active; 'I' for Inactive)
REMARK    1  A    between atoms: N2_3  and  C2_5 
REMARK    2  A    between atoms: C2_5  and  O1_7 
REMARK    3  A    between atoms: O1_7  and  N3_8 
REMARK    4  A    between atoms: C4_11  and  O2_12 
REMARK    5  A    between atoms: C5_15  and  C6_16 
REMARK    6  A    between atoms: C6_16  and  O4_17 
REMARK    7  A    between atoms: C6_16  and  C7_19 
REMARK    8  A    between atoms: C7_19  and  N4_20 
REMARK    9  A    between atoms: C7_19  and  C8_24 
REMARK   10  A    between atoms: C8_24  and  C9_26 
REMARK   11  A    between atoms: C9_26  and  O6_27 
REMARK   12  A    between atoms: C9_26  and  O7_29 
REMARK   13  A    between atoms: C10_31  and  N5_32 
ROOT
HETATM    1  N1  UNL     1     -19.998  19.541  25.058  1.00  0.00    -0.172 NA
HETATM    2  C1  UNL     1     -20.816  18.728  24.972  1.00  0.00     0.184 C 
HETATM    3  N2  UNL     1     -21.792  17.734  24.853  1.00  0.00    -0.263 N 
ATOM      4  H2  UNL     1     -22.531  17.682  25.555  1.00  0.00     0.181 HD
ENDROOT
BRANCH   3   5
HETATM    5  C2  UNL     1     -21.788  16.798  23.790  1.00  0.00     0.248 C 
HETATM    6  S1  UNL     1     -21.710  15.213  24.157  1.00  0.00    -0.030 SA
BRANCH   5   7
HETATM    7  O1  UNL     1     -21.847  17.207  22.481  1.00  0.00    -0.207 OA
BRANCH   7   8
HETATM    8  N3  UNL     1     -22.907  16.878  21.692  1.00  0.00    -0.259 N 
HETATM    9  C3  UNL     1     -22.719  16.140  20.679  1.00  0.00     0.098 C 
HETATM   10  C4  UNL     1     -21.453  15.538  20.179  1.00  0.00     0.308 C 
HETATM   11  C10 UNL     1     -23.704  15.640  19.662  1.00  0.00     0.267 C 
HETATM   12  O3  UNL     1     -21.799  14.473  19.375  1.00  0.00    -0.346 OA
HETATM   13  C5  UNL     1     -23.163  14.267  19.498  1.00  0.00     0.192 C 
ATOM     14  H3  UNL     1     -23.842  17.222  21.913  1.00  0.00     0.194 HD
BRANCH  10  15
HETATM   15  O2  UNL     1     -20.842  16.497  19.352  1.00  0.00    -0.366 OA
ATOM     16  H2  UNL     1     -20.217  16.034  18.807  1.00  0.00     0.213 HD
ENDBRANCH  10  15
BRANCH  13  17
HETATM   17  C6  UNL     1     -23.698  13.466  18.377  1.00  0.00     0.187 C 
BRANCH  17  18
HETATM   18  O4  UNL     1     -23.188  13.978  17.185  1.00  0.00    -0.390 OA
ATOM     19  H4  UNL     1     -23.900  14.058  16.562  1.00  0.00     0.210 HD
ENDBRANCH  17  18
BRANCH  17  20
HETATM   20  C7  UNL     1     -23.437  12.010  18.409  1.00  0.00     0.288 C 
BRANCH  20  21
HETATM   21  N4  UNL     1     -22.160  11.673  18.999  1.00  0.00    -0.066 N 
ATOM     22  H43 UNL     1     -21.402  12.179  18.538  1.00  0.00     0.275 HD
ATOM     23  H42 UNL     1     -22.079  12.067  19.936  1.00  0.00     0.275 HD
ATOM     24  H41 UNL     1     -21.974  10.670  19.008  1.00  0.00     0.275 HD
ENDBRANCH  20  21
BRANCH  20  25
HETATM   25  C8  UNL     1     -23.564  11.487  17.017  1.00  0.00     0.213 C 
HETATM   26  O5  UNL     1     -24.631  11.704  16.460  1.00  0.00    -0.290 OA
BRANCH  25  27
HETATM   27  C9  UNL     1     -22.543  10.754  16.282  1.00  0.00     0.327 C 
BRANCH  27  28
HETATM   28  O6  UNL     1     -21.975   9.697  16.933  1.00  0.00    -0.365 OA
ATOM     29  H6  UNL     1     -22.084   8.847  16.524  1.00  0.00     0.213 HD
ENDBRANCH  27  28
BRANCH  27  30
HETATM   30  O7  UNL     1     -21.511  11.629  15.906  1.00  0.00    -0.365 OA
ATOM     31  H7  UNL     1     -21.316  11.517  14.983  1.00  0.00     0.213 HD
ENDBRANCH  27  30
ENDBRANCH  25  27
ENDBRANCH  20  25
ENDBRANCH  17  20
ENDBRANCH  13  17
BRANCH  11  32
HETATM   32  N5  UNL     1     -23.546  16.498  18.540  1.00  0.00    -0.067 N 
ATOM     33  H53 UNL     1     -22.780  17.166  18.635  1.00  0.00     0.275 HD
ATOM     34  H52 UNL     1     -23.189  16.029  17.708  1.00  0.00     0.275 HD
ATOM     35  H51 UNL     1     -24.459  16.934  18.408  1.00  0.00     0.275 HD
ENDBRANCH  11  32
ENDBRANCH   7   8
ENDBRANCH   5   7
ENDBRANCH   3   5
TORSDOF 13
ENDMDL
MODEL 4
REMARK VINA RESULT: -5.037113753      1.269      1.428
REMARK  13 active torsions:
REMARK  status: ('A' for Active; 'I' for Inactive)
REMARK    1  A    between atoms: N2_3  and  C2_5 
REMARK    2  A    between atoms: C2_5  and  O1_7 
REMARK    3  A    between atoms: O1_7  and  N3_8 
REMARK    4  A    between atoms: C4_11  and  O2_12 
REMARK    5  A    between atoms: C5_15  and  C6_16 
REMARK    6  A    between atoms: C6_16  and  O4_17 
REMARK    7  A    between atoms: C6_16  and  C7_19 
REMARK    8  A    between atoms: C7_19  and  N4_20 
REMARK    9  A    between atoms: C7_19  and  C8_24 
REMARK   10  A    between atoms: C8_24  and  C9_26 
REMARK   11  A    between atoms: C9_26  and  O6_27 
REMARK   12  A    between atoms: C9_26  and  O7_29 
REMARK   13  A    between atoms: C10_31  and  N5_32 
ROOT
HETATM    1  N1  UNL     1     -19.530  20.163  26.138  1.00  0.00    -0.172 NA
HETATM    2  C1  UNL     1     -20.511  20.186  25.526  1.00  0.00     0.184 C 
HETATM    3  N2  UNL     1     -21.708  20.207  24.803  1.00  0.00    -0.263 N 
ATOM      4  H2  UNL     1     -21.727  20.663  23.891  1.00  0.00     0.181 HD
ENDROOT
BRANCH   3   5
HETATM    5  C2  UNL     1     -22.896  19.615  25.299  1.00  0.00     0.248 C 
HETATM    6  S1  UNL     1     -24.043  20.591  25.922  1.00  0.00    -0.030 SA
BRANCH   5   7
HETATM    7  O1  UNL     1     -23.086  18.257  25.259  1.00  0.00    -0.207 OA
BRANCH   7   8
HETATM    8  N3  UNL     1     -23.467  17.636  24.108  1.00  0.00    -0.259 N 
HETATM    9  C3  UNL     1     -22.640  16.889  23.505  1.00  0.00     0.098 C 
HETATM   10  C4  UNL     1     -21.235  16.557  23.869  1.00  0.00     0.308 C 
HETATM   11  C10 UNL     1     -22.808  16.102  22.237  1.00  0.00     0.267 C 
HETATM   12  O3  UNL     1     -20.912  15.385  23.219  1.00  0.00    -0.346 OA
HETATM   13  C5  UNL     1     -22.066  14.881  22.643  1.00  0.00     0.192 C 
ATOM     14  H3  UNL     1     -24.407  17.772  23.735  1.00  0.00     0.194 HD
BRANCH  10  15
HETATM   15  O2  UNL     1     -20.423  17.568  23.325  1.00  0.00    -0.366 OA
ATOM     16  H2  UNL     1     -20.791  17.791  22.478  1.00  0.00     0.213 HD
ENDBRANCH  10  15
BRANCH  13  17
HETATM   17  C6  UNL     1     -21.762  13.899  21.582  1.00  0.00     0.187 C 
BRANCH  17  18
HETATM   18  O4  UNL     1     -20.861  14.477  20.688  1.00  0.00    -0.390 OA
ATOM     19  H4  UNL     1     -20.014  14.065  20.805  1.00  0.00     0.210 HD
ENDBRANCH  17  18
BRANCH  17  20
HETATM   20  C7  UNL     1     -21.217  12.593  22.013  1.00  0.00     0.288 C 
BRANCH  20  21
HETATM   21  N4  UNL     1     -20.019  12.713  22.814  1.00  0.00    -0.066 N 
ATOM     22  H43 UNL     1     -20.079  13.518  23.438  1.00  0.00     0.275 HD
ATOM     23  H42 UNL     1     -19.970  11.966  23.508  1.00  0.00     0.275 HD
ATOM     24  H41 UNL     1     -19.166  12.748  22.256  1.00  0.00     0.275 HD
ENDBRANCH  20  21
BRANCH  20  25
HETATM   25  C8  UNL     1     -20.994  11.760  20.796  1.00  0.00     0.213 C 
HETATM   26  O5  UNL     1     -21.974  11.168  20.365  1.00  0.00    -0.290 OA
BRANCH  25  27
HETATM   27  C9  UNL     1     -19.730  11.596  20.091  1.00  0.00     0.327 C 
BRANCH  27  28
HETATM   28  O6  UNL     1     -18.912  12.688  20.062  1.00  0.00    -0.365 OA
ATOM     29  H6  UNL     1     -17.986  12.520  20.197  1.00  0.00     0.213 HD
ENDBRANCH  27  28
BRANCH  27  30
HETATM   30  O7  UNL     1     -19.976  11.211  18.762  1.00  0.00    -0.365 OA
ATOM     31  H7  UNL     1     -20.801  11.579  18.470  1.00  0.00     0.213 HD
ENDBRANCH  27  30
ENDBRANCH  25  27
ENDBRANCH  20  25
ENDBRANCH  17  20
ENDBRANCH  13  17
BRANCH  11  32
HETATM   32  N5  UNL     1     -22.187  16.889  21.229  1.00  0.00    -0.067 N 
ATOM     33  H53 UNL     1     -22.602  17.814  21.113  1.00  0.00     0.275 HD
ATOM     34  H52 UNL     1     -21.251  17.211  21.474  1.00  0.00     0.275 HD
ATOM     35  H51 UNL     1     -22.218  16.314  20.386  1.00  0.00     0.275 HD
ENDBRANCH  11  32
ENDBRANCH   7   8
ENDBRANCH   5   7
ENDBRANCH   3   5
TORSDOF 13
ENDMDL
MODEL 5
REMARK VINA RESULT: -4.982023588      1.454      1.838
REMARK  13 active torsions:
REMARK  status: ('A' for Active; 'I' for Inactive)
REMARK    1  A    between atoms: N2_3  and  C2_5 
REMARK    2  A    between atoms: C2_5  and  O1_7 
REMARK    3  A    between atoms: O1_7  and  N3_8 
REMARK    4  A    between atoms: C4_11  and  O2_12 
REMARK    5  A    between atoms: C5_15  and  C6_16 
REMARK    6  A    between atoms: C6_16  and  O4_17 
REMARK    7  A    between atoms: C6_16  and  C7_19 
REMARK    8  A    between atoms: C7_19  and  N4_20 
REMARK    9  A    between atoms: C7_19  and  C8_24 
REMARK   10  A    between atoms: C8_24  and  C9_26 
REMARK   11  A    between atoms: C9_26  and  O6_27 
REMARK   12  A    between atoms: C9_26  and  O7_29 
REMARK   13  A    between atoms: C10_31  and  N5_32 
ROOT
HETATM    1  N1  UNL     1     -19.713  19.378  25.505  1.00  0.00    -0.172 NA
HETATM    2  C1  UNL     1     -20.790  19.793  25.576  1.00  0.00     0.184 C 
HETATM    3  N2  UNL     1     -22.100  20.274  25.662  1.00  0.00    -0.263 N 
ATOM      4  H2  UNL     1     -22.251  21.265  25.854  1.00  0.00     0.181 HD
ENDROOT
BRANCH   3   5
HETATM    5  C2  UNL     1     -23.224  19.430  25.491  1.00  0.00     0.248 C 
HETATM    6  S1  UNL     1     -24.707  20.056  25.745  1.00  0.00    -0.030 SA
BRANCH   5   7
HETATM    7  O1  UNL     1     -23.079  18.116  25.121  1.00  0.00    -0.207 OA
BRANCH   7   8
HETATM    8  N3  UNL     1     -23.511  17.679  23.905  1.00  0.00    -0.259 N 
HETATM    9  C3  UNL     1     -22.755  16.938  23.210  1.00  0.00     0.098 C 
HETATM   10  C4  UNL     1     -21.388  16.435  23.521  1.00  0.00     0.308 C 
HETATM   11  C10 UNL     1     -22.989  16.330  21.856  1.00  0.00     0.267 C 
HETATM   12  O3  UNL     1     -21.173  15.326  22.730  1.00  0.00    -0.346 OA
HETATM   13  C5  UNL     1     -22.366  15.006  22.105  1.00  0.00     0.192 C 
ATOM     14  H3  UNL     1     -24.433  17.946  23.559  1.00  0.00     0.194 HD
BRANCH  10  15
HETATM   15  O2  UNL     1     -20.483  17.425  23.098  1.00  0.00    -0.366 OA
ATOM     16  H2  UNL     1     -20.425  17.360  22.152  1.00  0.00     0.213 HD
ENDBRANCH  10  15
BRANCH  13  17
HETATM   17  C6  UNL     1     -22.150  14.137  20.930  1.00  0.00     0.187 C 
BRANCH  17  18
HETATM   18  O4  UNL     1     -20.883  14.400  20.411  1.00  0.00    -0.390 OA
ATOM     19  H4  UNL     1     -20.234  14.034  20.999  1.00  0.00     0.210 HD
ENDBRANCH  17  18
BRANCH  17  20
HETATM   20  C7  UNL     1     -22.272  12.677  21.143  1.00  0.00     0.288 C 
BRANCH  20  21
HETATM   21  N4  UNL     1     -21.459  12.193  22.236  1.00  0.00    -0.066 N 
ATOM     22  H43 UNL     1     -21.462  11.173  22.267  1.00  0.00     0.275 HD
ATOM     23  H42 UNL     1     -20.469  12.353  22.052  1.00  0.00     0.275 HD
ATOM     24  H41 UNL     1     -21.729  12.583  23.140  1.00  0.00     0.275 HD
ENDBRANCH  20  21
BRANCH  20  25
HETATM   25  C8  UNL     1     -21.944  11.993  19.858  1.00  0.00     0.213 C 
HETATM   26  O5  UNL     1     -22.592  12.349  18.883  1.00  0.00    -0.290 OA
BRANCH  25  27
HETATM   27  C9  UNL     1     -20.938  10.958  19.672  1.00  0.00     0.327 C 
BRANCH  27  28
HETATM   28  O6  UNL     1     -21.011   9.889  20.518  1.00  0.00    -0.365 OA
ATOM     29  H6  UNL     1     -20.182   9.520  20.799  1.00  0.00     0.213 HD
ENDBRANCH  27  28
BRANCH  27  30
HETATM   30  O7  UNL     1     -19.655  11.517  19.800  1.00  0.00    -0.365 OA
ATOM     31  H7  UNL     1     -19.238  11.558  18.948  1.00  0.00     0.213 HD
ENDBRANCH  27  30
ENDBRANCH  25  27
ENDBRANCH  20  25
ENDBRANCH  17  20
ENDBRANCH  13  17
BRANCH  11  32
HETATM   32  N5  UNL     1     -22.294  17.174  20.947  1.00  0.00    -0.067 N 
ATOM     33  H53 UNL     1     -21.582  17.758  21.388  1.00  0.00     0.275 HD
ATOM     34  H52 UNL     1     -21.664  16.674  20.320  1.00  0.00     0.275 HD
ATOM     35  H51 UNL     1     -23.022  17.703  20.466  1.00  0.00     0.275 HD
ENDBRANCH  11  32
ENDBRANCH   7   8
ENDBRANCH   5   7
ENDBRANCH   3   5
TORSDOF 13
ENDMDL
