MODEL 1
REMARK VINA RESULT: -4.730267340      0.000      0.000
REMARK  4 active torsions:
REMARK  status: ('A' for Active; 'I' for Inactive)
REMARK    1  A    between atoms: C2_2  and  N1_3 
REMARK    2  A    between atoms: C2_2  and  C3_7 
REMARK    3  A    between atoms: C3_7  and  N2_8 
REMARK    4  A    between atoms: C3_7  and  C4_12 
ROOT
HETATM    1  C3  UNL     1      92.665  43.314  49.921  1.00  0.00     0.266 C 
ENDROOT
BRANCH   1   2
HETATM    2  C2  UNL     1      91.208  43.177  50.409  1.00  0.00     0.215 C 
HETATM    3  C1  UNL     1      91.071  41.916  51.244  1.00  0.00     0.042 C 
BRANCH   2   4
HETATM    4  N1  UNL     1      90.846  44.304  51.231  1.00  0.00    -0.073 N 
ATOM      5  H13 UNL     1      91.404  44.364  52.083  1.00  0.00     0.274 HD
ATOM      6  H12 UNL     1      91.124  45.196  50.821  1.00  0.00     0.274 HD
ATOM      7  H11 UNL     1      89.845  44.253  51.420  1.00  0.00     0.274 HD
ENDBRANCH   2   4
ENDBRANCH   1   2
BRANCH   1   8
HETATM    8  N2  UNL     1      93.414  42.464  50.825  1.00  0.00    -0.068 N 
ATOM      9  H23 UNL     1      93.444  42.797  51.788  1.00  0.00     0.275 HD
ATOM     10  H22 UNL     1      92.965  41.572  51.032  1.00  0.00     0.275 HD
ATOM     11  H21 UNL     1      94.328  42.381  50.379  1.00  0.00     0.275 HD
ENDBRANCH   1   8
BRANCH   1  12
HETATM   12  C4  UNL     1      92.708  42.888  48.515  1.00  0.00     0.084 A 
HETATM   13  N3  UNL     1      91.825  43.099  47.533  1.00  0.00    -0.351 N 
HETATM   14  C5  UNL     1      92.246  42.505  46.398  1.00  0.00     0.182 A 
ATOM     15  H3  UNL     1      90.961  43.632  47.629  1.00  0.00     0.166 HD
HETATM   16  N4  UNL     1      93.417  41.893  46.619  1.00  0.00    -0.339 N 
HETATM   17  C6  UNL     1      93.715  42.122  47.932  1.00  0.00     0.142 A 
ATOM     18  H4  UNL     1      93.971  41.364  45.946  1.00  0.00     0.167 HD
HETATM   19  N5  UNL     1      94.890  41.658  48.575  1.00  0.00    -0.081 NA
ENDBRANCH   1  12
TORSDOF 4
ENDMDL
MODEL 2
REMARK VINA RESULT: -4.713319174      1.907      3.114
REMARK  4 active torsions:
REMARK  status: ('A' for Active; 'I' for Inactive)
REMARK    1  A    between atoms: C2_2  and  N1_3 
REMARK    2  A    between atoms: C2_2  and  C3_7 
REMARK    3  A    between atoms: C3_7  and  N2_8 
REMARK    4  A    between atoms: C3_7  and  C4_12 
ROOT
HETATM    1  C3  UNL     1      93.102  42.135  47.745  1.00  0.00     0.266 C 
ENDROOT
BRANCH   1   2
HETATM    2  C2  UNL     1      93.809  42.851  48.914  1.00  0.00     0.215 C 
HETATM    3  C1  UNL     1      92.771  43.522  49.798  1.00  0.00     0.042 C 
BRANCH   2   4
HETATM    4  N1  UNL     1      94.538  41.902  49.717  1.00  0.00    -0.073 N 
ATOM      5  H13 UNL     1      95.318  41.478  49.213  1.00  0.00     0.274 HD
ATOM      6  H12 UNL     1      95.078  42.347  50.459  1.00  0.00     0.274 HD
ATOM      7  H11 UNL     1      93.878  41.210  50.072  1.00  0.00     0.274 HD
ENDBRANCH   2   4
ENDBRANCH   1   2
BRANCH   1   8
HETATM    8  N2  UNL     1      92.056  43.059  47.355  1.00  0.00    -0.068 N 
ATOM      9  H23 UNL     1      91.830  43.761  48.059  1.00  0.00     0.275 HD
ATOM     10  H22 UNL     1      92.328  43.719  46.627  1.00  0.00     0.275 HD
ATOM     11  H21 UNL     1      91.277  42.451  47.102  1.00  0.00     0.275 HD
ENDBRANCH   1   8
BRANCH   1  12
HETATM   12  C4  UNL     1      94.107  41.884  46.702  1.00  0.00     0.084 A 
HETATM   13  N3  UNL     1      94.494  42.663  45.687  1.00  0.00    -0.351 N 
HETATM   14  C5  UNL     1      95.427  42.029  44.948  1.00  0.00     0.182 A 
ATOM     15  H3  UNL     1      94.137  43.600  45.499  1.00  0.00     0.166 HD
HETATM   16  N4  UNL     1      95.667  40.819  45.470  1.00  0.00    -0.339 N 
HETATM   17  C6  UNL     1      94.851  40.715  46.560  1.00  0.00     0.142 A 
ATOM     18  H4  UNL     1      96.323  40.118  45.124  1.00  0.00     0.167 HD
HETATM   19  N5  UNL     1      94.804  39.586  47.416  1.00  0.00    -0.081 NA
ENDBRANCH   1  12
TORSDOF 4
ENDMDL
MODEL 3
REMARK VINA RESULT: -4.664738721      2.236      4.711
REMARK  4 active torsions:
REMARK  status: ('A' for Active; 'I' for Inactive)
REMARK    1  A    between atoms: C2_2  and  N1_3 
REMARK    2  A    between atoms: C2_2  and  C3_7 
REMARK    3  A    between atoms: C3_7  and  N2_8 
REMARK    4  A    between atoms: C3_7  and  C4_12 
ROOT
HETATM    1  C3  UNL     1      95.027  42.046  46.083  1.00  0.00     0.266 C 
ENDROOT
BRANCH   1   2
HETATM    2  C2  UNL     1      95.144  40.517  45.914  1.00  0.00     0.215 C 
HETATM    3  C1  UNL     1      96.400  40.190  45.125  1.00  0.00     0.042 C 
BRANCH   2   4
HETATM    4  N1  UNL     1      95.240  39.876  47.201  1.00  0.00    -0.073 N 
ATOM      5  H13 UNL     1      94.339  39.545  47.544  1.00  0.00     0.274 HD
ATOM      6  H12 UNL     1      95.713  38.973  47.157  1.00  0.00     0.274 HD
ATOM      7  H11 UNL     1      95.692  40.524  47.847  1.00  0.00     0.274 HD
ENDBRANCH   2   4
ENDBRANCH   1   2
BRANCH   1   8
HETATM    8  N2  UNL     1      95.226  42.559  44.742  1.00  0.00    -0.068 N 
ATOM      9  H23 UNL     1      96.026  42.158  44.253  1.00  0.00     0.275 HD
ATOM     10  H22 UNL     1      94.524  42.257  44.068  1.00  0.00     0.275 HD
ATOM     11  H21 UNL     1      95.277  43.569  44.873  1.00  0.00     0.275 HD
ENDBRANCH   1   8
BRANCH   1  12
HETATM   12  C4  UNL     1      93.700  42.333  46.649  1.00  0.00     0.084 A 
HETATM   13  N3  UNL     1      92.521  42.462  46.032  1.00  0.00    -0.351 N 
HETATM   14  C5  UNL     1      91.560  42.755  46.931  1.00  0.00     0.182 A 
ATOM     15  H3  UNL     1      92.371  42.355  45.029  1.00  0.00     0.166 HD
HETATM   16  N4  UNL     1      92.096  42.821  48.156  1.00  0.00    -0.339 N 
HETATM   17  C6  UNL     1      93.428  42.562  47.995  1.00  0.00     0.142 A 
ATOM     18  H4  UNL     1      91.611  43.024  49.031  1.00  0.00     0.167 HD
HETATM   19  N5  UNL     1      94.366  42.517  49.057  1.00  0.00    -0.081 NA
ENDBRANCH   1  12
TORSDOF 4
ENDMDL
MODEL 4
REMARK VINA RESULT: -4.590909330      2.261      4.784
REMARK  4 active torsions:
REMARK  status: ('A' for Active; 'I' for Inactive)
REMARK    1  A    between atoms: C2_2  and  N1_3 
REMARK    2  A    between atoms: C2_2  and  C3_7 
REMARK    3  A    between atoms: C3_7  and  N2_8 
REMARK    4  A    between atoms: C3_7  and  C4_12 
ROOT
HETATM    1  C3  UNL     1      94.684  40.881  46.273  1.00  0.00     0.266 C 
ENDROOT
BRANCH   1   2
HETATM    2  C2  UNL     1      95.843  41.709  45.682  1.00  0.00     0.215 C 
HETATM    3  C1  UNL     1      96.876  40.774  45.076  1.00  0.00     0.042 C 
BRANCH   2   4
HETATM    4  N1  UNL     1      95.358  42.581  44.641  1.00  0.00    -0.073 N 
ATOM      5  H13 UNL     1      95.766  42.370  43.730  1.00  0.00     0.274 HD
ATOM      6  H12 UNL     1      94.383  42.402  44.401  1.00  0.00     0.274 HD
ATOM      7  H11 UNL     1      95.521  43.545  44.931  1.00  0.00     0.274 HD
ENDBRANCH   2   4
ENDBRANCH   1   2
BRANCH   1   8
HETATM    8  N2  UNL     1      95.351  39.801  46.971  1.00  0.00    -0.068 N 
ATOM      9  H23 UNL     1      95.899  39.186  46.370  1.00  0.00     0.275 HD
ATOM     10  H22 UNL     1      96.128  40.098  47.561  1.00  0.00     0.275 HD
ATOM     11  H21 UNL     1      94.596  39.334  47.474  1.00  0.00     0.275 HD
ENDBRANCH   1   8
BRANCH   1  12
HETATM   12  C4  UNL     1      93.898  41.769  47.142  1.00  0.00     0.084 A 
HETATM   13  N3  UNL     1      92.799  42.479  46.865  1.00  0.00    -0.351 N 
HETATM   14  C5  UNL     1      92.419  43.183  47.950  1.00  0.00     0.182 A 
ATOM     15  H3  UNL     1      92.320  42.486  45.965  1.00  0.00     0.166 HD
HETATM   16  N4  UNL     1      93.265  42.944  48.960  1.00  0.00    -0.339 N 
HETATM   17  C6  UNL     1      94.191  42.067  48.471  1.00  0.00     0.142 A 
ATOM     18  H4  UNL     1      93.227  43.336  49.901  1.00  0.00     0.167 HD
HETATM   19  N5  UNL     1      95.266  41.538  49.228  1.00  0.00    -0.081 NA
ENDBRANCH   1  12
TORSDOF 4
ENDMDL
MODEL 5
REMARK VINA RESULT: -4.521598104      2.537      5.386
REMARK  4 active torsions:
REMARK  status: ('A' for Active; 'I' for Inactive)
REMARK    1  A    between atoms: C2_2  and  N1_3 
REMARK    2  A    between atoms: C2_2  and  C3_7 
REMARK    3  A    between atoms: C3_7  and  N2_8 
REMARK    4  A    between atoms: C3_7  and  C4_12 
ROOT
HETATM    1  C3  UNL     1      94.983  40.729  45.936  1.00  0.00     0.266 C 
ENDROOT
BRANCH   1   2
HETATM    2  C2  UNL     1      95.493  41.862  45.022  1.00  0.00     0.215 C 
HETATM    3  C1  UNL     1      96.831  41.464  44.421  1.00  0.00     0.042 C 
BRANCH   2   4
HETATM    4  N1  UNL     1      94.566  42.093  43.943  1.00  0.00    -0.073 N 
ATOM      5  H13 UNL     1      94.992  41.970  43.025  1.00  0.00     0.274 HD
ATOM      6  H12 UNL     1      93.860  41.360  43.868  1.00  0.00     0.274 HD
ATOM      7  H11 UNL     1      94.157  43.019  44.067  1.00  0.00     0.274 HD
ENDBRANCH   2   4
ENDBRANCH   1   2
BRANCH   1   8
HETATM    8  N2  UNL     1      96.110  39.821  46.024  1.00  0.00    -0.068 N 
ATOM      9  H23 UNL     1      95.852  38.839  46.115  1.00  0.00     0.275 HD
ATOM     10  H22 UNL     1      96.634  39.716  45.155  1.00  0.00     0.275 HD
ATOM     11  H21 UNL     1      96.656  40.187  46.803  1.00  0.00     0.275 HD
ENDBRANCH   1   8
BRANCH   1  12
HETATM   12  C4  UNL     1      94.591  41.331  47.218  1.00  0.00     0.084 A 
HETATM   13  N3  UNL     1      95.162  41.219  48.422  1.00  0.00    -0.351 N 
HETATM   14  C5  UNL     1      94.456  41.919  49.334  1.00  0.00     0.182 A 
ATOM     15  H3  UNL     1      96.006  40.684  48.621  1.00  0.00     0.166 HD
HETATM   16  N4  UNL     1      93.408  42.503  48.739  1.00  0.00    -0.339 N 
HETATM   17  C6  UNL     1      93.479  42.145  47.423  1.00  0.00     0.142 A 
ATOM     18  H4  UNL     1      92.702  43.094  49.178  1.00  0.00     0.167 HD
HETATM   19  N5  UNL     1      92.560  42.569  46.431  1.00  0.00    -0.081 NA
ENDBRANCH   1  12
TORSDOF 4
ENDMDL
