MODEL 1
REMARK VINA RESULT: -6.743561570      0.000      0.000
REMARK  4 active torsions:
REMARK  status: ('A' for Active; 'I' for Inactive)
REMARK       I    between atoms: C1_2  and  N3_7 
REMARK    1  A    between atoms: N2_3  and  O1_5 
REMARK    2  A    between atoms: N3_7  and  C2_9 
REMARK    3  A    between atoms: C2_9  and  C3_10 
REMARK    4  A    between atoms: C5_12  and  N4_13 
ROOT
HETATM    1  C3  UNL     1      15.316  16.586  20.200  1.00  0.00     0.039 A 
HETATM    2  C4  UNL     1      15.987  17.632  19.398  1.00  0.00     0.044 A 
HETATM    3  C5  UNL     1      14.535  17.340  19.193  1.00  0.00     0.229 A 
ENDROOT
BRANCH   1   4
HETATM    4  C2  UNL     1      15.126  16.889  21.668  1.00  0.00     0.129 C 
BRANCH   4   5
HETATM    5  N3  UNL     1      13.757  16.588  22.022  1.00  0.00    -0.363 N 
HETATM    6  C1  UNL     1      13.305  16.532  23.363  1.00  0.00     0.208 C 
HETATM    7  N1  UNL     1      14.094  15.891  24.335  1.00  0.00    -0.062 NA
HETATM    8  N2  UNL     1      12.192  17.063  23.687  1.00  0.00    -0.241 N 
ATOM      9  H2  UNL     1      11.902  17.007  24.664  1.00  0.00     0.197 HD
ATOM     10  H3  UNL     1      13.088  16.408  21.273  1.00  0.00     0.162 HD
BRANCH   8  11
HETATM   11  O1  UNL     1      11.358  17.706  22.803  1.00  0.00    -0.287 OA
ATOM     12  H1  UNL     1      11.603  17.947  21.918  1.00  0.00     0.244 HD
ENDBRANCH   8  11
ENDBRANCH   4   5
ENDBRANCH   1   4
BRANCH   3  13
HETATM   13  N4  UNL     1      14.150  16.770  17.946  1.00  0.00     0.093 N 
HETATM   14  C6  UNL     1      13.275  17.566  17.144  1.00  0.00     0.273 C 
HETATM   15  C7  UNL     1      13.216  16.934  15.748  1.00  0.00     0.030 C 
HETATM   16  C8  UNL     1      12.806  15.499  15.806  1.00  0.00     0.003 C 
HETATM   17  C9  UNL     1      12.462  15.134  17.215  1.00  0.00     0.030 C 
HETATM   18  C10 UNL     1      13.551  15.473  18.194  1.00  0.00     0.273 C 
ENDBRANCH   3  13
TORSDOF 4
ENDMDL
MODEL 2
REMARK VINA RESULT: -6.642684360      1.371      1.954
REMARK  4 active torsions:
REMARK  status: ('A' for Active; 'I' for Inactive)
REMARK       I    between atoms: C1_2  and  N3_7 
REMARK    1  A    between atoms: N2_3  and  O1_5 
REMARK    2  A    between atoms: N3_7  and  C2_9 
REMARK    3  A    between atoms: C2_9  and  C3_10 
REMARK    4  A    between atoms: C5_12  and  N4_13 
ROOT
HETATM    1  C3  UNL     1      13.702  16.491  19.750  1.00  0.00     0.039 A 
HETATM    2  C4  UNL     1      13.777  15.077  19.320  1.00  0.00     0.044 A 
HETATM    3  C5  UNL     1      14.423  16.149  18.501  1.00  0.00     0.229 A 
ENDROOT
BRANCH   1   4
HETATM    4  C2  UNL     1      14.489  16.855  20.986  1.00  0.00     0.129 C 
BRANCH   4   5
HETATM    5  N3  UNL     1      13.733  16.439  22.147  1.00  0.00    -0.363 N 
HETATM    6  C1  UNL     1      14.096  16.797  23.469  1.00  0.00     0.208 C 
HETATM    7  N1  UNL     1      15.447  16.738  23.858  1.00  0.00    -0.062 NA
HETATM    8  N2  UNL     1      13.204  17.175  24.298  1.00  0.00    -0.241 N 
ATOM      9  H2  UNL     1      13.504  17.430  25.239  1.00  0.00     0.197 HD
ATOM     10  H3  UNL     1      12.903  15.862  22.007  1.00  0.00     0.162 HD
BRANCH   8  11
HETATM   11  O1  UNL     1      11.864  17.261  24.003  1.00  0.00    -0.287 OA
ATOM     12  H1  UNL     1      11.169  17.127  24.637  1.00  0.00     0.244 HD
ENDBRANCH   8  11
ENDBRANCH   4   5
ENDBRANCH   1   4
BRANCH   3  13
HETATM   13  N4  UNL     1      13.876  16.409  17.212  1.00  0.00     0.093 N 
HETATM   14  C6  UNL     1      14.748  16.158  16.108  1.00  0.00     0.273 C 
HETATM   15  C7  UNL     1      13.905  16.206  14.827  1.00  0.00     0.030 C 
HETATM   16  C8  UNL     1      13.163  17.496  14.700  1.00  0.00     0.003 C 
HETATM   17  C9  UNL     1      13.556  18.410  15.816  1.00  0.00     0.030 C 
HETATM   18  C10 UNL     1      13.410  17.780  17.174  1.00  0.00     0.273 C 
ENDBRANCH   3  13
TORSDOF 4
ENDMDL
MODEL 3
REMARK VINA RESULT: -6.620142354      1.735      2.302
REMARK  4 active torsions:
REMARK  status: ('A' for Active; 'I' for Inactive)
REMARK       I    between atoms: C1_2  and  N3_7 
REMARK    1  A    between atoms: N2_3  and  O1_5 
REMARK    2  A    between atoms: N3_7  and  C2_9 
REMARK    3  A    between atoms: C2_9  and  C3_10 
REMARK    4  A    between atoms: C5_12  and  N4_13 
ROOT
HETATM    1  C3  UNL     1      15.967  16.764  21.119  1.00  0.00     0.039 A 
HETATM    2  C4  UNL     1      17.387  17.132  20.922  1.00  0.00     0.044 A 
HETATM    3  C5  UNL     1      16.311  17.842  20.162  1.00  0.00     0.229 A 
ENDROOT
BRANCH   1   4
HETATM    4  C2  UNL     1      15.364  17.122  22.456  1.00  0.00     0.129 C 
BRANCH   4   5
HETATM    5  N3  UNL     1      13.962  16.767  22.434  1.00  0.00    -0.363 N 
HETATM    6  C1  UNL     1      13.212  16.522  23.610  1.00  0.00     0.208 C 
HETATM    7  N1  UNL     1      13.778  15.756  24.646  1.00  0.00    -0.062 NA
HETATM    8  N2  UNL     1      12.035  16.997  23.731  1.00  0.00    -0.241 N 
ATOM      9  H2  UNL     1      11.528  16.804  24.595  1.00  0.00     0.197 HD
ATOM     10  H3  UNL     1      13.493  16.690  21.531  1.00  0.00     0.162 HD
BRANCH   8  11
HETATM   11  O1  UNL     1      11.407  17.754  22.770  1.00  0.00    -0.287 OA
ATOM     12  H1  UNL     1      10.997  18.595  22.937  1.00  0.00     0.244 HD
ENDBRANCH   8  11
ENDBRANCH   4   5
ENDBRANCH   1   4
BRANCH   3  13
HETATM   13  N4  UNL     1      16.268  17.650  18.752  1.00  0.00     0.093 N 
HETATM   14  C6  UNL     1      16.835  18.700  17.966  1.00  0.00     0.273 C 
HETATM   15  C7  UNL     1      16.963  18.189  16.525  1.00  0.00     0.030 C 
HETATM   16  C8  UNL     1      15.656  17.704  15.990  1.00  0.00     0.003 C 
HETATM   17  C9  UNL     1      14.577  17.970  16.992  1.00  0.00     0.030 C 
HETATM   18  C10 UNL     1      14.892  17.424  18.357  1.00  0.00     0.273 C 
ENDBRANCH   3  13
TORSDOF 4
ENDMDL
MODEL 4
REMARK VINA RESULT: -6.564894626      2.225      2.524
REMARK  4 active torsions:
REMARK  status: ('A' for Active; 'I' for Inactive)
REMARK       I    between atoms: C1_2  and  N3_7 
REMARK    1  A    between atoms: N2_3  and  O1_5 
REMARK    2  A    between atoms: N3_7  and  C2_9 
REMARK    3  A    between atoms: C2_9  and  C3_10 
REMARK    4  A    between atoms: C5_12  and  N4_13 
ROOT
HETATM    1  C3  UNL     1      16.753  17.242  19.475  1.00  0.00     0.039 A 
HETATM    2  C4  UNL     1      16.563  18.174  18.342  1.00  0.00     0.044 A 
HETATM    3  C5  UNL     1      15.379  17.565  19.023  1.00  0.00     0.229 A 
ENDROOT
BRANCH   1   4
HETATM    4  C2  UNL     1      17.276  17.845  20.756  1.00  0.00     0.129 C 
BRANCH   4   5
HETATM    5  N3  UNL     1      16.601  17.212  21.867  1.00  0.00    -0.363 N 
HETATM    6  C1  UNL     1      16.969  17.433  23.217  1.00  0.00     0.208 C 
HETATM    7  N1  UNL     1      18.331  17.460  23.570  1.00  0.00    -0.062 NA
HETATM    8  N2  UNL     1      16.072  17.612  24.105  1.00  0.00    -0.241 N 
ATOM      9  H2  UNL     1      16.376  17.774  25.066  1.00  0.00     0.197 HD
ATOM     10  H3  UNL     1      15.827  16.578  21.670  1.00  0.00     0.162 HD
BRANCH   8  11
HETATM   11  O1  UNL     1      14.721  17.601  23.850  1.00  0.00    -0.287 OA
ATOM     12  H1  UNL     1      14.055  17.446  24.509  1.00  0.00     0.244 HD
ENDBRANCH   8  11
ENDBRANCH   4   5
ENDBRANCH   1   4
BRANCH   3  13
HETATM   13  N4  UNL     1      14.589  16.649  18.273  1.00  0.00     0.093 N 
HETATM   14  C6  UNL     1      13.253  17.069  17.991  1.00  0.00     0.273 C 
HETATM   15  C7  UNL     1      12.672  16.108  16.946  1.00  0.00     0.030 C 
HETATM   16  C8  UNL     1      12.751  14.686  17.394  1.00  0.00     0.003 C 
HETATM   17  C9  UNL     1      13.278  14.632  18.793  1.00  0.00     0.030 C 
HETATM   18  C10 UNL     1      14.573  15.376  18.965  1.00  0.00     0.273 C 
ENDBRANCH   3  13
TORSDOF 4
ENDMDL
MODEL 5
REMARK VINA RESULT: -6.431786695      2.138      2.622
REMARK  4 active torsions:
REMARK  status: ('A' for Active; 'I' for Inactive)
REMARK       I    between atoms: C1_2  and  N3_7 
REMARK    1  A    between atoms: N2_3  and  O1_5 
REMARK    2  A    between atoms: N3_7  and  C2_9 
REMARK    3  A    between atoms: C2_9  and  C3_10 
REMARK    4  A    between atoms: C5_12  and  N4_13 
ROOT
HETATM    1  C3  UNL     1      15.234  17.187  20.032  1.00  0.00     0.039 A 
HETATM    2  C4  UNL     1      13.949  16.610  20.486  1.00  0.00     0.044 A 
HETATM    3  C5  UNL     1      14.628  16.072  19.267  1.00  0.00     0.229 A 
ENDROOT
BRANCH   1   4
HETATM    4  C2  UNL     1      16.433  16.921  20.911  1.00  0.00     0.129 C 
BRANCH   4   5
HETATM    5  N3  UNL     1      15.996  16.920  22.290  1.00  0.00    -0.363 N 
HETATM    6  C1  UNL     1      16.738  17.528  23.332  1.00  0.00     0.208 C 
HETATM    7  N1  UNL     1      18.134  17.359  23.379  1.00  0.00    -0.062 NA
HETATM    8  N2  UNL     1      16.146  18.228  24.217  1.00  0.00    -0.241 N 
ATOM      9  H2  UNL     1      16.714  18.655  24.949  1.00  0.00     0.197 HD
ATOM     10  H3  UNL     1      15.115  16.461  22.522  1.00  0.00     0.162 HD
BRANCH   8  11
HETATM   11  O1  UNL     1      14.788  18.444  24.248  1.00  0.00    -0.287 OA
ATOM     12  H1  UNL     1      14.380  19.219  24.616  1.00  0.00     0.244 HD
ENDBRANCH   8  11
ENDBRANCH   4   5
ENDBRANCH   1   4
BRANCH   3  13
HETATM   13  N4  UNL     1      13.983  16.272  18.014  1.00  0.00     0.093 N 
HETATM   14  C6  UNL     1      13.254  15.152  17.507  1.00  0.00     0.273 C 
HETATM   15  C7  UNL     1      12.403  15.642  16.328  1.00  0.00     0.030 C 
HETATM   16  C8  UNL     1      13.234  16.315  15.286  1.00  0.00     0.003 C 
HETATM   17  C9  UNL     1      14.680  16.207  15.654  1.00  0.00     0.030 C 
HETATM   18  C10 UNL     1      14.973  16.698  17.045  1.00  0.00     0.273 C 
ENDBRANCH   3  13
TORSDOF 4
ENDMDL
