MODEL 1
REMARK VINA RESULT: -8.227301557      0.000      0.000
REMARK  16 active torsions:
REMARK  status: ('A' for Active; 'I' for Inactive)
REMARK    1  A    between atoms: C4_4  and  C5_5 
REMARK    2  A    between atoms: C5_5  and  C6_6 
REMARK    3  A    between atoms: C6_6  and  C7_7 
REMARK    4  A    between atoms: C7_7  and  O1_8 
REMARK    5  A    between atoms: C13_16  and  C14_17 
REMARK    6  A    between atoms: N1_19  and  C16_20 
REMARK    7  A    between atoms: C16_20  and  C17_21 
REMARK    8  A    between atoms: C21_29  and  N4_30 
REMARK    9  A    between atoms: N4_30  and  C22_32 
REMARK   10  A    between atoms: C22_32  and  C23_33 
REMARK   11  A    between atoms: C23_33  and  C24_34 
REMARK   12  A    between atoms: C24_34  and  N5_35 
REMARK   13  A    between atoms: N5_35  and  C27_38 
REMARK   14  A    between atoms: C27_38  and  C28_39 
REMARK   15  A    between atoms: C29_40  and  C30_41 
REMARK   16  A    between atoms: C30_41  and  O3_42 
ROOT
HETATM    1  C17 UNL     1      19.796  26.434  14.484  1.00  0.00     0.144 C 
HETATM    2  C18 UNL     1      20.928  25.526  14.389  1.00  0.00     0.060 C 
HETATM    3  N2  UNL     1      21.838  24.792  14.292  1.00  0.00    -0.197 NA
ENDROOT
BRANCH   1   4
HETATM    4  C16 UNL     1      19.807  27.207  15.791  1.00  0.00     0.146 C 
BRANCH   4   5
HETATM    5  N1  UNL     1      20.242  26.317  16.876  1.00  0.00    -0.318 N 
HETATM    6  C15 UNL     1      19.457  25.321  17.304  1.00  0.00     0.127 A 
HETATM    7  C14 UNL     1      19.801  24.446  18.338  1.00  0.00     0.092 A 
HETATM    8  N7  UNL     1      20.991  24.624  18.924  1.00  0.00    -0.217 N 
HETATM    9  C20 UNL     1      21.825  25.630  18.518  1.00  0.00     0.212 A 
HETATM   10  N6  UNL     1      21.588  23.943  19.857  1.00  0.00    -0.123 N 
HETATM   11  C19 UNL     1      21.428  26.474  17.482  1.00  0.00     0.294 A 
HETATM   12  N3  UNL     1      22.952  25.546  19.239  1.00  0.00    -0.168 N 
HETATM   13  O2  UNL     1      22.225  27.381  17.147  1.00  0.00    -0.264 OA
HETATM   14  C21 UNL     1      22.831  24.513  20.072  1.00  0.00     0.698 A 
ATOM     15  H3  UNL     1      23.759  26.164  19.165  1.00  0.00     0.186 HD
ATOM     16  H6  UNL     1      21.208  23.133  20.345  1.00  0.00     0.206 HD
BRANCH   7  17
HETATM   17  C13 UNL     1      18.864  23.353  18.649  1.00  0.00     0.041 A 
HETATM   18  C2  UNL     1      18.137  23.030  19.749  1.00  0.00    -0.042 A 
HETATM   19  C1  UNL     1      18.201  23.850  21.042  1.00  0.00     0.049 C 
HETATM   20  C3  UNL     1      17.268  22.003  19.653  1.00  0.00     0.022 A 
HETATM   21  C4  UNL     1      17.169  21.357  18.462  1.00  0.00    -0.016 A 
HETATM   22  S1  UNL     1      18.284  22.182  17.489  1.00  0.00    -0.092 SA
BRANCH  21  23
HETATM   23  C5  UNL     1      16.310  20.199  18.047  1.00  0.00     0.053 C 
BRANCH  23  24
HETATM   24  C6  UNL     1      15.153  20.077  19.017  1.00  0.00     0.069 C 
BRANCH  24  25
HETATM   25  C7  UNL     1      13.959  19.489  18.357  1.00  0.00     0.046 C 
HETATM   26  C8  UNL     1      12.945  18.933  19.024  1.00  0.00    -0.051 C 
HETATM   27  C9  UNL     1      12.811  18.795  20.495  1.00  0.00     0.037 C 
HETATM   28  C12 UNL     1      11.705  18.347  18.460  1.00  0.00     0.037 C 
HETATM   29  C10 UNL     1      12.198  17.400  20.618  1.00  0.00     0.005 C 
HETATM   30  C11 UNL     1      11.227  17.364  19.473  1.00  0.00     0.005 C 
BRANCH  25  31
HETATM   31  O1  UNL     1      13.856  19.494  16.967  1.00  0.00    -0.365 OA
ATOM     32  H1  UNL     1      14.146  18.742  16.465  1.00  0.00     0.217 HD
ENDBRANCH  25  31
ENDBRANCH  24  25
ENDBRANCH  23  24
ENDBRANCH  21  23
ENDBRANCH   7  17
BRANCH  14  33
HETATM   33  N4  UNL     1      23.616  24.038  20.943  1.00  0.00    -0.204 N 
ATOM     34  H4  UNL     1      23.407  23.059  21.140  1.00  0.00     0.183 HD
BRANCH  33  35
HETATM   35  C22 UNL     1      24.680  24.492  21.698  1.00  0.00     0.080 C 
BRANCH  35  36
HETATM   36  C23 UNL     1      26.071  24.016  21.439  1.00  0.00     0.073 C 
BRANCH  36  37
HETATM   37  C24 UNL     1      26.724  24.717  20.309  1.00  0.00     0.242 C 
BRANCH  37  38
HETATM   38  N5  UNL     1      27.389  23.808  19.387  1.00  0.00    -0.065 N 
HETATM   39  C25 UNL     1      28.329  23.019  20.147  1.00  0.00     0.273 C 
HETATM   40  C26 UNL     1      26.430  22.898  18.781  1.00  0.00     0.273 C 
BRANCH  38  41
HETATM   41  C27 UNL     1      28.079  24.500  18.316  1.00  0.00     0.330 C 
BRANCH  41  42
HETATM   42  C28 UNL     1      27.162  25.282  17.482  1.00  0.00    -0.076 C 
HETATM   43  C29 UNL     1      26.399  25.902  16.778  1.00  0.00    -0.079 C 
BRANCH  43  44
HETATM   44  C30 UNL     1      25.471  26.643  15.899  1.00  0.00     0.257 C 
BRANCH  44  45
HETATM   45  O3  UNL     1      24.264  25.952  15.764  1.00  0.00    -0.389 OA
ATOM     46  H3  UNL     1      23.775  26.275  15.016  1.00  0.00     0.210 HD
ENDBRANCH  44  45
ENDBRANCH  43  44
ENDBRANCH  41  42
ENDBRANCH  38  41
ENDBRANCH  37  38
ENDBRANCH  36  37
ENDBRANCH  35  36
ENDBRANCH  33  35
ENDBRANCH  14  33
ENDBRANCH   4   5
ENDBRANCH   1   4
TORSDOF 16
ENDMDL
MODEL 2
REMARK VINA RESULT: -8.185411381      1.732      2.551
REMARK  16 active torsions:
REMARK  status: ('A' for Active; 'I' for Inactive)
REMARK    1  A    between atoms: C4_4  and  C5_5 
REMARK    2  A    between atoms: C5_5  and  C6_6 
REMARK    3  A    between atoms: C6_6  and  C7_7 
REMARK    4  A    between atoms: C7_7  and  O1_8 
REMARK    5  A    between atoms: C13_16  and  C14_17 
REMARK    6  A    between atoms: N1_19  and  C16_20 
REMARK    7  A    between atoms: C16_20  and  C17_21 
REMARK    8  A    between atoms: C21_29  and  N4_30 
REMARK    9  A    between atoms: N4_30  and  C22_32 
REMARK   10  A    between atoms: C22_32  and  C23_33 
REMARK   11  A    between atoms: C23_33  and  C24_34 
REMARK   12  A    between atoms: C24_34  and  N5_35 
REMARK   13  A    between atoms: N5_35  and  C27_38 
REMARK   14  A    between atoms: C27_38  and  C28_39 
REMARK   15  A    between atoms: C29_40  and  C30_41 
REMARK   16  A    between atoms: C30_41  and  O3_42 
ROOT
HETATM    1  C17 UNL     1      19.555  26.393  14.599  1.00  0.00     0.144 C 
HETATM    2  C18 UNL     1      18.178  25.946  14.744  1.00  0.00     0.060 C 
HETATM    3  N2  UNL     1      17.072  25.571  14.846  1.00  0.00    -0.197 NA
ENDROOT
BRANCH   1   4
HETATM    4  C16 UNL     1      19.996  27.237  15.782  1.00  0.00     0.146 C 
BRANCH   4   5
HETATM    5  N1  UNL     1      20.439  26.353  16.869  1.00  0.00    -0.318 N 
HETATM    6  C15 UNL     1      19.627  25.411  17.362  1.00  0.00     0.127 A 
HETATM    7  C14 UNL     1      19.978  24.546  18.403  1.00  0.00     0.092 A 
HETATM    8  N7  UNL     1      21.203  24.677  18.925  1.00  0.00    -0.217 N 
HETATM    9  C20 UNL     1      22.066  25.628  18.451  1.00  0.00     0.212 A 
HETATM   10  N6  UNL     1      21.812  23.991  19.847  1.00  0.00    -0.123 N 
HETATM   11  C19 UNL     1      21.660  26.465  17.411  1.00  0.00     0.294 A 
HETATM   12  N3  UNL     1      23.221  25.505  19.118  1.00  0.00    -0.168 N 
HETATM   13  O2  UNL     1      22.484  27.320  17.013  1.00  0.00    -0.264 OA
HETATM   14  C21 UNL     1      23.090  24.501  19.984  1.00  0.00     0.698 A 
ATOM     15  H3  UNL     1      24.054  26.078  18.987  1.00  0.00     0.186 HD
ATOM     16  H6  UNL     1      21.416  23.214  20.376  1.00  0.00     0.206 HD
BRANCH   7  17
HETATM   17  C13 UNL     1      19.003  23.512  18.790  1.00  0.00     0.041 A 
HETATM   18  C2  UNL     1      18.263  23.296  19.908  1.00  0.00    -0.042 A 
HETATM   19  C1  UNL     1      18.353  24.207  21.137  1.00  0.00     0.049 C 
HETATM   20  C3  UNL     1      17.360  22.295  19.885  1.00  0.00     0.022 A 
HETATM   21  C4  UNL     1      17.242  21.565  18.744  1.00  0.00    -0.016 A 
HETATM   22  S1  UNL     1      18.386  22.278  17.717  1.00  0.00    -0.092 SA
BRANCH  21  23
HETATM   23  C5  UNL     1      16.345  20.409  18.412  1.00  0.00     0.053 C 
BRANCH  23  24
HETATM   24  C6  UNL     1      14.910  20.893  18.399  1.00  0.00     0.069 C 
BRANCH  24  25
HETATM   25  C7  UNL     1      14.211  20.467  17.159  1.00  0.00     0.046 C 
HETATM   26  C8  UNL     1      14.080  21.243  16.081  1.00  0.00    -0.051 C 
HETATM   27  C9  UNL     1      14.581  22.629  15.910  1.00  0.00     0.037 C 
HETATM   28  C12 UNL     1      13.428  20.899  14.795  1.00  0.00     0.037 C 
HETATM   29  C10 UNL     1      13.427  23.281  15.150  1.00  0.00     0.005 C 
HETATM   30  C11 UNL     1      13.005  22.199  14.198  1.00  0.00     0.005 C 
BRANCH  25  31
HETATM   31  O1  UNL     1      13.646  19.195  17.078  1.00  0.00    -0.365 OA
ATOM     32  H1  UNL     1      12.716  19.097  16.911  1.00  0.00     0.217 HD
ENDBRANCH  25  31
ENDBRANCH  24  25
ENDBRANCH  23  24
ENDBRANCH  21  23
ENDBRANCH   7  17
BRANCH  14  33
HETATM   33  N4  UNL     1      23.893  24.009  20.829  1.00  0.00    -0.204 N 
ATOM     34  H4  UNL     1      23.794  22.995  20.893  1.00  0.00     0.183 HD
BRANCH  33  35
HETATM   35  C22 UNL     1      24.869  24.477  21.688  1.00  0.00     0.080 C 
BRANCH  35  36
HETATM   36  C23 UNL     1      26.047  23.637  22.052  1.00  0.00     0.073 C 
BRANCH  36  37
HETATM   37  C24 UNL     1      27.191  23.809  21.128  1.00  0.00     0.242 C 
BRANCH  37  38
HETATM   38  N5  UNL     1      27.524  22.589  20.406  1.00  0.00    -0.065 N 
HETATM   39  C25 UNL     1      28.892  22.701  19.959  1.00  0.00     0.273 C 
HETATM   40  C26 UNL     1      27.436  21.432  21.283  1.00  0.00     0.273 C 
BRANCH  38  41
HETATM   41  C27 UNL     1      26.653  22.352  19.271  1.00  0.00     0.330 C 
BRANCH  41  42
HETATM   42  C28 UNL     1      26.518  23.539  18.422  1.00  0.00    -0.076 C 
HETATM   43  C29 UNL     1      26.378  24.512  17.717  1.00  0.00    -0.079 C 
BRANCH  43  44
HETATM   44  C30 UNL     1      26.188  25.688  16.845  1.00  0.00     0.257 C 
BRANCH  44  45
HETATM   45  O3  UNL     1      24.885  25.722  16.341  1.00  0.00    -0.389 OA
ATOM     46  H3  UNL     1      24.704  26.562  15.935  1.00  0.00     0.210 HD
ENDBRANCH  44  45
ENDBRANCH  43  44
ENDBRANCH  41  42
ENDBRANCH  38  41
ENDBRANCH  37  38
ENDBRANCH  36  37
ENDBRANCH  35  36
ENDBRANCH  33  35
ENDBRANCH  14  33
ENDBRANCH   4   5
ENDBRANCH   1   4
TORSDOF 16
ENDMDL
MODEL 3
REMARK VINA RESULT: -8.184381246      3.479     12.013
REMARK  16 active torsions:
REMARK  status: ('A' for Active; 'I' for Inactive)
REMARK    1  A    between atoms: C4_4  and  C5_5 
REMARK    2  A    between atoms: C5_5  and  C6_6 
REMARK    3  A    between atoms: C6_6  and  C7_7 
REMARK    4  A    between atoms: C7_7  and  O1_8 
REMARK    5  A    between atoms: C13_16  and  C14_17 
REMARK    6  A    between atoms: N1_19  and  C16_20 
REMARK    7  A    between atoms: C16_20  and  C17_21 
REMARK    8  A    between atoms: C21_29  and  N4_30 
REMARK    9  A    between atoms: N4_30  and  C22_32 
REMARK   10  A    between atoms: C22_32  and  C23_33 
REMARK   11  A    between atoms: C23_33  and  C24_34 
REMARK   12  A    between atoms: C24_34  and  N5_35 
REMARK   13  A    between atoms: N5_35  and  C27_38 
REMARK   14  A    between atoms: C27_38  and  C28_39 
REMARK   15  A    between atoms: C29_40  and  C30_41 
REMARK   16  A    between atoms: C30_41  and  O3_42 
ROOT
HETATM    1  C17 UNL     1      19.144  23.604  20.830  1.00  0.00     0.144 C 
HETATM    2  C18 UNL     1      19.023  22.211  21.229  1.00  0.00     0.060 C 
HETATM    3  N2  UNL     1      18.943  21.090  21.563  1.00  0.00    -0.197 NA
ENDROOT
BRANCH   1   4
HETATM    4  C16 UNL     1      17.813  24.171  20.368  1.00  0.00     0.146 C 
BRANCH   4   5
HETATM    5  N1  UNL     1      17.703  24.024  18.911  1.00  0.00    -0.318 N 
HETATM    6  C15 UNL     1      18.452  24.766  18.087  1.00  0.00     0.127 A 
HETATM    7  C14 UNL     1      18.389  24.687  16.692  1.00  0.00     0.092 A 
HETATM    8  N7  UNL     1      17.528  23.810  16.164  1.00  0.00    -0.217 N 
HETATM    9  C20 UNL     1      16.743  23.031  16.970  1.00  0.00     0.212 A 
HETATM   10  N6  UNL     1      17.296  23.487  14.926  1.00  0.00    -0.123 N 
HETATM   11  C19 UNL     1      16.847  23.155  18.356  1.00  0.00     0.294 A 
HETATM   12  N3  UNL     1      16.018  22.224  16.183  1.00  0.00    -0.168 N 
HETATM   13  O2  UNL     1      16.106  22.421  19.051  1.00  0.00    -0.264 OA
HETATM   14  C21 UNL     1      16.342  22.485  14.918  1.00  0.00     0.698 A 
ATOM     15  H3  UNL     1      15.338  21.532  16.497  1.00  0.00     0.186 HD
ATOM     16  H6  UNL     1      17.740  23.899  14.106  1.00  0.00     0.206 HD
BRANCH   7  17
HETATM   17  C13 UNL     1      19.328  25.517  15.918  1.00  0.00     0.041 A 
HETATM   18  C2  UNL     1      19.185  26.334  14.843  1.00  0.00    -0.042 A 
HETATM   19  C1  UNL     1      17.838  26.535  14.142  1.00  0.00     0.049 C 
HETATM   20  C3  UNL     1      20.256  27.053  14.449  1.00  0.00     0.022 A 
HETATM   21  C4  UNL     1      21.411  26.920  15.153  1.00  0.00    -0.016 A 
HETATM   22  S1  UNL     1      20.997  25.798  16.353  1.00  0.00    -0.092 SA
BRANCH  21  23
HETATM   23  C5  UNL     1      22.749  27.572  14.967  1.00  0.00     0.053 C 
BRANCH  23  24
HETATM   24  C6  UNL     1      23.424  27.696  16.317  1.00  0.00     0.069 C 
BRANCH  24  25
HETATM   25  C7  UNL     1      24.679  26.904  16.365  1.00  0.00     0.046 C 
HETATM   26  C8  UNL     1      25.884  27.411  16.091  1.00  0.00    -0.051 C 
HETATM   27  C9  UNL     1      26.199  28.806  15.698  1.00  0.00     0.037 C 
HETATM   28  C12 UNL     1      27.190  26.711  16.137  1.00  0.00     0.037 C 
HETATM   29  C10 UNL     1      27.274  28.591  14.634  1.00  0.00     0.005 C 
HETATM   30  C11 UNL     1      28.081  27.459  15.204  1.00  0.00     0.005 C 
BRANCH  25  31
HETATM   31  O1  UNL     1      24.640  25.553  16.707  1.00  0.00    -0.365 OA
ATOM     32  H1  UNL     1      25.446  25.085  16.891  1.00  0.00     0.217 HD
ENDBRANCH  25  31
ENDBRANCH  24  25
ENDBRANCH  23  24
ENDBRANCH  21  23
ENDBRANCH   7  17
BRANCH  14  33
HETATM   33  N4  UNL     1      15.933  21.994  13.826  1.00  0.00    -0.204 N 
ATOM     34  H4  UNL     1      16.532  22.265  13.046  1.00  0.00     0.183 HD
BRANCH  33  35
HETATM   35  C22 UNL     1      14.890  21.189  13.408  1.00  0.00     0.080 C 
BRANCH  35  36
HETATM   36  C23 UNL     1      13.515  21.354  13.964  1.00  0.00     0.073 C 
BRANCH  36  37
HETATM   37  C24 UNL     1      12.846  20.063  14.247  1.00  0.00     0.242 C 
BRANCH  37  38
HETATM   38  N5  UNL     1      12.105  20.073  15.501  1.00  0.00    -0.065 N 
HETATM   39  C25 UNL     1      11.124  21.129  15.425  1.00  0.00     0.273 C 
HETATM   40  C26 UNL     1      11.396  18.818  15.689  1.00  0.00     0.273 C 
BRANCH  38  41
HETATM   41  C27 UNL     1      12.958  20.277  16.656  1.00  0.00     0.330 C 
BRANCH  41  42
HETATM   42  C28 UNL     1      12.591  19.404  17.774  1.00  0.00    -0.076 C 
HETATM   43  C29 UNL     1      12.290  18.707  18.715  1.00  0.00    -0.079 C 
BRANCH  43  44
HETATM   44  C30 UNL     1      11.933  17.871  19.880  1.00  0.00     0.257 C 
BRANCH  44  45
HETATM   45  O3  UNL     1      11.539  18.670  20.957  1.00  0.00    -0.389 OA
ATOM     46  H3  UNL     1      11.783  18.265  21.781  1.00  0.00     0.210 HD
ENDBRANCH  44  45
ENDBRANCH  43  44
ENDBRANCH  41  42
ENDBRANCH  38  41
ENDBRANCH  37  38
ENDBRANCH  36  37
ENDBRANCH  35  36
ENDBRANCH  33  35
ENDBRANCH  14  33
ENDBRANCH   4   5
ENDBRANCH   1   4
TORSDOF 16
ENDMDL
MODEL 4
REMARK VINA RESULT: -8.152287311      3.416     11.753
REMARK  16 active torsions:
REMARK  status: ('A' for Active; 'I' for Inactive)
REMARK    1  A    between atoms: C4_4  and  C5_5 
REMARK    2  A    between atoms: C5_5  and  C6_6 
REMARK    3  A    between atoms: C6_6  and  C7_7 
REMARK    4  A    between atoms: C7_7  and  O1_8 
REMARK    5  A    between atoms: C13_16  and  C14_17 
REMARK    6  A    between atoms: N1_19  and  C16_20 
REMARK    7  A    between atoms: C16_20  and  C17_21 
REMARK    8  A    between atoms: C21_29  and  N4_30 
REMARK    9  A    between atoms: N4_30  and  C22_32 
REMARK   10  A    between atoms: C22_32  and  C23_33 
REMARK   11  A    between atoms: C23_33  and  C24_34 
REMARK   12  A    between atoms: C24_34  and  N5_35 
REMARK   13  A    between atoms: N5_35  and  C27_38 
REMARK   14  A    between atoms: C27_38  and  C28_39 
REMARK   15  A    between atoms: C29_40  and  C30_41 
REMARK   16  A    between atoms: C30_41  and  O3_42 
ROOT
HETATM    1  C17 UNL     1      19.498  23.585  20.911  1.00  0.00     0.144 C 
HETATM    2  C18 UNL     1      20.583  24.548  21.019  1.00  0.00     0.060 C 
HETATM    3  N2  UNL     1      21.473  25.308  21.103  1.00  0.00    -0.197 NA
ENDROOT
BRANCH   1   4
HETATM    4  C16 UNL     1      18.198  24.253  20.497  1.00  0.00     0.146 C 
BRANCH   4   5
HETATM    5  N1  UNL     1      18.004  24.077  19.051  1.00  0.00    -0.318 N 
HETATM    6  C15 UNL     1      18.678  24.826  18.171  1.00  0.00     0.127 A 
HETATM    7  C14 UNL     1      18.533  24.722  16.785  1.00  0.00     0.092 A 
HETATM    8  N7  UNL     1      17.668  23.812  16.324  1.00  0.00    -0.217 N 
HETATM    9  C20 UNL     1      16.956  23.024  17.189  1.00  0.00     0.212 A 
HETATM   10  N6  UNL     1      17.370  23.461  15.107  1.00  0.00    -0.123 N 
HETATM   11  C19 UNL     1      17.141  23.175  18.563  1.00  0.00     0.294 A 
HETATM   12  N3  UNL     1      16.209  22.184  16.460  1.00  0.00    -0.168 N 
HETATM   13  O2  UNL     1      16.466  22.433  19.314  1.00  0.00    -0.264 OA
HETATM   14  C21 UNL     1      16.447  22.433  15.173  1.00  0.00     0.698 A 
ATOM     15  H3  UNL     1      15.570  21.479  16.825  1.00  0.00     0.186 HD
ATOM     16  H6  UNL     1      17.751  23.872  14.255  1.00  0.00     0.206 HD
BRANCH   7  17
HETATM   17  C13 UNL     1      19.398  25.565  15.942  1.00  0.00     0.041 A 
HETATM   18  C2  UNL     1      19.172  26.333  14.845  1.00  0.00    -0.042 A 
HETATM   19  C1  UNL     1      17.789  26.443  14.195  1.00  0.00     0.049 C 
HETATM   20  C3  UNL     1      20.190  27.086  14.380  1.00  0.00     0.022 A 
HETATM   21  C4  UNL     1      21.378  27.034  15.038  1.00  0.00    -0.016 A 
HETATM   22  S1  UNL     1      21.068  25.941  16.295  1.00  0.00    -0.092 SA
BRANCH  21  23
HETATM   23  C5  UNL     1      22.674  27.741  14.772  1.00  0.00     0.053 C 
BRANCH  23  24
HETATM   24  C6  UNL     1      23.439  27.865  16.073  1.00  0.00     0.069 C 
BRANCH  24  25
HETATM   25  C7  UNL     1      24.656  27.014  16.063  1.00  0.00     0.046 C 
HETATM   26  C8  UNL     1      25.892  27.494  15.914  1.00  0.00    -0.051 C 
HETATM   27  C9  UNL     1      26.285  28.914  15.733  1.00  0.00     0.037 C 
HETATM   28  C12 UNL     1      27.165  26.733  15.918  1.00  0.00     0.037 C 
HETATM   29  C10 UNL     1      27.401  28.794  14.696  1.00  0.00     0.005 C 
HETATM   30  C11 UNL     1      28.131  27.558  15.137  1.00  0.00     0.005 C 
BRANCH  25  31
HETATM   31  O1  UNL     1      24.543  25.632  16.212  1.00  0.00    -0.365 OA
ATOM     32  H1  UNL     1      24.999  25.051  15.615  1.00  0.00     0.217 HD
ENDBRANCH  25  31
ENDBRANCH  24  25
ENDBRANCH  23  24
ENDBRANCH  21  23
ENDBRANCH   7  17
BRANCH  14  33
HETATM   33  N4  UNL     1      15.987  21.912  14.116  1.00  0.00    -0.204 N 
ATOM     34  H4  UNL     1      16.730  21.516  13.540  1.00  0.00     0.183 HD
BRANCH  33  35
HETATM   35  C22 UNL     1      14.746  21.737  13.534  1.00  0.00     0.080 C 
BRANCH  35  36
HETATM   36  C23 UNL     1      13.496  21.780  14.349  1.00  0.00     0.073 C 
BRANCH  36  37
HETATM   37  C24 UNL     1      13.251  20.528  15.101  1.00  0.00     0.242 C 
BRANCH  37  38
HETATM   38  N5  UNL     1      11.856  20.113  15.071  1.00  0.00    -0.065 N 
HETATM   39  C25 UNL     1      11.057  21.277  14.768  1.00  0.00     0.273 C 
HETATM   40  C26 UNL     1      11.634  19.134  14.019  1.00  0.00     0.273 C 
BRANCH  38  41
HETATM   41  C27 UNL     1      11.416  19.527  16.322  1.00  0.00     0.330 C 
BRANCH  41  42
HETATM   42  C28 UNL     1      12.459  19.578  17.351  1.00  0.00    -0.076 C 
HETATM   43  C29 UNL     1      13.337  19.633  18.181  1.00  0.00    -0.079 C 
BRANCH  43  44
HETATM   44  C30 UNL     1      14.426  19.700  19.176  1.00  0.00     0.257 C 
BRANCH  44  45
HETATM   45  O3  UNL     1      15.664  19.845  18.542  1.00  0.00    -0.389 OA
ATOM     46  H3  UNL     1      16.223  20.436  19.032  1.00  0.00     0.210 HD
ENDBRANCH  44  45
ENDBRANCH  43  44
ENDBRANCH  41  42
ENDBRANCH  38  41
ENDBRANCH  37  38
ENDBRANCH  36  37
ENDBRANCH  35  36
ENDBRANCH  33  35
ENDBRANCH  14  33
ENDBRANCH   4   5
ENDBRANCH   1   4
TORSDOF 16
ENDMDL
MODEL 5
REMARK VINA RESULT: -8.131350661      2.758     10.282
REMARK  16 active torsions:
REMARK  status: ('A' for Active; 'I' for Inactive)
REMARK    1  A    between atoms: C4_4  and  C5_5 
REMARK    2  A    between atoms: C5_5  and  C6_6 
REMARK    3  A    between atoms: C6_6  and  C7_7 
REMARK    4  A    between atoms: C7_7  and  O1_8 
REMARK    5  A    between atoms: C13_16  and  C14_17 
REMARK    6  A    between atoms: N1_19  and  C16_20 
REMARK    7  A    between atoms: C16_20  and  C17_21 
REMARK    8  A    between atoms: C21_29  and  N4_30 
REMARK    9  A    between atoms: N4_30  and  C22_32 
REMARK   10  A    between atoms: C22_32  and  C23_33 
REMARK   11  A    between atoms: C23_33  and  C24_34 
REMARK   12  A    between atoms: C24_34  and  N5_35 
REMARK   13  A    between atoms: N5_35  and  C27_38 
REMARK   14  A    between atoms: C27_38  and  C28_39 
REMARK   15  A    between atoms: C29_40  and  C30_41 
REMARK   16  A    between atoms: C30_41  and  O3_42 
ROOT
HETATM    1  C17 UNL     1      21.636  27.694  14.693  1.00  0.00     0.144 C 
HETATM    2  C18 UNL     1      22.975  27.436  15.200  1.00  0.00     0.060 C 
HETATM    3  N2  UNL     1      24.054  27.246  15.618  1.00  0.00    -0.197 NA
ENDROOT
BRANCH   1   4
HETATM    4  C16 UNL     1      20.938  26.410  14.280  1.00  0.00     0.146 C 
BRANCH   4   5
HETATM    5  N1  UNL     1      20.117  25.924  15.398  1.00  0.00    -0.318 N 
HETATM    6  C15 UNL     1      20.685  25.473  16.522  1.00  0.00     0.127 A 
HETATM    7  C14 UNL     1      19.967  24.985  17.618  1.00  0.00     0.092 A 
HETATM    8  N7  UNL     1      18.632  24.978  17.524  1.00  0.00    -0.217 N 
HETATM    9  C20 UNL     1      18.010  25.430  16.392  1.00  0.00     0.212 A 
HETATM   10  N6  UNL     1      17.722  24.638  18.388  1.00  0.00    -0.123 N 
HETATM   11  C19 UNL     1      18.778  25.903  15.329  1.00  0.00     0.294 A 
HETATM   12  N3  UNL     1      16.687  25.349  16.591  1.00  0.00    -0.168 N 
HETATM   13  O2  UNL     1      18.163  26.305  14.315  1.00  0.00    -0.264 OA
HETATM   14  C21 UNL     1      16.484  24.864  17.815  1.00  0.00     0.698 A 
ATOM     15  H3  UNL     1      15.963  25.611  15.922  1.00  0.00     0.186 HD
ATOM     16  H6  UNL     1      17.891  24.269  19.324  1.00  0.00     0.206 HD
BRANCH   7  17
HETATM   17  C13 UNL     1      20.730  24.591  18.814  1.00  0.00     0.041 A 
HETATM   18  C2  UNL     1      20.658  23.533  19.663  1.00  0.00    -0.042 A 
HETATM   19  C1  UNL     1      19.603  22.432  19.508  1.00  0.00     0.049 C 
HETATM   20  C3  UNL     1      21.609  23.417  20.611  1.00  0.00     0.022 A 
HETATM   21  C4  UNL     1      22.584  24.363  20.659  1.00  0.00    -0.016 A 
HETATM   22  S1  UNL     1      22.168  25.402  19.387  1.00  0.00    -0.092 SA
BRANCH  21  23
HETATM   23  C5  UNL     1      23.759  24.509  21.581  1.00  0.00     0.053 C 
BRANCH  23  24
HETATM   24  C6  UNL     1      25.029  24.250  20.797  1.00  0.00     0.069 C 
BRANCH  24  25
HETATM   25  C7  UNL     1      25.679  25.522  20.392  1.00  0.00     0.046 C 
HETATM   26  C8  UNL     1      26.016  25.812  19.133  1.00  0.00    -0.051 C 
HETATM   27  C9  UNL     1      25.822  24.957  17.936  1.00  0.00     0.037 C 
HETATM   28  C12 UNL     1      26.640  27.059  18.628  1.00  0.00     0.037 C 
HETATM   29  C10 UNL     1      27.119  25.206  17.167  1.00  0.00     0.005 C 
HETATM   30  C11 UNL     1      27.350  26.676  17.374  1.00  0.00     0.005 C 
BRANCH  25  31
HETATM   31  O1  UNL     1      25.971  26.493  21.349  1.00  0.00    -0.365 OA
ATOM     32  H1  UNL     1      26.529  27.228  21.126  1.00  0.00     0.217 HD
ENDBRANCH  25  31
ENDBRANCH  24  25
ENDBRANCH  23  24
ENDBRANCH  21  23
ENDBRANCH   7  17
BRANCH  14  33
HETATM   33  N4  UNL     1      15.421  24.607  18.452  1.00  0.00    -0.204 N 
ATOM     34  H4  UNL     1      15.350  25.167  19.302  1.00  0.00     0.183 HD
BRANCH  33  35
HETATM   35  C22 UNL     1      14.332  23.770  18.304  1.00  0.00     0.080 C 
BRANCH  35  36
HETATM   36  C23 UNL     1      14.349  22.377  18.840  1.00  0.00     0.073 C 
BRANCH  36  37
HETATM   37  C24 UNL     1      14.524  21.352  17.785  1.00  0.00     0.242 C 
BRANCH  37  38
HETATM   38  N5  UNL     1      15.717  20.540  17.977  1.00  0.00    -0.065 N 
HETATM   39  C25 UNL     1      16.656  20.885  16.936  1.00  0.00     0.273 C 
HETATM   40  C26 UNL     1      16.341  20.837  19.256  1.00  0.00     0.273 C 
BRANCH  38  41
HETATM   41  C27 UNL     1      15.441  19.117  17.938  1.00  0.00     0.330 C 
BRANCH  41  42
HETATM   42  C28 UNL     1      14.469  18.715  18.958  1.00  0.00    -0.076 C 
HETATM   43  C29 UNL     1      13.667  18.412  19.811  1.00  0.00    -0.079 C 
BRANCH  43  44
HETATM   44  C30 UNL     1      12.696  18.060  20.866  1.00  0.00     0.257 C 
BRANCH  44  45
HETATM   45  O3  UNL     1      11.445  18.621  20.591  1.00  0.00    -0.389 OA
ATOM     46  H3  UNL     1      11.256  19.331  21.194  1.00  0.00     0.210 HD
ENDBRANCH  44  45
ENDBRANCH  43  44
ENDBRANCH  41  42
ENDBRANCH  38  41
ENDBRANCH  37  38
ENDBRANCH  36  37
ENDBRANCH  35  36
ENDBRANCH  33  35
ENDBRANCH  14  33
ENDBRANCH   4   5
ENDBRANCH   1   4
TORSDOF 16
ENDMDL
