MODEL 1
REMARK VINA RESULT: -8.197366907      0.000      0.000
REMARK  13 active torsions:
REMARK  status: ('A' for Active; 'I' for Inactive)
REMARK    1  A    between atoms: C3_3  and  S1_4 
REMARK    2  A    between atoms: S1_4  and  C4_5 
REMARK    3  A    between atoms: C4_5  and  C5_6 
REMARK    4  A    between atoms: C5_6  and  C6_7 
REMARK    5  A    between atoms: C6_7  and  S2_8 
REMARK    6  A    between atoms: S2_8  and  C7_9 
REMARK    7  A    between atoms: C7_9  and  C8_10 
REMARK    8  A    between atoms: C10_13  and  O2_14 
REMARK    9  A    between atoms: C11_16  and  O3_17 
REMARK   10  A    between atoms: C12_19  and  O4_20 
REMARK   11  A    between atoms: C13_22  and  O5_23 
REMARK   12  A    between atoms: C15_26  and  O6_27 
REMARK   13  A    between atoms: C16_29  and  O7_30 
ROOT
HETATM    1  C1  UNL     1       5.601   6.713  20.042  1.00  0.00     0.013 C 
HETATM    2  C2  UNL     1       6.450   6.407  19.229  1.00  0.00    -0.107 C 
HETATM    3  C3  UNL     1       7.457   6.083  18.252  1.00  0.00     0.166 C 
ENDROOT
BRANCH   3   4
HETATM    4  S1  UNL     1       7.130   4.698  17.198  1.00  0.00    -0.157 SA
BRANCH   4   5
HETATM    5  C4  UNL     1       5.388   4.453  16.886  1.00  0.00     0.075 C 
BRANCH   5   6
HETATM    6  C5  UNL     1       5.165   3.368  15.864  1.00  0.00     0.020 C 
BRANCH   6   7
HETATM    7  C6  UNL     1       5.927   2.128  16.343  1.00  0.00     0.075 C 
BRANCH   7   8
HETATM    8  S2  UNL     1       6.860   1.310  15.103  1.00  0.00    -0.166 SA
BRANCH   8   9
HETATM    9  C7  UNL     1       5.982   0.437  13.866  1.00  0.00     0.108 C 
BRANCH   9  10
HETATM   10  C8  UNL     1       6.736  -0.119  12.690  1.00  0.00     0.163 C 
HETATM   11  O1  UNL     1       7.953   0.598  12.676  1.00  0.00    -0.363 OA
HETATM   12  C9  UNL     1       8.882   0.071  11.818  1.00  0.00     0.144 C 
HETATM   13  C10 UNL     1       8.263  -0.033  10.441  1.00  0.00     0.189 C 
HETATM   14  C13 UNL     1      10.084   1.017  11.808  1.00  0.00     0.167 C 
HETATM   15  C17 UNL     1       9.451  -1.261  12.255  1.00  0.00     0.193 C 
HETATM   16  C11 UNL     1       6.946   0.661  10.349  1.00  0.00     0.181 C 
HETATM   17  C12 UNL     1       6.008   0.070  11.399  1.00  0.00     0.179 C 
HETATM   18  C14 UNL     1      11.378   0.238  11.923  1.00  0.00     0.083 C 
HETATM   19  C15 UNL     1      11.398  -0.265  13.377  1.00  0.00     0.159 C 
HETATM   20  C18 UNL     1      11.443  -0.996  11.078  1.00  0.00     0.063 C 
HETATM   21  C16 UNL     1      10.187  -1.151  13.552  1.00  0.00     0.179 C 
HETATM   22  O8  UNL     1      10.280  -1.702  11.220  1.00  0.00    -0.369 OA
HETATM   23  C19 UNL     1      11.828  -0.713   9.635  1.00  0.00     0.046 C 
HETATM   24  C20 UNL     1      12.614  -1.829  11.624  1.00  0.00     0.046 C 
BRANCH  13  25
HETATM   25  O2  UNL     1       8.136  -1.331  10.012  1.00  0.00    -0.390 OA
ATOM     26  H2  UNL     1       7.511  -1.425   9.303  1.00  0.00     0.210 HD
ENDBRANCH  13  25
BRANCH  16  27
HETATM   27  O3  UNL     1       7.005   2.030  10.392  1.00  0.00    -0.390 OA
ATOM     28  H3  UNL     1       7.080   2.458   9.547  1.00  0.00     0.210 HD
ENDBRANCH  16  27
BRANCH  17  29
HETATM   29  O4  UNL     1       5.567  -1.153  10.869  1.00  0.00    -0.390 OA
ATOM     30  H4  UNL     1       4.993  -1.026  10.122  1.00  0.00     0.210 HD
ENDBRANCH  17  29
BRANCH  14  31
HETATM   31  O5  UNL     1      10.054   1.887  10.753  1.00  0.00    -0.392 OA
ATOM     32  H5  UNL     1      10.793   2.483  10.754  1.00  0.00     0.210 HD
ENDBRANCH  14  31
BRANCH  19  33
HETATM   33  O6  UNL     1      11.295   0.813  14.248  1.00  0.00    -0.392 OA
ATOM     34  H6  UNL     1      10.388   1.090  14.309  1.00  0.00     0.210 HD
ENDBRANCH  19  33
BRANCH  21  35
HETATM   35  O7  UNL     1       9.351  -0.722  14.557  1.00  0.00    -0.390 OA
ATOM     36  H7  UNL     1       8.435  -0.730  14.304  1.00  0.00     0.210 HD
ENDBRANCH  21  35
ENDBRANCH   9  10
ENDBRANCH   8   9
ENDBRANCH   7   8
ENDBRANCH   6   7
ENDBRANCH   5   6
ENDBRANCH   4   5
ENDBRANCH   3   4
TORSDOF 13
ENDMDL
MODEL 2
REMARK VINA RESULT: -8.177994546      0.845      1.271
REMARK  13 active torsions:
REMARK  status: ('A' for Active; 'I' for Inactive)
REMARK    1  A    between atoms: C3_3  and  S1_4 
REMARK    2  A    between atoms: S1_4  and  C4_5 
REMARK    3  A    between atoms: C4_5  and  C5_6 
REMARK    4  A    between atoms: C5_6  and  C6_7 
REMARK    5  A    between atoms: C6_7  and  S2_8 
REMARK    6  A    between atoms: S2_8  and  C7_9 
REMARK    7  A    between atoms: C7_9  and  C8_10 
REMARK    8  A    between atoms: C10_13  and  O2_14 
REMARK    9  A    between atoms: C11_16  and  O3_17 
REMARK   10  A    between atoms: C12_19  and  O4_20 
REMARK   11  A    between atoms: C13_22  and  O5_23 
REMARK   12  A    between atoms: C15_26  and  O6_27 
REMARK   13  A    between atoms: C16_29  and  O7_30 
ROOT
HETATM    1  C1  UNL     1       9.338   3.191  17.497  1.00  0.00     0.013 C 
HETATM    2  C2  UNL     1       8.659   4.157  17.781  1.00  0.00    -0.107 C 
HETATM    3  C3  UNL     1       7.862   5.296  18.155  1.00  0.00     0.166 C 
ENDROOT
BRANCH   3   4
HETATM    4  S1  UNL     1       6.228   5.384  17.479  1.00  0.00    -0.157 SA
BRANCH   4   5
HETATM    5  C4  UNL     1       6.033   4.412  15.993  1.00  0.00     0.075 C 
BRANCH   5   6
HETATM    6  C5  UNL     1       5.086   3.261  16.216  1.00  0.00     0.020 C 
BRANCH   6   7
HETATM    7  C6  UNL     1       5.938   2.010  16.457  1.00  0.00     0.075 C 
BRANCH   7   8
HETATM    8  S2  UNL     1       6.832   1.445  15.058  1.00  0.00    -0.166 SA
BRANCH   8   9
HETATM    9  C7  UNL     1       5.980   0.460  13.889  1.00  0.00     0.108 C 
BRANCH   9  10
HETATM   10  C8  UNL     1       6.736  -0.103  12.718  1.00  0.00     0.163 C 
HETATM   11  O1  UNL     1       7.953   0.614  12.703  1.00  0.00    -0.363 OA
HETATM   12  C9  UNL     1       8.885   0.081  11.850  1.00  0.00     0.144 C 
HETATM   13  C10 UNL     1       8.269  -0.032  10.473  1.00  0.00     0.189 C 
HETATM   14  C13 UNL     1      10.087   1.027  11.837  1.00  0.00     0.167 C 
HETATM   15  C17 UNL     1       9.452  -1.249  12.297  1.00  0.00     0.193 C 
HETATM   16  C11 UNL     1       6.953   0.662  10.373  1.00  0.00     0.181 C 
HETATM   17  C12 UNL     1       6.011   0.078  11.425  1.00  0.00     0.179 C 
HETATM   18  C14 UNL     1      11.380   0.247  11.961  1.00  0.00     0.083 C 
HETATM   19  C15 UNL     1      11.397  -0.246  13.418  1.00  0.00     0.159 C 
HETATM   20  C18 UNL     1      11.447  -0.992  11.123  1.00  0.00     0.063 C 
HETATM   21  C16 UNL     1      10.185  -1.131  13.595  1.00  0.00     0.179 C 
HETATM   22  O8  UNL     1      10.283  -1.696  11.267  1.00  0.00    -0.369 OA
HETATM   23  C19 UNL     1      11.836  -0.718   9.679  1.00  0.00     0.046 C 
HETATM   24  C20 UNL     1      12.616  -1.821  11.677  1.00  0.00     0.046 C 
BRANCH  13  25
HETATM   25  O2  UNL     1       8.143  -1.332  10.052  1.00  0.00    -0.390 OA
ATOM     26  H2  UNL     1       7.543  -1.425   9.321  1.00  0.00     0.210 HD
ENDBRANCH  13  25
BRANCH  16  27
HETATM   27  O3  UNL     1       7.011   2.031  10.408  1.00  0.00    -0.390 OA
ATOM     28  H3  UNL     1       7.344   2.401  11.218  1.00  0.00     0.210 HD
ENDBRANCH  16  27
BRANCH  17  29
HETATM   29  O4  UNL     1       5.572  -1.148  10.901  1.00  0.00    -0.390 OA
ATOM     30  H4  UNL     1       5.993  -1.347  10.072  1.00  0.00     0.210 HD
ENDBRANCH  17  29
BRANCH  14  31
HETATM   31  O5  UNL     1      10.060   1.890  10.778  1.00  0.00    -0.392 OA
ATOM     32  H5  UNL     1      10.925   2.057  10.424  1.00  0.00     0.210 HD
ENDBRANCH  14  31
BRANCH  19  33
HETATM   33  O6  UNL     1      11.292   0.837  14.282  1.00  0.00    -0.392 OA
ATOM     34  H6  UNL     1      11.294   0.531  15.181  1.00  0.00     0.210 HD
ENDBRANCH  19  33
BRANCH  21  35
HETATM   35  O7  UNL     1       9.347  -0.696  14.595  1.00  0.00    -0.390 OA
ATOM     36  H7  UNL     1       8.743  -1.368  14.889  1.00  0.00     0.210 HD
ENDBRANCH  21  35
ENDBRANCH   9  10
ENDBRANCH   8   9
ENDBRANCH   7   8
ENDBRANCH   6   7
ENDBRANCH   5   6
ENDBRANCH   4   5
ENDBRANCH   3   4
TORSDOF 13
ENDMDL
MODEL 3
REMARK VINA RESULT: -8.099646194      1.579      1.902
REMARK  13 active torsions:
REMARK  status: ('A' for Active; 'I' for Inactive)
REMARK    1  A    between atoms: C3_3  and  S1_4 
REMARK    2  A    between atoms: S1_4  and  C4_5 
REMARK    3  A    between atoms: C4_5  and  C5_6 
REMARK    4  A    between atoms: C5_6  and  C6_7 
REMARK    5  A    between atoms: C6_7  and  S2_8 
REMARK    6  A    between atoms: S2_8  and  C7_9 
REMARK    7  A    between atoms: C7_9  and  C8_10 
REMARK    8  A    between atoms: C10_13  and  O2_14 
REMARK    9  A    between atoms: C11_16  and  O3_17 
REMARK   10  A    between atoms: C12_19  and  O4_20 
REMARK   11  A    between atoms: C13_22  and  O5_23 
REMARK   12  A    between atoms: C15_26  and  O6_27 
REMARK   13  A    between atoms: C16_29  and  O7_30 
ROOT
HETATM    1  C1  UNL     1      11.582   2.875  19.371  1.00  0.00     0.013 C 
HETATM    2  C2  UNL     1      10.705   2.792  18.535  1.00  0.00    -0.107 C 
HETATM    3  C3  UNL     1       9.692   2.688  17.516  1.00  0.00     0.166 C 
ENDROOT
BRANCH   3   4
HETATM    4  S1  UNL     1       8.490   3.985  17.450  1.00  0.00    -0.157 SA
BRANCH   4   5
HETATM    5  C4  UNL     1       7.443   3.895  16.005  1.00  0.00     0.075 C 
BRANCH   5   6
HETATM    6  C5  UNL     1       6.019   3.579  16.383  1.00  0.00     0.020 C 
BRANCH   6   7
HETATM    7  C6  UNL     1       5.874   2.054  16.380  1.00  0.00     0.075 C 
BRANCH   7   8
HETATM    8  S2  UNL     1       6.809   1.225  15.149  1.00  0.00    -0.166 SA
BRANCH   8   9
HETATM    9  C7  UNL     1       5.937   0.472  13.833  1.00  0.00     0.108 C 
BRANCH   9  10
HETATM   10  C8  UNL     1       6.708  -0.098  12.675  1.00  0.00     0.163 C 
HETATM   11  O1  UNL     1       7.921   0.626  12.666  1.00  0.00    -0.363 OA
HETATM   12  C9  UNL     1       8.865   0.091  11.828  1.00  0.00     0.144 C 
HETATM   13  C10 UNL     1       8.265  -0.038  10.446  1.00  0.00     0.189 C 
HETATM   14  C13 UNL     1      10.062   1.044  11.819  1.00  0.00     0.167 C 
HETATM   15  C17 UNL     1       9.435  -1.231  12.293  1.00  0.00     0.193 C 
HETATM   16  C11 UNL     1       6.945   0.647  10.325  1.00  0.00     0.181 C 
HETATM   17  C12 UNL     1       5.996   0.067  11.373  1.00  0.00     0.179 C 
HETATM   18  C14 UNL     1      11.358   0.274  11.964  1.00  0.00     0.083 C 
HETATM   19  C15 UNL     1      11.362  -0.206  13.426  1.00  0.00     0.159 C 
HETATM   20  C18 UNL     1      11.441  -0.972  11.139  1.00  0.00     0.063 C 
HETATM   21  C16 UNL     1      10.154  -1.096  13.598  1.00  0.00     0.179 C 
HETATM   22  O8  UNL     1      10.281  -1.682  11.277  1.00  0.00    -0.369 OA
HETATM   23  C19 UNL     1      11.844  -0.709   9.696  1.00  0.00     0.046 C 
HETATM   24  C20 UNL     1      12.610  -1.789  11.713  1.00  0.00     0.046 C 
BRANCH  13  25
HETATM   25  O2  UNL     1       8.151  -1.343  10.035  1.00  0.00    -0.390 OA
ATOM     26  H2  UNL     1       7.282  -1.553   9.714  1.00  0.00     0.210 HD
ENDBRANCH  13  25
BRANCH  16  27
HETATM   27  O3  UNL     1       6.995   2.017  10.348  1.00  0.00    -0.390 OA
ATOM     28  H3  UNL     1       6.291   2.438  10.827  1.00  0.00     0.210 HD
ENDBRANCH  16  27
BRANCH  17  29
HETATM   29  O4  UNL     1       5.570  -1.167  10.855  1.00  0.00    -0.390 OA
ATOM     30  H4  UNL     1       6.236  -1.568  10.309  1.00  0.00     0.210 HD
ENDBRANCH  17  29
BRANCH  14  31
HETATM   31  O5  UNL     1      10.040   1.897  10.751  1.00  0.00    -0.392 OA
ATOM     32  H5  UNL     1      10.847   1.871  10.251  1.00  0.00     0.210 HD
ENDBRANCH  14  31
BRANCH  19  33
HETATM   33  O6  UNL     1      11.242   0.885  14.278  1.00  0.00    -0.392 OA
ATOM     34  H6  UNL     1      11.168   0.584  15.176  1.00  0.00     0.210 HD
ENDBRANCH  19  33
BRANCH  21  35
HETATM   35  O7  UNL     1       9.302  -0.657  14.586  1.00  0.00    -0.390 OA
ATOM     36  H7  UNL     1       8.685  -1.323  14.864  1.00  0.00     0.210 HD
ENDBRANCH  21  35
ENDBRANCH   9  10
ENDBRANCH   8   9
ENDBRANCH   7   8
ENDBRANCH   6   7
ENDBRANCH   5   6
ENDBRANCH   4   5
ENDBRANCH   3   4
TORSDOF 13
ENDMDL
MODEL 4
REMARK VINA RESULT: -8.047069954      1.992      2.854
REMARK  13 active torsions:
REMARK  status: ('A' for Active; 'I' for Inactive)
REMARK    1  A    between atoms: C3_3  and  S1_4 
REMARK    2  A    between atoms: S1_4  and  C4_5 
REMARK    3  A    between atoms: C4_5  and  C5_6 
REMARK    4  A    between atoms: C5_6  and  C6_7 
REMARK    5  A    between atoms: C6_7  and  S2_8 
REMARK    6  A    between atoms: S2_8  and  C7_9 
REMARK    7  A    between atoms: C7_9  and  C8_10 
REMARK    8  A    between atoms: C10_13  and  O2_14 
REMARK    9  A    between atoms: C11_16  and  O3_17 
REMARK   10  A    between atoms: C12_19  and  O4_20 
REMARK   11  A    between atoms: C13_22  and  O5_23 
REMARK   12  A    between atoms: C15_26  and  O6_27 
REMARK   13  A    between atoms: C16_29  and  O7_30 
ROOT
HETATM    1  C1  UNL     1      13.083   0.270  18.887  1.00  0.00     0.013 C 
HETATM    2  C2  UNL     1      12.559   1.178  18.272  1.00  0.00    -0.107 C 
HETATM    3  C3  UNL     1      11.970   2.276  17.552  1.00  0.00     0.166 C 
ENDROOT
BRANCH   3   4
HETATM    4  S1  UNL     1      10.318   2.730  17.999  1.00  0.00    -0.157 SA
BRANCH   4   5
HETATM    5  C4  UNL     1       9.121   2.356  16.727  1.00  0.00     0.075 C 
BRANCH   5   6
HETATM    6  C5  UNL     1       8.094   3.452  16.607  1.00  0.00     0.020 C 
BRANCH   6   7
HETATM    7  C6  UNL     1       6.842   2.835  15.974  1.00  0.00     0.075 C 
BRANCH   7   8
HETATM    8  S2  UNL     1       7.030   1.179  15.427  1.00  0.00    -0.166 SA
BRANCH   8   9
HETATM    9  C7  UNL     1       6.090   0.667  14.043  1.00  0.00     0.108 C 
BRANCH   9  10
HETATM   10  C8  UNL     1       6.793   0.029  12.877  1.00  0.00     0.163 C 
HETATM   11  O1  UNL     1       8.033   0.702  12.800  1.00  0.00    -0.363 OA
HETATM   12  C9  UNL     1       8.922   0.102  11.945  1.00  0.00     0.144 C 
HETATM   13  C10 UNL     1       8.264  -0.046  10.591  1.00  0.00     0.189 C 
HETATM   14  C13 UNL     1      10.155   1.003  11.861  1.00  0.00     0.167 C 
HETATM   15  C17 UNL     1       9.455  -1.228  12.432  1.00  0.00     0.193 C 
HETATM   16  C11 UNL     1       6.970   0.689  10.497  1.00  0.00     0.181 C 
HETATM   17  C12 UNL     1       6.039   0.182  11.597  1.00  0.00     0.179 C 
HETATM   18  C14 UNL     1      11.423   0.185  11.983  1.00  0.00     0.083 C 
HETATM   19  C15 UNL     1      11.464  -0.249  13.458  1.00  0.00     0.159 C 
HETATM   20  C18 UNL     1      11.424  -1.089  11.196  1.00  0.00     0.063 C 
HETATM   21  C16 UNL     1      10.228  -1.083  13.705  1.00  0.00     0.179 C 
HETATM   22  O8  UNL     1      10.242  -1.746  11.401  1.00  0.00    -0.369 OA
HETATM   23  C19 UNL     1      11.782  -0.889   9.732  1.00  0.00     0.046 C 
HETATM   24  C20 UNL     1      12.580  -1.936  11.753  1.00  0.00     0.046 C 
BRANCH  13  25
HETATM   25  O2  UNL     1       8.082  -1.357  10.228  1.00  0.00    -0.390 OA
ATOM     26  H2  UNL     1       7.504  -1.455   9.481  1.00  0.00     0.210 HD
ENDBRANCH  13  25
BRANCH  16  27
HETATM   27  O3  UNL     1       7.076   2.056  10.472  1.00  0.00    -0.390 OA
ATOM     28  H3  UNL     1       6.510   2.494   9.847  1.00  0.00     0.210 HD
ENDBRANCH  16  27
BRANCH  17  29
HETATM   29  O4  UNL     1       5.543  -1.048  11.137  1.00  0.00    -0.390 OA
ATOM     30  H4  UNL     1       4.641  -0.976  10.845  1.00  0.00     0.210 HD
ENDBRANCH  17  29
BRANCH  14  31
HETATM   31  O5  UNL     1      10.127   1.822  10.767  1.00  0.00    -0.392 OA
ATOM     32  H5  UNL     1       9.819   1.375   9.987  1.00  0.00     0.210 HD
ENDBRANCH  14  31
BRANCH  19  33
HETATM   33  O6  UNL     1      11.420   0.872  14.278  1.00  0.00    -0.392 OA
ATOM     34  H6  UNL     1      12.290   1.061  14.609  1.00  0.00     0.210 HD
ENDBRANCH  19  33
BRANCH  21  35
HETATM   35  O7  UNL     1       9.433  -0.577  14.708  1.00  0.00    -0.390 OA
ATOM     36  H7  UNL     1       8.838  -1.224  15.068  1.00  0.00     0.210 HD
ENDBRANCH  21  35
ENDBRANCH   9  10
ENDBRANCH   8   9
ENDBRANCH   7   8
ENDBRANCH   6   7
ENDBRANCH   5   6
ENDBRANCH   4   5
ENDBRANCH   3   4
TORSDOF 13
ENDMDL
MODEL 5
REMARK VINA RESULT: -7.863974976      1.821      3.359
REMARK  13 active torsions:
REMARK  status: ('A' for Active; 'I' for Inactive)
REMARK    1  A    between atoms: C3_3  and  S1_4 
REMARK    2  A    between atoms: S1_4  and  C4_5 
REMARK    3  A    between atoms: C4_5  and  C5_6 
REMARK    4  A    between atoms: C5_6  and  C6_7 
REMARK    5  A    between atoms: C6_7  and  S2_8 
REMARK    6  A    between atoms: S2_8  and  C7_9 
REMARK    7  A    between atoms: C7_9  and  C8_10 
REMARK    8  A    between atoms: C10_13  and  O2_14 
REMARK    9  A    between atoms: C11_16  and  O3_17 
REMARK   10  A    between atoms: C12_19  and  O4_20 
REMARK   11  A    between atoms: C13_22  and  O5_23 
REMARK   12  A    between atoms: C15_26  and  O6_27 
REMARK   13  A    between atoms: C16_29  and  O7_30 
ROOT
HETATM    1  C1  UNL     1       5.892   6.952  20.491  1.00  0.00     0.013 C 
HETATM    2  C2  UNL     1       6.800   6.673  19.734  1.00  0.00    -0.107 C 
HETATM    3  C3  UNL     1       7.877   6.380  18.823  1.00  0.00     0.166 C 
ENDROOT
BRANCH   3   4
HETATM    4  S1  UNL     1       7.640   5.016  17.719  1.00  0.00    -0.157 SA
BRANCH   4   5
HETATM    5  C4  UNL     1       6.243   5.235  16.627  1.00  0.00     0.075 C 
BRANCH   5   6
HETATM    6  C5  UNL     1       5.069   4.401  17.072  1.00  0.00     0.020 C 
BRANCH   6   7
HETATM    7  C6  UNL     1       4.931   3.243  16.078  1.00  0.00     0.075 C 
BRANCH   7   8
HETATM    8  S2  UNL     1       5.774   1.774  16.533  1.00  0.00    -0.166 SA
BRANCH   8   9
HETATM    9  C7  UNL     1       6.400   0.763  15.249  1.00  0.00     0.108 C 
BRANCH   9  10
HETATM   10  C8  UNL     1       7.693   1.145  14.583  1.00  0.00     0.163 C 
HETATM   11  O1  UNL     1       8.488  -0.021  14.657  1.00  0.00    -0.363 OA
HETATM   12  C9  UNL     1       9.623   0.048  13.891  1.00  0.00     0.144 C 
HETATM   13  C10 UNL     1      10.392   1.292  14.278  1.00  0.00     0.189 C 
HETATM   14  C13 UNL     1      10.442  -1.212  14.172  1.00  0.00     0.167 C 
HETATM   15  C17 UNL     1       9.371   0.014  12.399  1.00  0.00     0.193 C 
HETATM   16  C11 UNL     1       9.848   1.946  15.504  1.00  0.00     0.181 C 
HETATM   17  C12 UNL     1       8.377   2.284  15.265  1.00  0.00     0.179 C 
HETATM   18  C14 UNL     1      10.941  -1.824  12.879  1.00  0.00     0.083 C 
HETATM   19  C15 UNL     1       9.683  -2.419  12.223  1.00  0.00     0.159 C 
HETATM   20  C18 UNL     1      11.477  -0.840  11.887  1.00  0.00     0.063 C 
HETATM   21  C16 UNL     1       8.733  -1.271  11.974  1.00  0.00     0.179 C 
HETATM   22  O8  UNL     1      10.608   0.211  11.780  1.00  0.00    -0.369 OA
HETATM   23  C19 UNL     1      12.916  -0.434  12.164  1.00  0.00     0.046 C 
HETATM   24  C20 UNL     1      11.547  -1.582  10.542  1.00  0.00     0.046 C 
BRANCH  13  25
HETATM   25  O2  UNL     1      10.471   2.208  13.259  1.00  0.00    -0.390 OA
ATOM     26  H2  UNL     1       9.738   2.812  13.249  1.00  0.00     0.210 HD
ENDBRANCH  13  25
BRANCH  16  27
HETATM   27  O3  UNL     1      10.058   1.261  16.672  1.00  0.00    -0.390 OA
ATOM     28  H3  UNL     1      10.719   1.631  17.245  1.00  0.00     0.210 HD
ENDBRANCH  16  27
BRANCH  17  29
HETATM   29  O4  UNL     1       8.378   3.440  14.470  1.00  0.00    -0.390 OA
ATOM     30  H4  UNL     1       8.923   4.124  14.843  1.00  0.00     0.210 HD
ENDBRANCH  17  29
BRANCH  14  31
HETATM   31  O5  UNL     1      11.424  -0.999  15.099  1.00  0.00    -0.392 OA
ATOM     32  H5  UNL     1      11.594  -1.769  15.630  1.00  0.00     0.210 HD
ENDBRANCH  14  31
BRANCH  19  33
HETATM   33  O6  UNL     1       9.081  -3.320  13.092  1.00  0.00    -0.392 OA
ATOM     34  H6  UNL     1       8.543  -2.850  13.719  1.00  0.00     0.210 HD
ENDBRANCH  19  33
BRANCH  21  35
HETATM   35  O7  UNL     1       7.515  -1.441  12.591  1.00  0.00    -0.390 OA
ATOM     36  H7  UNL     1       7.151  -0.629  12.922  1.00  0.00     0.210 HD
ENDBRANCH  21  35
ENDBRANCH   9  10
ENDBRANCH   8   9
ENDBRANCH   7   8
ENDBRANCH   6   7
ENDBRANCH   5   6
ENDBRANCH   4   5
ENDBRANCH   3   4
TORSDOF 13
ENDMDL
