MODEL 1
REMARK VINA RESULT: -10.036327476      0.000      0.000
REMARK  13 active torsions:
REMARK  status: ('A' for Active; 'I' for Inactive)
REMARK    1  A    between atoms: C3_6  and  O1_7 
REMARK    2  A    between atoms: C4_9  and  N3_10 
REMARK    3  A    between atoms: N3_10  and  C5_12 
REMARK    4  A    between atoms: C5_12  and  C6_16 
REMARK    5  A    between atoms: C6_16  and  C7_17 
REMARK    6  A    between atoms: C7_17  and  C8_18 
REMARK    7  A    between atoms: C8_18  and  C9_19 
REMARK    8  A    between atoms: C9_19  and  C10_20 
REMARK    9  A    between atoms: C10_20  and  C11_21 
REMARK   10  A    between atoms: C11_21  and  C12_22 
REMARK   11  A    between atoms: C12_22  and  C13_23 
REMARK   12  A    between atoms: C19_29  and  N5_30 
REMARK   13  A    between atoms: N5_30  and  C20_32 
ROOT
HETATM    1  N1  UNL     1      15.547  48.673  36.960  1.00  0.00    -0.190 NA
HETATM    2  C1  UNL     1      16.143  49.662  37.063  1.00  0.00     0.120 C 
HETATM    3  C2  UNL     1      16.894  50.867  37.195  1.00  0.00     0.145 A 
HETATM    4  N2  UNL     1      16.804  51.709  38.259  1.00  0.00    -0.325 N 
ATOM      5  H2  UNL     1      16.204  51.579  39.074  1.00  0.00     0.169 HD
HETATM    6  C3  UNL     1      17.636  52.738  38.054  1.00  0.00     0.171 A 
HETATM    7  C4  UNL     1      18.265  52.548  36.842  1.00  0.00     0.115 A 
HETATM    8  C19 UNL     1      17.800  51.370  36.298  1.00  0.00     0.117 A 
ENDROOT
BRANCH   8   9
HETATM    9  N5  UNL     1      18.197  50.807  35.062  1.00  0.00    -0.187 N 
ATOM     10  H5  UNL     1      17.572  50.940  34.267  1.00  0.00     0.184 HD
BRANCH   9  11
HETATM   11  C20 UNL     1      19.390  50.076  34.836  1.00  0.00     0.674 C 
HETATM   12  N6  UNL     1      19.543  49.401  33.733  1.00  0.00    -0.226 N 
HETATM   13  C21 UNL     1      20.777  48.675  33.554  1.00  0.00     0.139 C 
ATOM     14  H6  UNL     1      18.814  49.387  33.019  1.00  0.00     0.177 HD
HETATM   15  C22 UNL     1      21.981  49.513  33.932  1.00  0.00     0.040 C 
HETATM   16  C23 UNL     1      21.865  50.005  35.366  1.00  0.00     0.139 C 
HETATM   17  N7  UNL     1      20.456  50.040  35.771  1.00  0.00    -0.226 N 
ATOM     18  H7  UNL     1      20.233  50.039  36.766  1.00  0.00     0.177 HD
ENDBRANCH   9  11
ENDBRANCH   8   9
BRANCH   6  19
HETATM   19  O1  UNL     1      17.837  53.812  38.909  1.00  0.00    -0.344 OA
ATOM     20  H1  UNL     1      17.406  54.657  38.859  1.00  0.00     0.219 HD
ENDBRANCH   6  19
BRANCH   7  21
HETATM   21  N3  UNL     1      19.235  53.376  36.206  1.00  0.00    -0.341 N 
ATOM     22  H3  UNL     1      19.968  52.954  35.637  1.00  0.00     0.167 HD
BRANCH  21  23
HETATM   23  C5  UNL     1      19.184  54.811  36.364  1.00  0.00     0.075 C 
HETATM   24  N4  UNL     1      20.088  55.356  37.099  1.00  0.00    -0.389 N 
ATOM     25  H42 UNL     1      20.823  54.847  37.590  1.00  0.00     0.157 HD
ATOM     26  H41 UNL     1      20.053  56.369  37.211  1.00  0.00     0.157 HD
BRANCH  23  27
HETATM   27  C6  UNL     1      18.120  55.548  35.654  1.00  0.00     0.076 C 
BRANCH  27  28
HETATM   28  C7  UNL     1      17.138  56.255  36.519  1.00  0.00     0.007 C 
BRANCH  28  29
HETATM   29  C8  UNL     1      15.743  55.764  36.332  1.00  0.00     0.000 C 
BRANCH  29  30
HETATM   30  C9  UNL     1      14.788  56.150  37.439  1.00  0.00     0.000 C 
BRANCH  30  31
HETATM   31  C10 UNL     1      15.589  56.683  38.604  1.00  0.00     0.000 C 
BRANCH  31  32
HETATM   32  C11 UNL     1      14.809  57.774  39.336  1.00  0.00     0.000 C 
BRANCH  32  33
HETATM   33  C12 UNL     1      13.416  57.788  38.819  1.00  0.00     0.004 C 
BRANCH  33  34
HETATM   34  C13 UNL     1      12.894  59.156  38.437  1.00  0.00    -0.014 C 
HETATM   35  C14 UNL     1      12.515  59.069  36.995  1.00  0.00     0.004 C 
HETATM   36  C15 UNL     1      11.341  59.862  36.571  1.00  0.00     0.000 C 
HETATM   37  C16 UNL     1      10.205  59.786  37.563  1.00  0.00     0.000 C 
HETATM   38  C17 UNL     1      10.745  60.416  38.842  1.00  0.00     0.000 C 
HETATM   39  C18 UNL     1      11.799  59.512  39.373  1.00  0.00     0.004 C 
ENDBRANCH  33  34
ENDBRANCH  32  33
ENDBRANCH  31  32
ENDBRANCH  30  31
ENDBRANCH  29  30
ENDBRANCH  28  29
ENDBRANCH  27  28
ENDBRANCH  23  27
ENDBRANCH  21  23
ENDBRANCH   7  21
TORSDOF 13
ENDMDL
MODEL 2
REMARK VINA RESULT: -9.958197712      1.808      3.042
REMARK  13 active torsions:
REMARK  status: ('A' for Active; 'I' for Inactive)
REMARK    1  A    between atoms: C3_6  and  O1_7 
REMARK    2  A    between atoms: C4_9  and  N3_10 
REMARK    3  A    between atoms: N3_10  and  C5_12 
REMARK    4  A    between atoms: C5_12  and  C6_16 
REMARK    5  A    between atoms: C6_16  and  C7_17 
REMARK    6  A    between atoms: C7_17  and  C8_18 
REMARK    7  A    between atoms: C8_18  and  C9_19 
REMARK    8  A    between atoms: C9_19  and  C10_20 
REMARK    9  A    between atoms: C10_20  and  C11_21 
REMARK   10  A    between atoms: C11_21  and  C12_22 
REMARK   11  A    between atoms: C12_22  and  C13_23 
REMARK   12  A    between atoms: C19_29  and  N5_30 
REMARK   13  A    between atoms: N5_30  and  C20_32 
ROOT
HETATM    1  N1  UNL     1      22.941  52.140  37.629  1.00  0.00    -0.190 NA
HETATM    2  C1  UNL     1      21.995  52.736  37.323  1.00  0.00     0.120 C 
HETATM    3  C2  UNL     1      20.834  53.463  36.925  1.00  0.00     0.145 A 
HETATM    4  N2  UNL     1      20.769  54.820  36.864  1.00  0.00    -0.325 N 
ATOM      5  H2  UNL     1      21.529  55.465  37.086  1.00  0.00     0.169 HD
HETATM    6  C3  UNL     1      19.540  55.166  36.461  1.00  0.00     0.171 A 
HETATM    7  C4  UNL     1      18.811  54.011  36.263  1.00  0.00     0.115 A 
HETATM    8  C19 UNL     1      19.625  52.937  36.554  1.00  0.00     0.117 A 
ENDROOT
BRANCH   8   9
HETATM    9  N5  UNL     1      19.263  51.572  36.474  1.00  0.00    -0.187 N 
ATOM     10  H5  UNL     1      18.539  51.242  37.112  1.00  0.00     0.184 HD
BRANCH   9  11
HETATM   11  C20 UNL     1      19.822  50.623  35.581  1.00  0.00     0.674 C 
HETATM   12  N6  UNL     1      19.253  50.393  34.432  1.00  0.00    -0.226 N 
HETATM   13  C21 UNL     1      19.865  49.418  33.562  1.00  0.00     0.139 C 
ATOM     14  H6  UNL     1      18.404  50.886  34.157  1.00  0.00     0.177 HD
HETATM   15  C22 UNL     1      21.365  49.605  33.477  1.00  0.00     0.040 C 
HETATM   16  C23 UNL     1      21.995  49.542  34.860  1.00  0.00     0.139 C 
HETATM   17  N7  UNL     1      21.001  49.893  35.879  1.00  0.00    -0.226 N 
ATOM     18  H7  UNL     1      21.164  49.600  36.842  1.00  0.00     0.177 HD
ENDBRANCH   9  11
ENDBRANCH   8   9
BRANCH   6  19
HETATM   19  O1  UNL     1      19.072  56.459  36.273  1.00  0.00    -0.344 OA
ATOM     20  H1  UNL     1      19.003  56.915  35.443  1.00  0.00     0.219 HD
ENDBRANCH   6  19
BRANCH   7  21
HETATM   21  N3  UNL     1      17.460  53.879  35.833  1.00  0.00    -0.341 N 
ATOM     22  H3  UNL     1      17.252  53.759  34.842  1.00  0.00     0.167 HD
BRANCH  21  23
HETATM   23  C5  UNL     1      16.382  53.913  36.795  1.00  0.00     0.075 C 
HETATM   24  N4  UNL     1      16.248  52.894  37.568  1.00  0.00    -0.389 N 
ATOM     25  H42 UNL     1      16.834  52.060  37.537  1.00  0.00     0.157 HD
ATOM     26  H41 UNL     1      15.488  52.918  38.247  1.00  0.00     0.157 HD
BRANCH  23  27
HETATM   27  C6  UNL     1      15.534  55.120  36.839  1.00  0.00     0.076 C 
BRANCH  27  28
HETATM   28  C7  UNL     1      15.923  56.144  37.845  1.00  0.00     0.007 C 
BRANCH  28  29
HETATM   29  C8  UNL     1      15.522  55.775  39.233  1.00  0.00     0.000 C 
BRANCH  29  30
HETATM   30  C9  UNL     1      15.217  56.952  40.132  1.00  0.00     0.000 C 
BRANCH  30  31
HETATM   31  C10 UNL     1      14.763  58.111  39.276  1.00  0.00     0.000 C 
BRANCH  31  32
HETATM   32  C11 UNL     1      13.239  58.217  39.281  1.00  0.00     0.000 C 
BRANCH  32  33
HETATM   33  C12 UNL     1      12.785  58.570  37.911  1.00  0.00     0.004 C 
BRANCH  33  34
HETATM   34  C13 UNL     1      12.280  59.987  37.755  1.00  0.00    -0.014 C 
HETATM   35  C14 UNL     1      11.158  59.924  36.770  1.00  0.00     0.004 C 
HETATM   36  C15 UNL     1      10.033  60.858  36.987  1.00  0.00     0.000 C 
HETATM   37  C16 UNL     1       9.636  60.953  38.441  1.00  0.00     0.000 C 
HETATM   38  C17 UNL     1      10.853  61.530  39.154  1.00  0.00     0.000 C 
HETATM   39  C18 UNL     1      11.928  60.504  39.101  1.00  0.00     0.004 C 
ENDBRANCH  33  34
ENDBRANCH  32  33
ENDBRANCH  31  32
ENDBRANCH  30  31
ENDBRANCH  29  30
ENDBRANCH  28  29
ENDBRANCH  27  28
ENDBRANCH  23  27
ENDBRANCH  21  23
ENDBRANCH   7  21
TORSDOF 13
ENDMDL
MODEL 3
REMARK VINA RESULT: -9.905291300      1.733      3.757
REMARK  13 active torsions:
REMARK  status: ('A' for Active; 'I' for Inactive)
REMARK    1  A    between atoms: C3_6  and  O1_7 
REMARK    2  A    between atoms: C4_9  and  N3_10 
REMARK    3  A    between atoms: N3_10  and  C5_12 
REMARK    4  A    between atoms: C5_12  and  C6_16 
REMARK    5  A    between atoms: C6_16  and  C7_17 
REMARK    6  A    between atoms: C7_17  and  C8_18 
REMARK    7  A    between atoms: C8_18  and  C9_19 
REMARK    8  A    between atoms: C9_19  and  C10_20 
REMARK    9  A    between atoms: C10_20  and  C11_21 
REMARK   10  A    between atoms: C11_21  and  C12_22 
REMARK   11  A    between atoms: C12_22  and  C13_23 
REMARK   12  A    between atoms: C19_29  and  N5_30 
REMARK   13  A    between atoms: N5_30  and  C20_32 
ROOT
HETATM    1  N1  UNL     1      21.162  48.538  33.197  1.00  0.00    -0.190 NA
HETATM    2  C1  UNL     1      21.193  49.329  34.044  1.00  0.00     0.120 C 
HETATM    3  C2  UNL     1      21.232  50.318  35.071  1.00  0.00     0.145 A 
HETATM    4  N2  UNL     1      22.345  50.633  35.785  1.00  0.00    -0.325 N 
ATOM      5  H2  UNL     1      23.267  50.210  35.670  1.00  0.00     0.169 HD
HETATM    6  C3  UNL     1      22.026  51.591  36.664  1.00  0.00     0.171 A 
HETATM    7  C4  UNL     1      20.689  51.891  36.507  1.00  0.00     0.115 A 
HETATM    8  C19 UNL     1      20.186  51.091  35.503  1.00  0.00     0.117 A 
ENDROOT
BRANCH   8   9
HETATM    9  N5  UNL     1      18.854  51.089  35.027  1.00  0.00    -0.187 N 
ATOM     10  H5  UNL     1      18.694  51.451  34.087  1.00  0.00     0.184 HD
BRANCH   9  11
HETATM   11  C20 UNL     1      17.722  50.628  35.747  1.00  0.00     0.674 C 
HETATM   12  N6  UNL     1      17.409  49.364  35.730  1.00  0.00    -0.226 N 
HETATM   13  C21 UNL     1      16.249  48.950  36.480  1.00  0.00     0.139 C 
ATOM     14  H6  UNL     1      17.966  48.691  35.205  1.00  0.00     0.177 HD
HETATM   15  C22 UNL     1      16.222  49.570  37.862  1.00  0.00     0.040 C 
HETATM   16  C23 UNL     1      16.273  51.087  37.771  1.00  0.00     0.139 C 
HETATM   17  N7  UNL     1      16.893  51.493  36.505  1.00  0.00    -0.226 N 
ATOM     18  H7  UNL     1      16.720  52.435  36.156  1.00  0.00     0.177 HD
ENDBRANCH   9  11
ENDBRANCH   8   9
BRANCH   6  19
HETATM   19  O1  UNL     1      22.886  52.185  37.577  1.00  0.00    -0.344 OA
ATOM     20  H1  UNL     1      22.648  52.526  38.431  1.00  0.00     0.219 HD
ENDBRANCH   6  19
BRANCH   7  21
HETATM   21  N3  UNL     1      19.905  52.847  37.216  1.00  0.00    -0.341 N 
ATOM     22  H3  UNL     1      19.080  52.543  37.732  1.00  0.00     0.167 HD
BRANCH  21  23
HETATM   23  C5  UNL     1      20.275  54.244  37.206  1.00  0.00     0.075 C 
HETATM   24  N4  UNL     1      20.853  54.708  38.257  1.00  0.00    -0.389 N 
ATOM     25  H42 UNL     1      21.052  54.167  39.098  1.00  0.00     0.157 HD
ATOM     26  H41 UNL     1      21.114  55.693  38.251  1.00  0.00     0.157 HD
BRANCH  23  27
HETATM   27  C6  UNL     1      19.988  55.026  35.989  1.00  0.00     0.076 C 
BRANCH  27  28
HETATM   28  C7  UNL     1      18.996  56.124  36.147  1.00  0.00     0.007 C 
BRANCH  28  29
HETATM   29  C8  UNL     1      17.648  55.767  35.621  1.00  0.00     0.000 C 
BRANCH  29  30
HETATM   30  C9  UNL     1      16.509  56.039  36.577  1.00  0.00     0.000 C 
BRANCH  30  31
HETATM   31  C10 UNL     1      16.551  55.014  37.686  1.00  0.00     0.000 C 
BRANCH  31  32
HETATM   32  C11 UNL     1      15.645  55.434  38.841  1.00  0.00     0.000 C 
BRANCH  32  33
HETATM   33  C12 UNL     1      15.543  56.918  38.847  1.00  0.00     0.004 C 
BRANCH  33  34
HETATM   34  C13 UNL     1      14.164  57.458  39.155  1.00  0.00    -0.014 C 
HETATM   35  C14 UNL     1      14.331  58.927  39.371  1.00  0.00     0.004 C 
HETATM   36  C15 UNL     1      13.221  59.792  38.918  1.00  0.00     0.000 C 
HETATM   37  C16 UNL     1      12.678  59.375  37.572  1.00  0.00     0.000 C 
HETATM   38  C17 UNL     1      12.111  57.976  37.782  1.00  0.00     0.000 C 
HETATM   39  C18 UNL     1      13.255  57.066  38.050  1.00  0.00     0.004 C 
ENDBRANCH  33  34
ENDBRANCH  32  33
ENDBRANCH  31  32
ENDBRANCH  30  31
ENDBRANCH  29  30
ENDBRANCH  28  29
ENDBRANCH  27  28
ENDBRANCH  23  27
ENDBRANCH  21  23
ENDBRANCH   7  21
TORSDOF 13
ENDMDL
MODEL 4
REMARK VINA RESULT: -9.859813174      0.770      1.238
REMARK  13 active torsions:
REMARK  status: ('A' for Active; 'I' for Inactive)
REMARK    1  A    between atoms: C3_6  and  O1_7 
REMARK    2  A    between atoms: C4_9  and  N3_10 
REMARK    3  A    between atoms: N3_10  and  C5_12 
REMARK    4  A    between atoms: C5_12  and  C6_16 
REMARK    5  A    between atoms: C6_16  and  C7_17 
REMARK    6  A    between atoms: C7_17  and  C8_18 
REMARK    7  A    between atoms: C8_18  and  C9_19 
REMARK    8  A    between atoms: C9_19  and  C10_20 
REMARK    9  A    between atoms: C10_20  and  C11_21 
REMARK   10  A    between atoms: C11_21  and  C12_22 
REMARK   11  A    between atoms: C12_22  and  C13_23 
REMARK   12  A    between atoms: C19_29  and  N5_30 
REMARK   13  A    between atoms: N5_30  and  C20_32 
ROOT
HETATM    1  N1  UNL     1      15.733  49.048  37.303  1.00  0.00    -0.190 NA
HETATM    2  C1  UNL     1      16.309  50.052  37.373  1.00  0.00     0.120 C 
HETATM    3  C2  UNL     1      17.035  51.277  37.463  1.00  0.00     0.145 A 
HETATM    4  N2  UNL     1      17.001  52.106  38.541  1.00  0.00    -0.325 N 
ATOM      5  H2  UNL     1      16.467  51.951  39.396  1.00  0.00     0.169 HD
HETATM    6  C3  UNL     1      17.789  53.159  38.288  1.00  0.00     0.171 A 
HETATM    7  C4  UNL     1      18.332  52.997  37.030  1.00  0.00     0.115 A 
HETATM    8  C19 UNL     1      17.859  51.812  36.508  1.00  0.00     0.117 A 
ENDROOT
BRANCH   8   9
HETATM    9  N5  UNL     1      18.179  51.272  35.240  1.00  0.00    -0.187 N 
ATOM     10  H5  UNL     1      17.554  51.498  34.466  1.00  0.00     0.184 HD
BRANCH   9  11
HETATM   11  C20 UNL     1      19.294  50.444  34.955  1.00  0.00     0.674 C 
HETATM   12  N6  UNL     1      19.392  49.858  33.797  1.00  0.00    -0.226 N 
HETATM   13  C21 UNL     1      20.548  49.028  33.559  1.00  0.00     0.139 C 
ATOM     14  H6  UNL     1      18.676  49.982  33.081  1.00  0.00     0.177 HD
HETATM   15  C22 UNL     1      21.826  49.701  34.016  1.00  0.00     0.040 C 
HETATM   16  C23 UNL     1      21.741  50.073  35.489  1.00  0.00     0.139 C 
HETATM   17  N7  UNL     1      20.338  50.217  35.889  1.00  0.00    -0.226 N 
ATOM     18  H7  UNL     1      20.102  50.151  36.879  1.00  0.00     0.177 HD
ENDBRANCH   9  11
ENDBRANCH   8   9
BRANCH   6  19
HETATM   19  O1  UNL     1      18.023  54.230  39.138  1.00  0.00    -0.344 OA
ATOM     20  H1  UNL     1      17.657  55.102  39.055  1.00  0.00     0.219 HD
ENDBRANCH   6  19
BRANCH   7  21
HETATM   21  N3  UNL     1      19.229  53.857  36.334  1.00  0.00    -0.341 N 
ATOM     22  H3  UNL     1      20.158  53.522  36.078  1.00  0.00     0.167 HD
BRANCH  21  23
HETATM   23  C5  UNL     1      18.831  55.203  35.991  1.00  0.00     0.075 C 
HETATM   24  N4  UNL     1      19.760  56.086  35.892  1.00  0.00    -0.389 N 
ATOM     25  H42 UNL     1      20.750  55.909  36.057  1.00  0.00     0.157 HD
ATOM     26  H41 UNL     1      19.479  57.036  35.649  1.00  0.00     0.157 HD
BRANCH  23  27
HETATM   27  C6  UNL     1      17.397  55.459  35.752  1.00  0.00     0.076 C 
BRANCH  27  28
HETATM   28  C7  UNL     1      16.752  56.426  36.680  1.00  0.00     0.007 C 
BRANCH  28  29
HETATM   29  C8  UNL     1      15.474  55.915  37.252  1.00  0.00     0.000 C 
BRANCH  29  30
HETATM   30  C9  UNL     1      15.237  56.294  38.697  1.00  0.00     0.000 C 
BRANCH  30  31
HETATM   31  C10 UNL     1      14.209  57.400  38.745  1.00  0.00     0.000 C 
BRANCH  31  32
HETATM   32  C11 UNL     1      13.228  57.272  37.580  1.00  0.00     0.000 C 
BRANCH  32  33
HETATM   33  C12 UNL     1      12.626  58.606  37.320  1.00  0.00     0.004 C 
BRANCH  33  34
HETATM   34  C13 UNL     1      11.680  59.096  38.394  1.00  0.00    -0.014 C 
HETATM   35  C14 UNL     1      12.175  60.446  38.800  1.00  0.00     0.004 C 
HETATM   36  C15 UNL     1      11.148  61.443  39.171  1.00  0.00     0.000 C 
HETATM   37  C16 UNL     1       9.961  61.423  38.238  1.00  0.00     0.000 C 
HETATM   38  C17 UNL     1       9.340  60.041  38.405  1.00  0.00     0.000 C 
HETATM   39  C18 UNL     1      10.300  59.050  37.852  1.00  0.00     0.004 C 
ENDBRANCH  33  34
ENDBRANCH  32  33
ENDBRANCH  31  32
ENDBRANCH  30  31
ENDBRANCH  29  30
ENDBRANCH  28  29
ENDBRANCH  27  28
ENDBRANCH  23  27
ENDBRANCH  21  23
ENDBRANCH   7  21
TORSDOF 13
ENDMDL
MODEL 5
REMARK VINA RESULT: -9.726263053      1.594      3.555
REMARK  13 active torsions:
REMARK  status: ('A' for Active; 'I' for Inactive)
REMARK    1  A    between atoms: C3_6  and  O1_7 
REMARK    2  A    between atoms: C4_9  and  N3_10 
REMARK    3  A    between atoms: N3_10  and  C5_12 
REMARK    4  A    between atoms: C5_12  and  C6_16 
REMARK    5  A    between atoms: C6_16  and  C7_17 
REMARK    6  A    between atoms: C7_17  and  C8_18 
REMARK    7  A    between atoms: C8_18  and  C9_19 
REMARK    8  A    between atoms: C9_19  and  C10_20 
REMARK    9  A    between atoms: C10_20  and  C11_21 
REMARK   10  A    between atoms: C11_21  and  C12_22 
REMARK   11  A    between atoms: C12_22  and  C13_23 
REMARK   12  A    between atoms: C19_29  and  N5_30 
REMARK   13  A    between atoms: N5_30  and  C20_32 
ROOT
HETATM    1  N1  UNL     1      20.955  49.488  34.416  1.00  0.00    -0.190 NA
HETATM    2  C1  UNL     1      20.910  50.425  35.098  1.00  0.00     0.120 C 
HETATM    3  C2  UNL     1      20.854  51.589  35.919  1.00  0.00     0.145 A 
HETATM    4  N2  UNL     1      21.927  52.121  36.563  1.00  0.00    -0.325 N 
ATOM      5  H2  UNL     1      22.880  51.759  36.533  1.00  0.00     0.169 HD
HETATM    6  C3  UNL     1      21.519  53.199  37.244  1.00  0.00     0.171 A 
HETATM    7  C4  UNL     1      20.165  53.356  37.030  1.00  0.00     0.115 A 
HETATM    8  C19 UNL     1      19.743  52.344  36.195  1.00  0.00     0.117 A 
ENDROOT
BRANCH   8   9
HETATM    9  N5  UNL     1      18.424  52.146  35.724  1.00  0.00    -0.187 N 
ATOM     10  H5  UNL     1      18.190  52.539  34.813  1.00  0.00     0.184 HD
BRANCH   9  11
HETATM   11  C20 UNL     1      17.399  51.449  36.413  1.00  0.00     0.674 C 
HETATM   12  N6  UNL     1      17.145  50.206  36.121  1.00  0.00    -0.226 N 
HETATM   13  C21 UNL     1      16.093  49.544  36.853  1.00  0.00     0.139 C 
ATOM     14  H6  UNL     1      17.673  49.716  35.398  1.00  0.00     0.177 HD
HETATM   15  C22 UNL     1      16.187  49.818  38.340  1.00  0.00     0.040 C 
HETATM   16  C23 UNL     1      16.157  51.313  38.615  1.00  0.00     0.139 C 
HETATM   17  N7  UNL     1      16.617  52.049  37.433  1.00  0.00    -0.226 N 
ATOM     18  H7  UNL     1      16.364  53.033  37.340  1.00  0.00     0.177 HD
ENDBRANCH   9  11
ENDBRANCH   8   9
BRANCH   6  19
HETATM   19  O1  UNL     1      22.313  54.021  38.031  1.00  0.00    -0.344 OA
ATOM     20  H1  UNL     1      22.118  54.916  38.282  1.00  0.00     0.219 HD
ENDBRANCH   6  19
BRANCH   7  21
HETATM   21  N3  UNL     1      19.297  54.362  37.543  1.00  0.00    -0.341 N 
ATOM     22  H3  UNL     1      18.980  54.314  38.511  1.00  0.00     0.167 HD
BRANCH  21  23
HETATM   23  C5  UNL     1      18.862  55.451  36.698  1.00  0.00     0.075 C 
HETATM   24  N4  UNL     1      19.771  56.106  36.066  1.00  0.00    -0.389 N 
ATOM     25  H42 UNL     1      20.772  55.924  36.133  1.00  0.00     0.157 HD
ATOM     26  H41 UNL     1      19.465  56.874  35.469  1.00  0.00     0.157 HD
BRANCH  23  27
HETATM   27  C6  UNL     1      17.414  55.715  36.600  1.00  0.00     0.076 C 
BRANCH  27  28
HETATM   28  C7  UNL     1      16.625  55.447  37.832  1.00  0.00     0.007 C 
BRANCH  28  29
HETATM   29  C8  UNL     1      15.564  56.466  38.074  1.00  0.00     0.000 C 
BRANCH  29  30
HETATM   30  C9  UNL     1      15.189  56.648  39.527  1.00  0.00     0.000 C 
BRANCH  30  31
HETATM   31  C10 UNL     1      14.573  58.017  39.700  1.00  0.00     0.000 C 
BRANCH  31  32
HETATM   32  C11 UNL     1      13.358  58.177  38.790  1.00  0.00     0.000 C 
BRANCH  32  33
HETATM   33  C12 UNL     1      12.946  59.606  38.796  1.00  0.00     0.004 C 
BRANCH  33  34
HETATM   34  C13 UNL     1      11.521  59.854  39.240  1.00  0.00    -0.014 C 
HETATM   35  C14 UNL     1      11.290  61.323  39.095  1.00  0.00     0.004 C 
HETATM   36  C15 UNL     1       9.933  61.742  38.688  1.00  0.00     0.000 C 
HETATM   37  C16 UNL     1       9.363  60.869  37.595  1.00  0.00     0.000 C 
HETATM   38  C17 UNL     1       9.248  59.478  38.210  1.00  0.00     0.000 C 
HETATM   39  C18 UNL     1      10.629  58.978  38.442  1.00  0.00     0.004 C 
ENDBRANCH  33  34
ENDBRANCH  32  33
ENDBRANCH  31  32
ENDBRANCH  30  31
ENDBRANCH  29  30
ENDBRANCH  28  29
ENDBRANCH  27  28
ENDBRANCH  23  27
ENDBRANCH  21  23
ENDBRANCH   7  21
TORSDOF 13
ENDMDL
