MODEL 1
REMARK VINA RESULT: -10.479561999      0.000      0.000
REMARK  14 active torsions:
REMARK  status: ('A' for Active; 'I' for Inactive)
REMARK    1  A    between atoms: C2_2  and  C3_3 
REMARK    2  A    between atoms: C2_2  and  C10_12 
REMARK    3  A    between atoms: C3_3  and  C4_4 
REMARK    4  A    between atoms: C4_4  and  C5_5 
REMARK    5  A    between atoms: C6_6  and  O1_7 
REMARK    6  A    between atoms: C6_6  and  C7_9 
REMARK    7  A    between atoms: C10_12  and  C11_13 
REMARK    8  A    between atoms: C11_13  and  C12_14 
REMARK    9  A    between atoms: C12_14  and  C14_16 
REMARK   10  A    between atoms: C14_16  and  C15_17 
REMARK   11  A    between atoms: C15_17  and  C16_18 
REMARK   12  A    between atoms: C16_18  and  C18_22 
REMARK   13  A    between atoms: C17_19  and  O2_20 
REMARK       I    between atoms: C18_22  and  N1_24 
REMARK       I    between atoms: N2_26  and  C19_28 
REMARK       I    between atoms: C19_28  and  N4_32 
REMARK   14  A    between atoms: N4_32  and  O4_34 
ROOT
HETATM    1  C16 UNL     1      53.889  11.749  53.988  1.00  0.00     0.033 C 
HETATM    2  C17 UNL     1      52.766  11.604  54.684  1.00  0.00     0.143 C 
ENDROOT
BRANCH   1   3
HETATM    3  C15 UNL     1      54.506  13.056  53.765  1.00  0.00     0.051 C 
BRANCH   3   4
HETATM    4  C14 UNL     1      54.739  13.281  52.268  1.00  0.00     0.038 C 
BRANCH   4   5
HETATM    5  C12 UNL     1      56.100  13.794  52.155  1.00  0.00    -0.084 C 
HETATM    6  C13 UNL     1      57.123  12.842  51.587  1.00  0.00     0.043 C 
BRANCH   5   7
HETATM    7  C11 UNL     1      56.473  15.002  52.532  1.00  0.00     0.003 C 
BRANCH   7   8
HETATM    8  C10 UNL     1      57.243  15.261  53.671  1.00  0.00     0.011 C 
BRANCH   8   9
HETATM    9  C2  UNL     1      57.061  15.605  54.896  1.00  0.00    -0.046 C 
HETATM   10  C1  UNL     1      56.867  15.973  56.200  1.00  0.00     0.023 C 
BRANCH   9  11
HETATM   11  C3  UNL     1      58.169  16.991  54.622  1.00  0.00     0.010 C 
BRANCH  11  12
HETATM   12  C4  UNL     1      57.628  18.086  54.472  1.00  0.00     0.003 C 
BRANCH  12  13
HETATM   13  C5  UNL     1      57.624  18.661  53.074  1.00  0.00     0.032 C 
HETATM   14  C6  UNL     1      57.538  19.915  52.887  1.00  0.00     0.046 C 
BRANCH  14  15
HETATM   15  O1  UNL     1      57.549  20.366  51.533  1.00  0.00    -0.365 OA
ATOM     16  H1  UNL     1      58.271  20.927  51.274  1.00  0.00     0.217 HD
ENDBRANCH  14  15
BRANCH  14  17
HETATM   17  C7  UNL     1      57.419  20.978  53.897  1.00  0.00     0.034 C 
HETATM   18  C8  UNL     1      56.104  21.704  53.546  1.00  0.00     0.016 C 
HETATM   19  C9  UNL     1      58.563  21.970  53.859  1.00  0.00     0.016 C 
ENDBRANCH  14  17
ENDBRANCH  12  13
ENDBRANCH  11  12
ENDBRANCH   9  11
ENDBRANCH   8   9
ENDBRANCH   7   8
ENDBRANCH   5   7
ENDBRANCH   4   5
ENDBRANCH   3   4
ENDBRANCH   1   3
BRANCH   1  20
HETATM   20  C18 UNL     1      54.579  10.589  53.431  1.00  0.00     0.268 C 
HETATM   21  O3  UNL     1      53.973   9.867  52.611  1.00  0.00    -0.266 OA
HETATM   22  N1  UNL     1      55.904  10.232  53.767  1.00  0.00    -0.252 N 
HETATM   23  N2  UNL     1      56.353   9.058  53.525  1.00  0.00    -0.128 N 
ATOM     24  H1  UNL     1      56.511  10.921  54.210  1.00  0.00     0.191 HD
HETATM   25  C19 UNL     1      57.706   8.736  53.884  1.00  0.00     0.710 C 
ATOM     26  H2  UNL     1      55.756   8.359  53.083  1.00  0.00     0.205 HD
HETATM   27  N3  UNL     1      58.434   8.219  52.934  1.00  0.00    -0.232 N 
HETATM   28  N4  UNL     1      58.239   8.946  55.155  1.00  0.00    -0.098 N 
ATOM     29  H32 UNL     1      58.044   8.065  52.004  1.00  0.00     0.174 HD
ATOM     30  H31 UNL     1      59.395   7.990  53.188  1.00  0.00     0.174 HD
ATOM     31  H4  UNL     1      57.616   8.982  55.962  1.00  0.00     0.213 HD
BRANCH  28  32
HETATM   32  O4  UNL     1      59.561   9.101  55.330  1.00  0.00    -0.276 OA
ATOM     33  H4  UNL     1      59.909   9.411  56.158  1.00  0.00     0.245 HD
ENDBRANCH  28  32
ENDBRANCH   1  20
BRANCH   2  34
HETATM   34  O2  UNL     1      52.218  10.328  54.871  1.00  0.00    -0.372 OA
ATOM     35  H2  UNL     1      51.426  10.079  54.409  1.00  0.00     0.216 HD
ENDBRANCH   2  34
TORSDOF 14
ENDMDL
MODEL 2
REMARK VINA RESULT: -10.304752135      1.495      2.107
REMARK  14 active torsions:
REMARK  status: ('A' for Active; 'I' for Inactive)
REMARK    1  A    between atoms: C2_2  and  C3_3 
REMARK    2  A    between atoms: C2_2  and  C10_12 
REMARK    3  A    between atoms: C3_3  and  C4_4 
REMARK    4  A    between atoms: C4_4  and  C5_5 
REMARK    5  A    between atoms: C6_6  and  O1_7 
REMARK    6  A    between atoms: C6_6  and  C7_9 
REMARK    7  A    between atoms: C10_12  and  C11_13 
REMARK    8  A    between atoms: C11_13  and  C12_14 
REMARK    9  A    between atoms: C12_14  and  C14_16 
REMARK   10  A    between atoms: C14_16  and  C15_17 
REMARK   11  A    between atoms: C15_17  and  C16_18 
REMARK   12  A    between atoms: C16_18  and  C18_22 
REMARK   13  A    between atoms: C17_19  and  O2_20 
REMARK       I    between atoms: C18_22  and  N1_24 
REMARK       I    between atoms: N2_26  and  C19_28 
REMARK       I    between atoms: C19_28  and  N4_32 
REMARK   14  A    between atoms: N4_32  and  O4_34 
ROOT
HETATM    1  C16 UNL     1      54.069  11.555  53.928  1.00  0.00     0.033 C 
HETATM    2  C17 UNL     1      52.870  11.078  54.248  1.00  0.00     0.143 C 
ENDROOT
BRANCH   1   3
HETATM    3  C15 UNL     1      54.312  12.981  53.718  1.00  0.00     0.051 C 
BRANCH   3   4
HETATM    4  C14 UNL     1      54.790  13.229  52.284  1.00  0.00     0.038 C 
BRANCH   4   5
HETATM    5  C12 UNL     1      55.846  14.230  52.389  1.00  0.00    -0.084 C 
HETATM    6  C13 UNL     1      55.730  15.418  51.466  1.00  0.00     0.043 C 
BRANCH   5   7
HETATM    7  C11 UNL     1      56.876  14.141  53.209  1.00  0.00     0.003 C 
BRANCH   7   8
HETATM    8  C10 UNL     1      57.304  15.181  54.042  1.00  0.00     0.011 C 
BRANCH   8   9
HETATM    9  C2  UNL     1      56.993  15.688  55.181  1.00  0.00    -0.046 C 
HETATM   10  C1  UNL     1      56.662  16.229  56.393  1.00  0.00     0.023 C 
BRANCH   9  11
HETATM   11  C3  UNL     1      58.095  17.058  54.817  1.00  0.00     0.010 C 
BRANCH  11  12
HETATM   12  C4  UNL     1      57.548  18.132  54.571  1.00  0.00     0.003 C 
BRANCH  12  13
HETATM   13  C5  UNL     1      57.571  18.596  53.133  1.00  0.00     0.032 C 
HETATM   14  C6  UNL     1      57.525  19.835  52.848  1.00  0.00     0.046 C 
BRANCH  14  15
HETATM   15  O1  UNL     1      57.559  20.178  51.464  1.00  0.00    -0.365 OA
ATOM     16  H1  UNL     1      58.416  20.238  51.058  1.00  0.00     0.217 HD
ENDBRANCH  14  15
BRANCH  14  17
HETATM   17  C7  UNL     1      57.434  20.976  53.771  1.00  0.00     0.034 C 
HETATM   18  C8  UNL     1      56.054  21.602  53.483  1.00  0.00     0.016 C 
HETATM   19  C9  UNL     1      58.512  22.016  53.545  1.00  0.00     0.016 C 
ENDBRANCH  14  17
ENDBRANCH  12  13
ENDBRANCH  11  12
ENDBRANCH   9  11
ENDBRANCH   8   9
ENDBRANCH   7   8
ENDBRANCH   5   7
ENDBRANCH   4   5
ENDBRANCH   3   4
ENDBRANCH   1   3
BRANCH   1  20
HETATM   20  C18 UNL     1      55.217  10.662  53.797  1.00  0.00     0.268 C 
HETATM   21  O3  UNL     1      56.239  10.894  54.477  1.00  0.00    -0.266 OA
HETATM   22  N1  UNL     1      55.239   9.538  52.941  1.00  0.00    -0.252 N 
HETATM   23  N2  UNL     1      56.343   8.983  52.608  1.00  0.00    -0.128 N 
ATOM     24  H1  UNL     1      54.361   9.164  52.583  1.00  0.00     0.191 HD
HETATM   25  C19 UNL     1      56.321   7.843  51.735  1.00  0.00     0.710 C 
ATOM     26  H2  UNL     1      57.229   9.346  52.959  1.00  0.00     0.205 HD
HETATM   27  N3  UNL     1      56.975   6.797  52.155  1.00  0.00    -0.232 N 
HETATM   28  N4  UNL     1      55.656   7.822  50.509  1.00  0.00    -0.098 N 
ATOM     29  H32 UNL     1      57.462   6.812  53.052  1.00  0.00     0.174 HD
ATOM     30  H31 UNL     1      56.960   5.987  51.535  1.00  0.00     0.174 HD
ATOM     31  H4  UNL     1      55.479   8.698  50.017  1.00  0.00     0.213 HD
BRANCH  28  32
HETATM   32  O4  UNL     1      55.245   6.663  49.969  1.00  0.00    -0.276 OA
ATOM     33  H4  UNL     1      54.533   6.169  50.360  1.00  0.00     0.245 HD
ENDBRANCH  28  32
ENDBRANCH   1  20
BRANCH   2  34
HETATM   34  O2  UNL     1      52.692   9.703  54.442  1.00  0.00    -0.372 OA
ATOM     35  H2  UNL     1      52.007   9.389  55.021  1.00  0.00     0.216 HD
ENDBRANCH   2  34
TORSDOF 14
ENDMDL
MODEL 3
REMARK VINA RESULT: -10.252327313      1.765      2.675
REMARK  14 active torsions:
REMARK  status: ('A' for Active; 'I' for Inactive)
REMARK    1  A    between atoms: C2_2  and  C3_3 
REMARK    2  A    between atoms: C2_2  and  C10_12 
REMARK    3  A    between atoms: C3_3  and  C4_4 
REMARK    4  A    between atoms: C4_4  and  C5_5 
REMARK    5  A    between atoms: C6_6  and  O1_7 
REMARK    6  A    between atoms: C6_6  and  C7_9 
REMARK    7  A    between atoms: C10_12  and  C11_13 
REMARK    8  A    between atoms: C11_13  and  C12_14 
REMARK    9  A    between atoms: C12_14  and  C14_16 
REMARK   10  A    between atoms: C14_16  and  C15_17 
REMARK   11  A    between atoms: C15_17  and  C16_18 
REMARK   12  A    between atoms: C16_18  and  C18_22 
REMARK   13  A    between atoms: C17_19  and  O2_20 
REMARK       I    between atoms: C18_22  and  N1_24 
REMARK       I    between atoms: N2_26  and  C19_28 
REMARK       I    between atoms: C19_28  and  N4_32 
REMARK   14  A    between atoms: N4_32  and  O4_34 
ROOT
HETATM    1  C16 UNL     1      57.148  10.677  52.567  1.00  0.00     0.033 C 
HETATM    2  C17 UNL     1      58.050  10.870  51.610  1.00  0.00     0.143 C 
ENDROOT
BRANCH   1   3
HETATM    3  C15 UNL     1      56.093  11.648  52.854  1.00  0.00     0.051 C 
BRANCH   3   4
HETATM    4  C14 UNL     1      55.993  12.669  51.717  1.00  0.00     0.038 C 
BRANCH   4   5
HETATM    5  C12 UNL     1      55.914  13.973  52.366  1.00  0.00    -0.084 C 
HETATM    6  C13 UNL     1      56.092  15.173  51.470  1.00  0.00     0.043 C 
BRANCH   5   7
HETATM    7  C11 UNL     1      55.725  14.150  53.660  1.00  0.00     0.003 C 
BRANCH   7   8
HETATM    8  C10 UNL     1      56.623  14.821  54.497  1.00  0.00     0.011 C 
BRANCH   8   9
HETATM    9  C2  UNL     1      56.589  15.537  55.564  1.00  0.00    -0.046 C 
HETATM   10  C1  UNL     1      56.553  16.300  56.699  1.00  0.00     0.023 C 
BRANCH   9  11
HETATM   11  C3  UNL     1      57.904  16.545  54.871  1.00  0.00     0.010 C 
BRANCH  11  12
HETATM   12  C4  UNL     1      57.618  17.722  54.659  1.00  0.00     0.003 C 
BRANCH  12  13
HETATM   13  C5  UNL     1      57.638  18.182  53.219  1.00  0.00     0.032 C 
HETATM   14  C6  UNL     1      57.516  19.413  52.927  1.00  0.00     0.046 C 
BRANCH  14  15
HETATM   15  O1  UNL     1      57.554  19.752  51.542  1.00  0.00    -0.365 OA
ATOM     16  H1  UNL     1      58.295  20.269  51.247  1.00  0.00     0.217 HD
ENDBRANCH  14  15
BRANCH  14  17
HETATM   17  C7  UNL     1      57.330  20.549  53.842  1.00  0.00     0.034 C 
HETATM   18  C8  UNL     1      56.438  21.537  53.062  1.00  0.00     0.016 C 
HETATM   19  C9  UNL     1      58.628  21.235  54.216  1.00  0.00     0.016 C 
ENDBRANCH  14  17
ENDBRANCH  12  13
ENDBRANCH  11  12
ENDBRANCH   9  11
ENDBRANCH   8   9
ENDBRANCH   7   8
ENDBRANCH   5   7
ENDBRANCH   4   5
ENDBRANCH   3   4
ENDBRANCH   1   3
BRANCH   1  20
HETATM   20  C18 UNL     1      57.159   9.456  53.368  1.00  0.00     0.268 C 
HETATM   21  O3  UNL     1      56.075   8.877  53.595  1.00  0.00    -0.266 OA
HETATM   22  N1  UNL     1      58.334   8.884  53.904  1.00  0.00    -0.252 N 
HETATM   23  N2  UNL     1      58.278   8.024  54.851  1.00  0.00    -0.128 N 
ATOM     24  H1  UNL     1      59.242   9.160  53.530  1.00  0.00     0.191 HD
HETATM   25  C19 UNL     1      59.497   7.467  55.368  1.00  0.00     0.710 C 
ATOM     26  H2  UNL     1      57.377   7.738  55.234  1.00  0.00     0.205 HD
HETATM   27  N3  UNL     1      59.546   6.166  55.418  1.00  0.00    -0.232 N 
HETATM   28  N4  UNL     1      60.576   8.238  55.799  1.00  0.00    -0.098 N 
ATOM     29  H32 UNL     1      58.756   5.602  55.102  1.00  0.00     0.174 HD
ATOM     30  H31 UNL     1      60.411   5.770  55.785  1.00  0.00     0.174 HD
ATOM     31  H4  UNL     1      60.416   9.196  56.112  1.00  0.00     0.213 HD
BRANCH  28  32
HETATM   32  O4  UNL     1      61.821   7.735  55.807  1.00  0.00    -0.276 OA
ATOM     33  H4  UNL     1      62.573   8.297  55.663  1.00  0.00     0.245 HD
ENDBRANCH  28  32
ENDBRANCH   1  20
BRANCH   2  34
HETATM   34  O2  UNL     1      59.038   9.907  51.374  1.00  0.00    -0.372 OA
ATOM     35  H2  UNL     1      59.619   9.995  50.627  1.00  0.00     0.216 HD
ENDBRANCH   2  34
TORSDOF 14
ENDMDL
MODEL 4
REMARK VINA RESULT: -10.246057631      1.851      2.707
REMARK  14 active torsions:
REMARK  status: ('A' for Active; 'I' for Inactive)
REMARK    1  A    between atoms: C2_2  and  C3_3 
REMARK    2  A    between atoms: C2_2  and  C10_12 
REMARK    3  A    between atoms: C3_3  and  C4_4 
REMARK    4  A    between atoms: C4_4  and  C5_5 
REMARK    5  A    between atoms: C6_6  and  O1_7 
REMARK    6  A    between atoms: C6_6  and  C7_9 
REMARK    7  A    between atoms: C10_12  and  C11_13 
REMARK    8  A    between atoms: C11_13  and  C12_14 
REMARK    9  A    between atoms: C12_14  and  C14_16 
REMARK   10  A    between atoms: C14_16  and  C15_17 
REMARK   11  A    between atoms: C15_17  and  C16_18 
REMARK   12  A    between atoms: C16_18  and  C18_22 
REMARK   13  A    between atoms: C17_19  and  O2_20 
REMARK       I    between atoms: C18_22  and  N1_24 
REMARK       I    between atoms: N2_26  and  C19_28 
REMARK       I    between atoms: C19_28  and  N4_32 
REMARK   14  A    between atoms: N4_32  and  O4_34 
ROOT
HETATM    1  C16 UNL     1      53.528  11.584  54.222  1.00  0.00     0.033 C 
HETATM    2  C17 UNL     1      52.336  11.550  54.808  1.00  0.00     0.143 C 
ENDROOT
BRANCH   1   3
HETATM    3  C15 UNL     1      54.238  12.837  53.969  1.00  0.00     0.051 C 
BRANCH   3   4
HETATM    4  C14 UNL     1      54.563  12.967  52.478  1.00  0.00     0.038 C 
BRANCH   4   5
HETATM    5  C12 UNL     1      55.966  13.361  52.415  1.00  0.00    -0.084 C 
HETATM    6  C13 UNL     1      56.960  12.248  52.191  1.00  0.00     0.043 C 
BRANCH   5   7
HETATM    7  C11 UNL     1      56.398  14.599  52.561  1.00  0.00     0.003 C 
BRANCH   7   8
HETATM    8  C10 UNL     1      57.143  15.042  53.660  1.00  0.00     0.011 C 
BRANCH   8   9
HETATM    9  C2  UNL     1      56.935  15.425  54.869  1.00  0.00    -0.046 C 
HETATM   10  C1  UNL     1      56.714  15.834  56.156  1.00  0.00     0.023 C 
BRANCH   9  11
HETATM   11  C3  UNL     1      58.103  16.761  54.595  1.00  0.00     0.010 C 
BRANCH  11  12
HETATM   12  C4  UNL     1      57.613  17.884  54.482  1.00  0.00     0.003 C 
BRANCH  12  13
HETATM   13  C5  UNL     1      57.588  18.484  53.096  1.00  0.00     0.032 C 
HETATM   14  C6  UNL     1      57.491  19.741  52.931  1.00  0.00     0.046 C 
BRANCH  14  15
HETATM   15  O1  UNL     1      57.484  20.215  51.586  1.00  0.00    -0.365 OA
ATOM     16  H1  UNL     1      58.329  20.340  51.171  1.00  0.00     0.217 HD
ENDBRANCH  14  15
BRANCH  14  17
HETATM   17  C7  UNL     1      57.378  20.785  53.961  1.00  0.00     0.034 C 
HETATM   18  C8  UNL     1      56.409  21.823  53.359  1.00  0.00     0.016 C 
HETATM   19  C9  UNL     1      58.698  21.457  54.279  1.00  0.00     0.016 C 
ENDBRANCH  14  17
ENDBRANCH  12  13
ENDBRANCH  11  12
ENDBRANCH   9  11
ENDBRANCH   8   9
ENDBRANCH   7   8
ENDBRANCH   5   7
ENDBRANCH   4   5
ENDBRANCH   3   4
ENDBRANCH   1   3
BRANCH   1  20
HETATM   20  C18 UNL     1      54.201  10.350  53.825  1.00  0.00     0.268 C 
HETATM   21  O3  UNL     1      55.173   9.952  54.500  1.00  0.00    -0.266 OA
HETATM   22  N1  UNL     1      53.812   9.573  52.711  1.00  0.00    -0.252 N 
HETATM   23  N2  UNL     1      54.601   8.702  52.205  1.00  0.00    -0.128 N 
ATOM     24  H1  UNL     1      52.886   9.708  52.304  1.00  0.00     0.191 HD
HETATM   25  C19 UNL     1      54.167   7.933  51.073  1.00  0.00     0.710 C 
ATOM     26  H2  UNL     1      55.530   8.555  52.603  1.00  0.00     0.205 HD
HETATM   27  N3  UNL     1      54.287   6.640  51.189  1.00  0.00    -0.232 N 
HETATM   28  N4  UNL     1      53.647   8.498  49.909  1.00  0.00    -0.098 N 
ATOM     29  H32 UNL     1      54.668   6.226  52.040  1.00  0.00     0.174 HD
ATOM     30  H31 UNL     1      53.979   6.093  50.384  1.00  0.00     0.174 HD
ATOM     31  H4  UNL     1      53.892   9.457  49.663  1.00  0.00     0.213 HD
BRANCH  28  32
HETATM   32  O4  UNL     1      52.828   7.796  49.109  1.00  0.00    -0.276 OA
ATOM     33  H4  UNL     1      52.094   7.312  49.469  1.00  0.00     0.245 HD
ENDBRANCH  28  32
ENDBRANCH   1  20
BRANCH   2  34
HETATM   34  O2  UNL     1      51.699  10.323  55.030  1.00  0.00    -0.372 OA
ATOM     35  H2  UNL     1      50.865  10.295  55.485  1.00  0.00     0.216 HD
ENDBRANCH   2  34
TORSDOF 14
ENDMDL
MODEL 5
REMARK VINA RESULT: -10.154960240      2.646      3.898
REMARK  14 active torsions:
REMARK  status: ('A' for Active; 'I' for Inactive)
REMARK    1  A    between atoms: C2_2  and  C3_3 
REMARK    2  A    between atoms: C2_2  and  C10_12 
REMARK    3  A    between atoms: C3_3  and  C4_4 
REMARK    4  A    between atoms: C4_4  and  C5_5 
REMARK    5  A    between atoms: C6_6  and  O1_7 
REMARK    6  A    between atoms: C6_6  and  C7_9 
REMARK    7  A    between atoms: C10_12  and  C11_13 
REMARK    8  A    between atoms: C11_13  and  C12_14 
REMARK    9  A    between atoms: C12_14  and  C14_16 
REMARK   10  A    between atoms: C14_16  and  C15_17 
REMARK   11  A    between atoms: C15_17  and  C16_18 
REMARK   12  A    between atoms: C16_18  and  C18_22 
REMARK   13  A    between atoms: C17_19  and  O2_20 
REMARK       I    between atoms: C18_22  and  N1_24 
REMARK       I    between atoms: N2_26  and  C19_28 
REMARK       I    between atoms: C19_28  and  N4_32 
REMARK   14  A    between atoms: N4_32  and  O4_34 
ROOT
HETATM    1  C16 UNL     1      56.043   9.415  53.058  1.00  0.00     0.033 C 
HETATM    2  C17 UNL     1      57.093   8.682  52.703  1.00  0.00     0.143 C 
ENDROOT
BRANCH   1   3
HETATM    3  C15 UNL     1      56.184  10.729  53.684  1.00  0.00     0.051 C 
BRANCH   3   4
HETATM    4  C14 UNL     1      56.200  11.824  52.614  1.00  0.00     0.038 C 
BRANCH   4   5
HETATM    5  C12 UNL     1      55.497  12.959  53.202  1.00  0.00    -0.084 C 
HETATM    6  C13 UNL     1      54.224  12.639  53.946  1.00  0.00     0.043 C 
BRANCH   5   7
HETATM    7  C11 UNL     1      55.893  14.213  53.099  1.00  0.00     0.003 C 
BRANCH   7   8
HETATM    8  C10 UNL     1      56.762  14.834  54.004  1.00  0.00     0.011 C 
BRANCH   8   9
HETATM    9  C2  UNL     1      56.712  15.361  55.175  1.00  0.00    -0.046 C 
HETATM   10  C1  UNL     1      56.659  15.923  56.421  1.00  0.00     0.023 C 
BRANCH   9  11
HETATM   11  C3  UNL     1      58.001  16.502  54.664  1.00  0.00     0.010 C 
BRANCH  11  12
HETATM   12  C4  UNL     1      57.653  17.673  54.524  1.00  0.00     0.003 C 
BRANCH  12  13
HETATM   13  C5  UNL     1      57.651  18.223  53.117  1.00  0.00     0.032 C 
HETATM   14  C6  UNL     1      57.513  19.469  52.904  1.00  0.00     0.046 C 
BRANCH  14  15
HETATM   15  O1  UNL     1      57.532  19.896  51.543  1.00  0.00    -0.365 OA
ATOM     16  H1  UNL     1      58.281  20.410  51.265  1.00  0.00     0.217 HD
ENDBRANCH  14  15
BRANCH  14  17
HETATM   17  C7  UNL     1      57.327  20.543  53.892  1.00  0.00     0.034 C 
HETATM   18  C8  UNL     1      56.399  21.558  53.194  1.00  0.00     0.016 C 
HETATM   19  C9  UNL     1      58.620  21.231  54.279  1.00  0.00     0.016 C 
ENDBRANCH  14  17
ENDBRANCH  12  13
ENDBRANCH  11  12
ENDBRANCH   9  11
ENDBRANCH   8   9
ENDBRANCH   7   8
ENDBRANCH   5   7
ENDBRANCH   4   5
ENDBRANCH   3   4
ENDBRANCH   1   3
BRANCH   1  20
HETATM   20  C18 UNL     1      54.684   8.942  52.811  1.00  0.00     0.268 C 
HETATM   21  O3  UNL     1      53.903   8.827  53.779  1.00  0.00    -0.266 OA
HETATM   22  N1  UNL     1      54.195   8.606  51.529  1.00  0.00    -0.252 N 
HETATM   23  N2  UNL     1      53.137   7.899  51.389  1.00  0.00    -0.128 N 
ATOM     24  H1  UNL     1      54.694   8.931  50.701  1.00  0.00     0.191 HD
HETATM   25  C19 UNL     1      52.675   7.579  50.068  1.00  0.00     0.710 C 
ATOM     26  H2  UNL     1      52.628   7.567  52.209  1.00  0.00     0.205 HD
HETATM   27  N3  UNL     1      51.424   7.854  49.825  1.00  0.00    -0.232 N 
HETATM   28  N4  UNL     1      53.482   7.009  49.084  1.00  0.00    -0.098 N 
ATOM     29  H32 UNL     1      50.833   8.271  50.545  1.00  0.00     0.174 HD
ATOM     30  H31 UNL     1      51.095   7.626  48.887  1.00  0.00     0.174 HD
ATOM     31  H4  UNL     1      54.300   6.463  49.358  1.00  0.00     0.213 HD
BRANCH  28  32
HETATM   32  O4  UNL     1      53.198   7.169  47.782  1.00  0.00    -0.276 OA
ATOM     33  H4  UNL     1      53.353   6.468  47.160  1.00  0.00     0.245 HD
ENDBRANCH  28  32
ENDBRANCH   1  20
BRANCH   2  34
HETATM   34  O2  UNL     1      56.903   7.430  52.104  1.00  0.00    -0.372 OA
ATOM     35  H2  UNL     1      57.423   7.180  51.349  1.00  0.00     0.216 HD
ENDBRANCH   2  34
TORSDOF 14
ENDMDL
