MODEL 1
REMARK VINA RESULT: -7.339642821      0.000      0.000
REMARK  10 active torsions:
REMARK  status: ('A' for Active; 'I' for Inactive)
REMARK    1  A    between atoms: C3_3  and  N1_4 
REMARK    2  A    between atoms: N1_4  and  C4_6 
REMARK    3  A    between atoms: C5_9  and  N3_10 
REMARK    4  A    between atoms: N3_10  and  C6_12 
REMARK    5  A    between atoms: C8_16  and  N5_17 
REMARK    6  A    between atoms: N5_17  and  C9_19 
REMARK    7  A    between atoms: C9_19  and  C10_20 
REMARK    8  A    between atoms: C10_20  and  C11_21 
REMARK    9  A    between atoms: N6_24  and  C14_25 
REMARK   10  A    between atoms: C14_25  and  C15_26 
ROOT
HETATM    1  C1  UNL     1     -26.987   0.479  19.204  1.00  0.00     0.014 C 
HETATM    2  C2  UNL     1     -26.734   1.431  18.513  1.00  0.00    -0.097 C 
HETATM    3  C3  UNL     1     -26.425   2.603  17.691  1.00  0.00     0.231 C 
ENDROOT
BRANCH   3   4
HETATM    4  N1  UNL     1     -25.094   2.582  17.158  1.00  0.00    -0.215 N 
ATOM      5  H1  UNL     1     -24.343   2.899  17.770  1.00  0.00     0.178 HD
BRANCH   4   6
HETATM    6  C4  UNL     1     -24.769   2.201  15.983  1.00  0.00     0.708 A 
HETATM    7  N2  UNL     1     -23.508   1.898  15.632  1.00  0.00    -0.021 N 
HETATM    8  C5  UNL     1     -23.273   1.507  14.372  1.00  0.00     0.707 A 
ATOM      9  H2  UNL     1     -22.747   1.964  16.307  1.00  0.00     0.203 HD
HETATM   10  N4  UNL     1     -24.257   1.411  13.460  1.00  0.00    -0.022 N 
HETATM   11  C8  UNL     1     -25.536   1.713  13.795  1.00  0.00     0.707 A 
ATOM     12  H4  UNL     1     -24.040   1.109  12.510  1.00  0.00     0.203 HD
HETATM   13  N7  UNL     1     -25.747   2.102  15.066  1.00  0.00    -0.021 N 
ATOM     14  H7  UNL     1     -26.700   2.335  15.348  1.00  0.00     0.203 HD
BRANCH   8  15
HETATM   15  N3  UNL     1     -22.067   1.222  14.056  1.00  0.00    -0.225 N 
ATOM     16  H3  UNL     1     -21.676   1.657  13.221  1.00  0.00     0.177 HD
BRANCH  15  17
HETATM   17  C6  UNL     1     -21.224   0.321  14.811  1.00  0.00     0.133 C 
HETATM   18  C7  UNL     1     -20.170   1.062  15.583  1.00  0.00     0.027 C 
ENDBRANCH  15  17
ENDBRANCH   8  15
BRANCH  11  19
HETATM   19  N5  UNL     1     -26.501   1.628  12.939  1.00  0.00    -0.225 N 
ATOM     20  H5  UNL     1     -26.282   1.324  11.991  1.00  0.00     0.177 HD
BRANCH  19  21
HETATM   21  C9  UNL     1     -27.865   1.943  13.257  1.00  0.00     0.142 C 
BRANCH  21  22
HETATM   22  C10 UNL     1     -28.787   0.763  13.089  1.00  0.00     0.058 C 
BRANCH  22  23
HETATM   23  C11 UNL     1     -29.511   0.407  14.310  1.00  0.00    -0.054 A 
HETATM   24  C12 UNL     1     -30.775  -0.135  14.266  1.00  0.00     0.024 A 
HETATM   25  C13 UNL     1     -31.446  -0.467  15.451  1.00  0.00     0.091 A 
HETATM   26  N6  UNL     1     -30.867  -0.261  16.634  1.00  0.00    -0.362 N 
HETATM   27  C21 UNL     1     -29.634   0.270  16.662  1.00  0.00     0.091 A 
HETATM   28  C22 UNL     1     -28.921   0.618  15.533  1.00  0.00     0.024 A 
BRANCH  26  29
HETATM   29  C14 UNL     1     -31.495  -0.576  17.899  1.00  0.00     0.166 C 
BRANCH  29  30
HETATM   30  C15 UNL     1     -30.592  -1.197  18.860  1.00  0.00    -0.040 A 
HETATM   31  C16 UNL     1     -29.941  -2.360  18.555  1.00  0.00     0.009 A 
HETATM   32  C17 UNL     1     -29.096  -2.919  19.485  1.00  0.00     0.001 A 
HETATM   33  C18 UNL     1     -28.898  -2.326  20.707  1.00  0.00     0.000 A 
HETATM   34  C19 UNL     1     -29.537  -1.165  21.032  1.00  0.00     0.001 A 
HETATM   35  C20 UNL     1     -30.397  -0.603  20.080  1.00  0.00     0.009 A 
ENDBRANCH  29  30
ENDBRANCH  26  29
ENDBRANCH  22  23
ENDBRANCH  21  22
ENDBRANCH  19  21
ENDBRANCH  11  19
ENDBRANCH   4   6
ENDBRANCH   3   4
TORSDOF 10
ENDMDL
MODEL 2
REMARK VINA RESULT: -7.274015774      1.179      3.535
REMARK  10 active torsions:
REMARK  status: ('A' for Active; 'I' for Inactive)
REMARK    1  A    between atoms: C3_3  and  N1_4 
REMARK    2  A    between atoms: N1_4  and  C4_6 
REMARK    3  A    between atoms: C5_9  and  N3_10 
REMARK    4  A    between atoms: N3_10  and  C6_12 
REMARK    5  A    between atoms: C8_16  and  N5_17 
REMARK    6  A    between atoms: N5_17  and  C9_19 
REMARK    7  A    between atoms: C9_19  and  C10_20 
REMARK    8  A    between atoms: C10_20  and  C11_21 
REMARK    9  A    between atoms: N6_24  and  C14_25 
REMARK   10  A    between atoms: C14_25  and  C15_26 
ROOT
HETATM    1  C1  UNL     1     -19.771   1.260  17.540  1.00  0.00     0.014 C 
HETATM    2  C2  UNL     1     -20.168   0.987  16.438  1.00  0.00    -0.097 C 
HETATM    3  C3  UNL     1     -20.666   0.639  15.105  1.00  0.00     0.231 C 
ENDROOT
BRANCH   3   4
HETATM    4  N1  UNL     1     -21.499   1.656  14.533  1.00  0.00    -0.215 N 
ATOM      5  H1  UNL     1     -21.052   2.329  13.910  1.00  0.00     0.178 HD
BRANCH   4   6
HETATM    6  C4  UNL     1     -22.753   1.792  14.735  1.00  0.00     0.708 A 
HETATM    7  N2  UNL     1     -23.278   2.049  15.945  1.00  0.00    -0.021 N 
HETATM    8  C5  UNL     1     -24.608   2.173  16.050  1.00  0.00     0.707 A 
ATOM      9  H2  UNL     1     -22.679   2.147  16.764  1.00  0.00     0.203 HD
HETATM   10  N4  UNL     1     -25.422   2.048  14.987  1.00  0.00    -0.022 N 
HETATM   11  C8  UNL     1     -24.911   1.788  13.758  1.00  0.00     0.707 A 
ATOM     12  H4  UNL     1     -26.430   2.150  15.105  1.00  0.00     0.203 HD
HETATM   13  N7  UNL     1     -23.573   1.669  13.677  1.00  0.00    -0.021 N 
ATOM     14  H7  UNL     1     -23.160   1.474  12.765  1.00  0.00     0.203 HD
BRANCH   8  15
HETATM   15  N3  UNL     1     -25.089   2.418  17.209  1.00  0.00    -0.225 N 
ATOM     16  H3  UNL     1     -24.681   1.936  18.009  1.00  0.00     0.177 HD
BRANCH  15  17
HETATM   17  C6  UNL     1     -26.179   3.338  17.454  1.00  0.00     0.133 C 
HETATM   18  C7  UNL     1     -27.178   2.772  18.422  1.00  0.00     0.027 C 
ENDBRANCH  15  17
ENDBRANCH   8  15
BRANCH  11  19
HETATM   19  N5  UNL     1     -25.670   1.664  12.719  1.00  0.00    -0.225 N 
ATOM     20  H5  UNL     1     -25.484   0.899  12.071  1.00  0.00     0.177 HD
BRANCH  19  21
HETATM   21  C9  UNL     1     -26.762   2.551  12.431  1.00  0.00     0.142 C 
BRANCH  21  22
HETATM   22  C10 UNL     1     -28.055   1.819  12.181  1.00  0.00     0.058 C 
BRANCH  22  23
HETATM   23  C11 UNL     1     -28.776   1.468  13.404  1.00  0.00    -0.054 A 
HETATM   24  C12 UNL     1     -29.400   0.250  13.549  1.00  0.00     0.024 A 
HETATM   25  C13 UNL     1     -30.084  -0.060  14.733  1.00  0.00     0.091 A 
HETATM   26  N6  UNL     1     -30.138   0.822  15.731  1.00  0.00    -0.362 N 
HETATM   27  C21 UNL     1     -29.525   2.007  15.575  1.00  0.00     0.091 A 
HETATM   28  C22 UNL     1     -28.836   2.373  14.438  1.00  0.00     0.024 A 
BRANCH  26  29
HETATM   29  C14 UNL     1     -30.824   0.576  16.981  1.00  0.00     0.166 C 
BRANCH  29  30
HETATM   30  C15 UNL     1     -30.239  -0.504  17.766  1.00  0.00    -0.040 A 
HETATM   31  C16 UNL     1     -28.927  -0.457  18.147  1.00  0.00     0.009 A 
HETATM   32  C17 UNL     1     -28.406  -1.493  18.888  1.00  0.00     0.001 A 
HETATM   33  C18 UNL     1     -29.185  -2.565  19.248  1.00  0.00     0.000 A 
HETATM   34  C19 UNL     1     -30.497  -2.632  18.879  1.00  0.00     0.001 A 
HETATM   35  C20 UNL     1     -31.018  -1.574  18.124  1.00  0.00     0.009 A 
ENDBRANCH  29  30
ENDBRANCH  26  29
ENDBRANCH  22  23
ENDBRANCH  21  22
ENDBRANCH  19  21
ENDBRANCH  11  19
ENDBRANCH   4   6
ENDBRANCH   3   4
TORSDOF 10
ENDMDL
MODEL 3
REMARK VINA RESULT: -7.261850171      0.387      3.255
REMARK  10 active torsions:
REMARK  status: ('A' for Active; 'I' for Inactive)
REMARK    1  A    between atoms: C3_3  and  N1_4 
REMARK    2  A    between atoms: N1_4  and  C4_6 
REMARK    3  A    between atoms: C5_9  and  N3_10 
REMARK    4  A    between atoms: N3_10  and  C6_12 
REMARK    5  A    between atoms: C8_16  and  N5_17 
REMARK    6  A    between atoms: N5_17  and  C9_19 
REMARK    7  A    between atoms: C9_19  and  C10_20 
REMARK    8  A    between atoms: C10_20  and  C11_21 
REMARK    9  A    between atoms: N6_24  and  C14_25 
REMARK   10  A    between atoms: C14_25  and  C15_26 
ROOT
HETATM    1  C1  UNL     1     -19.829   0.965  16.685  1.00  0.00     0.014 C 
HETATM    2  C2  UNL     1     -20.470   0.797  15.681  1.00  0.00    -0.097 C 
HETATM    3  C3  UNL     1     -21.262   0.576  14.469  1.00  0.00     0.231 C 
ENDROOT
BRANCH   3   4
HETATM    4  N1  UNL     1     -22.187   1.638  14.200  1.00  0.00    -0.215 N 
ATOM      5  H1  UNL     1     -21.849   2.420  13.641  1.00  0.00     0.178 HD
BRANCH   4   6
HETATM    6  C4  UNL     1     -23.399   1.686  14.600  1.00  0.00     0.708 A 
HETATM    7  N2  UNL     1     -23.743   1.923  15.877  1.00  0.00    -0.021 N 
HETATM    8  C5  UNL     1     -25.044   1.954  16.193  1.00  0.00     0.707 A 
ATOM      9  H2  UNL     1     -23.029   2.075  16.590  1.00  0.00     0.203 HD
HETATM   10  N4  UNL     1     -26.006   1.756  15.274  1.00  0.00    -0.022 N 
HETATM   11  C8  UNL     1     -25.680   1.516  13.980  1.00  0.00     0.707 A 
ATOM     12  H4  UNL     1     -26.987   1.788  15.552  1.00  0.00     0.203 HD
HETATM   13  N7  UNL     1     -24.367   1.490  13.687  1.00  0.00    -0.021 N 
ATOM     14  H7  UNL     1     -24.091   1.312  12.721  1.00  0.00     0.203 HD
BRANCH   8  15
HETATM   15  N3  UNL     1     -25.351   2.181  17.413  1.00  0.00    -0.225 N 
ATOM     16  H3  UNL     1     -24.608   2.470  18.049  1.00  0.00     0.177 HD
BRANCH  15  17
HETATM   17  C6  UNL     1     -26.689   2.053  17.947  1.00  0.00     0.133 C 
HETATM   18  C7  UNL     1     -26.871   0.760  18.690  1.00  0.00     0.027 C 
ENDBRANCH  15  17
ENDBRANCH   8  15
BRANCH  11  19
HETATM   19  N5  UNL     1     -26.584   1.323  13.076  1.00  0.00    -0.225 N 
ATOM     20  H5  UNL     1     -26.327   0.805  12.236  1.00  0.00     0.177 HD
BRANCH  19  21
HETATM   21  C9  UNL     1     -27.931   1.804  13.195  1.00  0.00     0.142 C 
BRANCH  21  22
HETATM   22  C10 UNL     1     -28.955   0.711  13.026  1.00  0.00     0.058 C 
BRANCH  22  23
HETATM   23  C11 UNL     1     -29.641   0.354  14.267  1.00  0.00    -0.054 A 
HETATM   24  C12 UNL     1     -30.914  -0.168  14.263  1.00  0.00     0.024 A 
HETATM   25  C13 UNL     1     -31.549  -0.502  15.467  1.00  0.00     0.091 A 
HETATM   26  N6  UNL     1     -30.926  -0.317  16.631  1.00  0.00    -0.362 N 
HETATM   27  C21 UNL     1     -29.683   0.193  16.620  1.00  0.00     0.091 A 
HETATM   28  C22 UNL     1     -29.004   0.541  15.471  1.00  0.00     0.024 A 
BRANCH  26  29
HETATM   29  C14 UNL     1     -31.513  -0.636  17.914  1.00  0.00     0.166 C 
BRANCH  29  30
HETATM   30  C15 UNL     1     -30.568  -1.214  18.862  1.00  0.00    -0.040 A 
HETATM   31  C16 UNL     1     -30.071  -2.473  18.672  1.00  0.00     0.009 A 
HETATM   32  C17 UNL     1     -29.181  -2.988  19.585  1.00  0.00     0.001 A 
HETATM   33  C18 UNL     1     -28.787  -2.256  20.679  1.00  0.00     0.000 A 
HETATM   34  C19 UNL     1     -29.271  -0.997  20.888  1.00  0.00     0.001 A 
HETATM   35  C20 UNL     1     -30.177  -0.481  19.953  1.00  0.00     0.009 A 
ENDBRANCH  29  30
ENDBRANCH  26  29
ENDBRANCH  22  23
ENDBRANCH  21  22
ENDBRANCH  19  21
ENDBRANCH  11  19
ENDBRANCH   4   6
ENDBRANCH   3   4
TORSDOF 10
ENDMDL
MODEL 4
REMARK VINA RESULT: -7.254801682      1.140      3.551
REMARK  10 active torsions:
REMARK  status: ('A' for Active; 'I' for Inactive)
REMARK    1  A    between atoms: C3_3  and  N1_4 
REMARK    2  A    between atoms: N1_4  and  C4_6 
REMARK    3  A    between atoms: C5_9  and  N3_10 
REMARK    4  A    between atoms: N3_10  and  C6_12 
REMARK    5  A    between atoms: C8_16  and  N5_17 
REMARK    6  A    between atoms: N5_17  and  C9_19 
REMARK    7  A    between atoms: C9_19  and  C10_20 
REMARK    8  A    between atoms: C10_20  and  C11_21 
REMARK    9  A    between atoms: N6_24  and  C14_25 
REMARK   10  A    between atoms: C14_25  and  C15_26 
ROOT
HETATM    1  C1  UNL     1     -19.787   1.318  17.371  1.00  0.00     0.014 C 
HETATM    2  C2  UNL     1     -20.215   0.991  16.295  1.00  0.00    -0.097 C 
HETATM    3  C3  UNL     1     -20.750   0.578  14.996  1.00  0.00     0.231 C 
ENDROOT
BRANCH   3   4
HETATM    4  N1  UNL     1     -21.589   1.572  14.391  1.00  0.00    -0.215 N 
ATOM      5  H1  UNL     1     -21.154   2.201  13.716  1.00  0.00     0.178 HD
BRANCH   4   6
HETATM    6  C4  UNL     1     -22.833   1.737  14.625  1.00  0.00     0.708 A 
HETATM    7  N2  UNL     1     -23.321   2.016  15.846  1.00  0.00    -0.021 N 
HETATM    8  C5  UNL     1     -24.644   2.171  15.984  1.00  0.00     0.707 A 
ATOM      9  H2  UNL     1     -22.698   2.108  16.648  1.00  0.00     0.203 HD
HETATM   10  N4  UNL     1     -25.488   2.054  14.944  1.00  0.00    -0.022 N 
HETATM   11  C8  UNL     1     -25.016   1.772  13.704  1.00  0.00     0.707 A 
ATOM     12  H4  UNL     1     -26.491   2.179  15.088  1.00  0.00     0.203 HD
HETATM   13  N7  UNL     1     -23.684   1.623  13.590  1.00  0.00    -0.021 N 
ATOM     14  H7  UNL     1     -23.299   1.411  12.669  1.00  0.00     0.203 HD
BRANCH   8  15
HETATM   15  N3  UNL     1     -25.090   2.436  17.153  1.00  0.00    -0.225 N 
ATOM     16  H3  UNL     1     -24.495   2.977  17.781  1.00  0.00     0.177 HD
BRANCH  15  17
HETATM   17  C6  UNL     1     -26.385   2.017  17.639  1.00  0.00     0.133 C 
HETATM   18  C7  UNL     1     -27.185   3.175  18.163  1.00  0.00     0.027 C 
ENDBRANCH  15  17
ENDBRANCH   8  15
BRANCH  11  19
HETATM   19  N5  UNL     1     -25.805   1.656  12.687  1.00  0.00    -0.225 N 
ATOM     20  H5  UNL     1     -25.622   0.912  12.014  1.00  0.00     0.177 HD
BRANCH  19  21
HETATM   21  C9  UNL     1     -26.926   2.524  12.456  1.00  0.00     0.142 C 
BRANCH  21  22
HETATM   22  C10 UNL     1     -28.208   1.767  12.224  1.00  0.00     0.058 C 
BRANCH  22  23
HETATM   23  C11 UNL     1     -28.935   1.455  13.455  1.00  0.00    -0.054 A 
HETATM   24  C12 UNL     1     -29.014   2.354  14.493  1.00  0.00     0.024 A 
HETATM   25  C13 UNL     1     -29.717   2.029  15.661  1.00  0.00     0.091 A 
HETATM   26  N6  UNL     1     -30.319   0.845  15.779  1.00  0.00    -0.362 N 
HETATM   27  C21 UNL     1     -30.233  -0.023  14.757  1.00  0.00     0.091 A 
HETATM   28  C22 UNL     1     -29.557   0.235  13.583  1.00  0.00     0.024 A 
BRANCH  26  29
HETATM   29  C14 UNL     1     -31.062   0.436  16.951  1.00  0.00     0.166 C 
BRANCH  29  30
HETATM   30  C15 UNL     1     -30.387  -0.584  17.744  1.00  0.00    -0.040 A 
HETATM   31  C16 UNL     1     -31.052  -1.711  18.142  1.00  0.00     0.009 A 
HETATM   32  C17 UNL     1     -30.386  -2.655  18.888  1.00  0.00     0.001 A 
HETATM   33  C18 UNL     1     -29.069  -2.480  19.236  1.00  0.00     0.000 A 
HETATM   34  C19 UNL     1     -28.386  -1.364  18.850  1.00  0.00     0.001 A 
HETATM   35  C20 UNL     1     -29.072  -0.408  18.090  1.00  0.00     0.009 A 
ENDBRANCH  29  30
ENDBRANCH  26  29
ENDBRANCH  22  23
ENDBRANCH  21  22
ENDBRANCH  19  21
ENDBRANCH  11  19
ENDBRANCH   4   6
ENDBRANCH   3   4
TORSDOF 10
ENDMDL
MODEL 5
REMARK VINA RESULT: -7.163966985      1.109      1.471
REMARK  10 active torsions:
REMARK  status: ('A' for Active; 'I' for Inactive)
REMARK    1  A    between atoms: C3_3  and  N1_4 
REMARK    2  A    between atoms: N1_4  and  C4_6 
REMARK    3  A    between atoms: C5_9  and  N3_10 
REMARK    4  A    between atoms: N3_10  and  C6_12 
REMARK    5  A    between atoms: C8_16  and  N5_17 
REMARK    6  A    between atoms: N5_17  and  C9_19 
REMARK    7  A    between atoms: C9_19  and  C10_20 
REMARK    8  A    between atoms: C10_20  and  C11_21 
REMARK    9  A    between atoms: N6_24  and  C14_25 
REMARK   10  A    between atoms: C14_25  and  C15_26 
ROOT
HETATM    1  C1  UNL     1     -27.523   2.464  19.828  1.00  0.00     0.014 C 
HETATM    2  C2  UNL     1     -27.085   2.647  18.722  1.00  0.00    -0.097 C 
HETATM    3  C3  UNL     1     -26.549   2.892  17.381  1.00  0.00     0.231 C 
ENDROOT
BRANCH   3   4
HETATM    4  N1  UNL     1     -25.247   2.324  17.184  1.00  0.00    -0.215 N 
ATOM      5  H1  UNL     1     -24.706   2.099  18.018  1.00  0.00     0.178 HD
BRANCH   4   6
HETATM    6  C4  UNL     1     -24.707   2.077  16.054  1.00  0.00     0.708 A 
HETATM    7  N2  UNL     1     -23.383   1.919  15.890  1.00  0.00    -0.021 N 
HETATM    8  C5  UNL     1     -22.917   1.661  14.661  1.00  0.00     0.707 A 
ATOM      9  H2  UNL     1     -22.747   1.994  16.683  1.00  0.00     0.203 HD
HETATM   10  N4  UNL     1     -23.734   1.558  13.597  1.00  0.00    -0.022 N 
HETATM   11  C8  UNL     1     -25.073   1.715  13.741  1.00  0.00     0.707 A 
ATOM     12  H4  UNL     1     -23.343   1.360  12.675  1.00  0.00     0.203 HD
HETATM   13  N7  UNL     1     -25.517   1.972  14.985  1.00  0.00    -0.021 N 
ATOM     14  H7  UNL     1     -26.520   2.094  15.125  1.00  0.00     0.203 HD
BRANCH   8  15
HETATM   15  N3  UNL     1     -21.655   1.514  14.525  1.00  0.00    -0.225 N 
ATOM     16  H3  UNL     1     -21.145   2.218  13.992  1.00  0.00     0.177 HD
BRANCH  15  17
HETATM   17  C6  UNL     1     -20.906   0.408  15.080  1.00  0.00     0.133 C 
HETATM   18  C7  UNL     1     -20.010   0.851  16.203  1.00  0.00     0.027 C 
ENDBRANCH  15  17
ENDBRANCH   8  15
BRANCH  11  19
HETATM   19  N5  UNL     1     -25.880   1.620  12.735  1.00  0.00    -0.225 N 
ATOM     20  H5  UNL     1     -25.724   0.875  12.056  1.00  0.00     0.177 HD
BRANCH  19  21
HETATM   21  C9  UNL     1     -26.987   2.511  12.528  1.00  0.00     0.142 C 
BRANCH  21  22
HETATM   22  C10 UNL     1     -28.282   1.782  12.283  1.00  0.00     0.058 C 
BRANCH  22  23
HETATM   23  C11 UNL     1     -29.004   1.443  13.509  1.00  0.00    -0.054 A 
HETATM   24  C12 UNL     1     -29.080   2.319  14.567  1.00  0.00     0.024 A 
HETATM   25  C13 UNL     1     -29.779   1.969  15.730  1.00  0.00     0.091 A 
HETATM   26  N6  UNL     1     -30.378   0.781  15.825  1.00  0.00    -0.362 N 
HETATM   27  C21 UNL     1     -30.295  -0.064  14.785  1.00  0.00     0.091 A 
HETATM   28  C22 UNL     1     -29.624   0.220  13.614  1.00  0.00     0.024 A 
BRANCH  26  29
HETATM   29  C14 UNL     1     -31.116   0.347  16.991  1.00  0.00     0.166 C 
BRANCH  29  30
HETATM   30  C15 UNL     1     -30.407  -0.641  17.797  1.00  0.00    -0.040 A 
HETATM   31  C16 UNL     1     -31.029  -1.791  18.195  1.00  0.00     0.009 A 
HETATM   32  C17 UNL     1     -30.332  -2.703  18.954  1.00  0.00     0.001 A 
HETATM   33  C18 UNL     1     -29.026  -2.472  19.312  1.00  0.00     0.000 A 
HETATM   34  C19 UNL     1     -28.386  -1.331  18.925  1.00  0.00     0.001 A 
HETATM   35  C20 UNL     1     -29.104  -0.408  18.153  1.00  0.00     0.009 A 
ENDBRANCH  29  30
ENDBRANCH  26  29
ENDBRANCH  22  23
ENDBRANCH  21  22
ENDBRANCH  19  21
ENDBRANCH  11  19
ENDBRANCH   4   6
ENDBRANCH   3   4
TORSDOF 10
ENDMDL
