MODEL 1
REMARK VINA RESULT: -6.448632892      0.000      0.000
REMARK  8 active torsions:
REMARK  status: ('A' for Active; 'I' for Inactive)
REMARK    1  A    between atoms: C6_7  and  C8_9 
REMARK    2  A    between atoms: C9_12  and  N1_13 
REMARK    3  A    between atoms: N1_13  and  C10_15 
REMARK    4  A    between atoms: C10_15  and  C11_16 
REMARK    5  A    between atoms: C11_16  and  C12_17 
REMARK    6  A    between atoms: C18_24  and  O4_25 
REMARK    7  A    between atoms: C27_35  and  C28_36 
REMARK    8  A    between atoms: C28_36  and  C29_37 
ROOT
HETATM    1  C1  UNL     1      44.537   8.597   0.313  1.00  0.00     0.016 C 
HETATM    2  C2  UNL     1      45.625   9.354   0.005  1.00  0.00    -0.069 C 
HETATM    3  C3  UNL     1      46.805   8.513   0.180  1.00  0.00     0.052 C 
HETATM    4  C4  UNL     1      46.847   8.108   1.619  1.00  0.00     0.004 C 
HETATM    5  C5  UNL     1      47.896   7.471   2.128  1.00  0.00     0.029 C 
HETATM    6 CL1  UNL     1      47.921   7.008   3.834  1.00  0.00    -0.088 Cl
HETATM    7  C6  UNL     1      49.004   7.148   1.189  1.00  0.00     0.103 C 
HETATM    8  C7  UNL     1      48.501   5.987   0.332  1.00  0.00     0.035 C 
HETATM    9  C9  UNL     1      49.339   8.317   0.360  1.00  0.00     0.113 C 
HETATM   10  C14 UNL     1      48.130   9.025  -0.212  1.00  0.00     0.092 C 
HETATM   11  C15 UNL     1      48.078  10.490   0.119  1.00  0.00     0.144 C 
HETATM   12  O3  UNL     1      48.452  10.888   1.185  1.00  0.00    -0.297 OA
HETATM   13  C16 UNL     1      47.580  11.536  -0.796  1.00  0.00     0.119 C 
HETATM   14  C17 UNL     1      48.341  11.329  -2.088  1.00  0.00     0.052 C 
HETATM   15  C18 UNL     1      47.553  10.791  -2.996  1.00  0.00     0.177 C 
HETATM   16  O5  UNL     1      46.306  10.607  -2.443  1.00  0.00    -0.317 OA
HETATM   17  C20 UNL     1      46.187  11.424  -1.265  1.00  0.00     0.099 C 
HETATM   18  C21 UNL     1      45.667  12.746  -1.701  1.00  0.00     0.023 C 
HETATM   19  C22 UNL     1      46.699  13.606  -2.432  1.00  0.00     0.013 C 
HETATM   20  C23 UNL     1      44.589  12.484  -2.719  1.00  0.00    -0.012 C 
HETATM   21  C24 UNL     1      43.796  13.787  -2.922  1.00  0.00     0.010 C 
HETATM   22  C25 UNL     1      43.714  11.345  -2.421  1.00  0.00     0.006 C 
HETATM   23  C26 UNL     1      43.958  10.509  -1.259  1.00  0.00     0.018 C 
HETATM   24  C27 UNL     1      45.182  10.718  -0.398  1.00  0.00     0.019 C 
ENDROOT
BRANCH   9  25
HETATM   25  N1  UNL     1      50.242   9.294   0.777  1.00  0.00    -0.415 N 
ATOM     26  H1  UNL     1      49.997   9.810   1.622  1.00  0.00     0.153 HD
BRANCH  25  27
HETATM   27  C10 UNL     1      51.444   9.639   0.161  1.00  0.00     0.114 C 
BRANCH  27  28
HETATM   28  C11 UNL     1      51.752   8.622  -0.954  1.00  0.00     0.019 C 
BRANCH  28  29
HETATM   29  C12 UNL     1      51.523   9.274  -2.313  1.00  0.00    -0.003 C 
HETATM   30  C13 UNL     1      50.591   8.423  -3.148  1.00  0.00     0.005 C 
ENDBRANCH  28  29
ENDBRANCH  27  28
ENDBRANCH  25  27
ENDBRANCH   9  25
BRANCH   7  31
HETATM   31  C8  UNL     1      50.158   6.549   1.917  1.00  0.00     0.189 C 
HETATM   32  O1  UNL     1      51.006   7.203   2.563  1.00  0.00    -0.647 OA
HETATM   33  O2  UNL     1      50.285   5.173   1.867  1.00  0.00    -0.647 OA
ENDBRANCH   7  31
BRANCH  24  34
HETATM   34  C28 UNL     1      44.875  11.494   0.859  1.00  0.00     0.044 C 
BRANCH  34  35
HETATM   35  C29 UNL     1      44.531  12.911   0.750  1.00  0.00    -0.024 C 
HETATM   36  C30 UNL     1      45.044  13.904   1.478  1.00  0.00    -0.091 C 
HETATM   37  C31 UNL     1      46.059  13.771   2.531  1.00  0.00     0.042 C 
HETATM   38  C32 UNL     1      44.553  15.317   1.224  1.00  0.00     0.042 C 
ENDBRANCH  34  35
ENDBRANCH  24  34
BRANCH  15  39
HETATM   39  O4  UNL     1      47.927  10.472  -4.275  1.00  0.00    -0.336 OA
HETATM   40  C19 UNL     1      48.831  11.205  -5.031  1.00  0.00     0.212 C 
ENDBRANCH  15  39
TORSDOF 8
ENDMDL
MODEL 2
REMARK VINA RESULT: -6.242285323      4.408      7.957
REMARK  8 active torsions:
REMARK  status: ('A' for Active; 'I' for Inactive)
REMARK    1  A    between atoms: C6_7  and  C8_9 
REMARK    2  A    between atoms: C9_12  and  N1_13 
REMARK    3  A    between atoms: N1_13  and  C10_15 
REMARK    4  A    between atoms: C10_15  and  C11_16 
REMARK    5  A    between atoms: C11_16  and  C12_17 
REMARK    6  A    between atoms: C18_24  and  O4_25 
REMARK    7  A    between atoms: C27_35  and  C28_36 
REMARK    8  A    between atoms: C28_36  and  C29_37 
ROOT
HETATM    1  C1  UNL     1      44.709  13.770  -5.527  1.00  0.00     0.016 C 
HETATM    2  C2  UNL     1      44.479  14.621  -4.490  1.00  0.00    -0.069 C 
HETATM    3  C3  UNL     1      45.031  14.004  -3.288  1.00  0.00     0.052 C 
HETATM    4  C4  UNL     1      44.297  12.718  -3.077  1.00  0.00     0.004 C 
HETATM    5  C5  UNL     1      44.460  12.003  -1.968  1.00  0.00     0.029 C 
HETATM    6 CL1  UNL     1      43.576  10.488  -1.743  1.00  0.00    -0.088 Cl
HETATM    7  C6  UNL     1      45.435  12.523  -0.972  1.00  0.00     0.103 C 
HETATM    8  C7  UNL     1      46.819  12.247  -1.557  1.00  0.00     0.035 C 
HETATM    9  C9  UNL     1      45.228  13.963  -0.748  1.00  0.00     0.113 C 
HETATM   10  C14 UNL     1      45.049  14.759  -2.022  1.00  0.00     0.092 C 
HETATM   11  C15 UNL     1      43.783  15.569  -2.053  1.00  0.00     0.144 C 
HETATM   12  O3  UNL     1      42.775  15.144  -1.564  1.00  0.00    -0.297 OA
HETATM   13  C16 UNL     1      43.662  16.907  -2.665  1.00  0.00     0.119 C 
HETATM   14  C17 UNL     1      44.780  17.725  -2.055  1.00  0.00     0.052 C 
HETATM   15  C18 UNL     1      45.743  17.903  -2.936  1.00  0.00     0.177 C 
HETATM   16  O5  UNL     1      45.387  17.277  -4.109  1.00  0.00    -0.317 OA
HETATM   17  C20 UNL     1      43.970  17.030  -4.101  1.00  0.00     0.099 C 
HETATM   18  C21 UNL     1      43.315  18.230  -4.683  1.00  0.00     0.023 C 
HETATM   19  C22 UNL     1      43.307  19.443  -3.751  1.00  0.00     0.013 C 
HETATM   20  C23 UNL     1      44.140  18.655  -5.868  1.00  0.00    -0.012 C 
HETATM   21  C24 UNL     1      43.313  19.656  -6.693  1.00  0.00     0.010 C 
HETATM   22  C25 UNL     1      44.662  17.558  -6.690  1.00  0.00     0.006 C 
HETATM   23  C26 UNL     1      44.442  16.175  -6.304  1.00  0.00     0.018 C 
HETATM   24  C27 UNL     1      43.775  15.834  -4.992  1.00  0.00     0.019 C 
ENDROOT
BRANCH   9  25
HETATM   25  N1  UNL     1      44.314  14.450   0.186  1.00  0.00    -0.415 N 
ATOM     26  H1  UNL     1      43.332  14.438  -0.089  1.00  0.00     0.153 HD
BRANCH  25  27
HETATM   27  C10 UNL     1      44.602  14.950   1.455  1.00  0.00     0.114 C 
BRANCH  27  28
HETATM   28  C11 UNL     1      44.400  16.477   1.455  1.00  0.00     0.019 C 
BRANCH  28  29
HETATM   29  C12 UNL     1      45.253  17.102   2.552  1.00  0.00    -0.003 C 
HETATM   30  C13 UNL     1      46.156  16.055   3.169  1.00  0.00     0.005 C 
ENDBRANCH  28  29
ENDBRANCH  27  28
ENDBRANCH  25  27
ENDBRANCH   9  25
BRANCH   7  31
HETATM   31  C8  UNL     1      45.423  11.692   0.264  1.00  0.00     0.189 C 
HETATM   32  O1  UNL     1      44.494  11.678   1.101  1.00  0.00    -0.647 OA
HETATM   33  O2  UNL     1      46.523  10.884   0.487  1.00  0.00    -0.647 OA
ENDBRANCH   7  31
BRANCH  24  34
HETATM   34  C28 UNL     1      42.317  15.487  -5.161  1.00  0.00     0.044 C 
BRANCH  34  35
HETATM   35  C29 UNL     1      41.754  15.435  -6.510  1.00  0.00    -0.024 C 
HETATM   36  C30 UNL     1      40.862  16.283  -7.024  1.00  0.00    -0.091 C 
HETATM   37  C31 UNL     1      40.272  17.440  -6.339  1.00  0.00     0.042 C 
HETATM   38  C32 UNL     1      40.387  16.060  -8.448  1.00  0.00     0.042 C 
ENDBRANCH  34  35
ENDBRANCH  24  34
BRANCH  15  39
HETATM   39  O4  UNL     1      46.901  18.598  -2.708  1.00  0.00    -0.336 OA
HETATM   40  C19 UNL     1      47.822  18.927  -3.693  1.00  0.00     0.212 C 
ENDBRANCH  15  39
TORSDOF 8
ENDMDL
MODEL 3
REMARK VINA RESULT: -6.221679656      1.123      1.300
REMARK  8 active torsions:
REMARK  status: ('A' for Active; 'I' for Inactive)
REMARK    1  A    between atoms: C6_7  and  C8_9 
REMARK    2  A    between atoms: C9_12  and  N1_13 
REMARK    3  A    between atoms: N1_13  and  C10_15 
REMARK    4  A    between atoms: C10_15  and  C11_16 
REMARK    5  A    between atoms: C11_16  and  C12_17 
REMARK    6  A    between atoms: C18_24  and  O4_25 
REMARK    7  A    between atoms: C27_35  and  C28_36 
REMARK    8  A    between atoms: C28_36  and  C29_37 
ROOT
HETATM    1  C1  UNL     1      45.026   8.689   0.279  1.00  0.00     0.016 C 
HETATM    2  C2  UNL     1      45.990   9.551  -0.147  1.00  0.00    -0.069 C 
HETATM    3  C3  UNL     1      47.261   8.834  -0.116  1.00  0.00     0.052 C 
HETATM    4  C4  UNL     1      47.509   8.441   1.306  1.00  0.00     0.004 C 
HETATM    5  C5  UNL     1      48.669   7.915   1.686  1.00  0.00     0.029 C 
HETATM    6 CL1  UNL     1      48.937   7.463   3.374  1.00  0.00    -0.088 Cl
HETATM    7  C6  UNL     1      49.688   7.702   0.623  1.00  0.00     0.103 C 
HETATM    8  C7  UNL     1      49.209   6.492  -0.179  1.00  0.00     0.035 C 
HETATM    9  C9  UNL     1      49.805   8.896  -0.229  1.00  0.00     0.113 C 
HETATM   10  C14 UNL     1      48.474   9.476  -0.654  1.00  0.00     0.092 C 
HETATM   11  C15 UNL     1      48.312  10.929  -0.307  1.00  0.00     0.144 C 
HETATM   12  O3  UNL     1      48.765  11.367   0.712  1.00  0.00    -0.297 OA
HETATM   13  C16 UNL     1      47.609  11.916  -1.151  1.00  0.00     0.119 C 
HETATM   14  C17 UNL     1      48.233  11.782  -2.523  1.00  0.00     0.052 C 
HETATM   15  C18 UNL     1      47.404  11.163  -3.338  1.00  0.00     0.177 C 
HETATM   16  O5  UNL     1      46.254  10.857  -2.647  1.00  0.00    -0.317 OA
HETATM   17  C20 UNL     1      46.190  11.662  -1.457  1.00  0.00     0.099 C 
HETATM   18  C21 UNL     1      45.492  12.923  -1.820  1.00  0.00     0.023 C 
HETATM   19  C22 UNL     1      46.342  13.880  -2.658  1.00  0.00     0.013 C 
HETATM   20  C23 UNL     1      44.336  12.549  -2.708  1.00  0.00    -0.012 C 
HETATM   21  C24 UNL     1      43.398  13.765  -2.809  1.00  0.00     0.010 C 
HETATM   22  C25 UNL     1      43.621  11.329  -2.320  1.00  0.00     0.006 C 
HETATM   23  C26 UNL     1      44.080  10.526  -1.201  1.00  0.00     0.018 C 
HETATM   24  C27 UNL     1      45.368  10.862  -0.485  1.00  0.00     0.019 C 
ENDROOT
BRANCH   9  25
HETATM   25  N1  UNL     1      50.647   9.960   0.088  1.00  0.00    -0.415 N 
ATOM     26  H1  UNL     1      50.315  10.606   0.805  1.00  0.00     0.153 HD
BRANCH  25  27
HETATM   27  C10 UNL     1      51.896  10.235  -0.470  1.00  0.00     0.114 C 
BRANCH  27  28
HETATM   28  C11 UNL     1      51.709  11.123  -1.715  1.00  0.00     0.019 C 
BRANCH  28  29
HETATM   29  C12 UNL     1      51.654  12.586  -1.291  1.00  0.00    -0.003 C 
HETATM   30  C13 UNL     1      51.510  13.474  -2.509  1.00  0.00     0.005 C 
ENDBRANCH  28  29
ENDBRANCH  27  28
ENDBRANCH  25  27
ENDBRANCH   9  25
BRANCH   7  31
HETATM   31  C8  UNL     1      50.972   7.226   1.209  1.00  0.00     0.189 C 
HETATM   32  O1  UNL     1      51.744   7.931   1.896  1.00  0.00    -0.647 OA
HETATM   33  O2  UNL     1      51.321   5.909   0.969  1.00  0.00    -0.647 OA
ENDBRANCH   7  31
BRANCH  24  34
HETATM   34  C28 UNL     1      45.131  11.607   0.805  1.00  0.00     0.044 C 
BRANCH  34  35
HETATM   35  C29 UNL     1      44.663  12.991   0.746  1.00  0.00    -0.024 C 
HETATM   36  C30 UNL     1      45.076  13.995   1.522  1.00  0.00    -0.091 C 
HETATM   37  C31 UNL     1      46.084  13.910   2.587  1.00  0.00     0.042 C 
HETATM   38  C32 UNL     1      44.464  15.369   1.317  1.00  0.00     0.042 C 
ENDBRANCH  34  35
ENDBRANCH  24  34
BRANCH  15  39
HETATM   39  O4  UNL     1      47.658  10.879  -4.654  1.00  0.00    -0.336 OA
HETATM   40  C19 UNL     1      47.795  11.837  -5.649  1.00  0.00     0.212 C 
ENDBRANCH  15  39
TORSDOF 8
ENDMDL
MODEL 4
REMARK VINA RESULT: -6.210975600      2.451      4.646
REMARK  8 active torsions:
REMARK  status: ('A' for Active; 'I' for Inactive)
REMARK    1  A    between atoms: C6_7  and  C8_9 
REMARK    2  A    between atoms: C9_12  and  N1_13 
REMARK    3  A    between atoms: N1_13  and  C10_15 
REMARK    4  A    between atoms: C10_15  and  C11_16 
REMARK    5  A    between atoms: C11_16  and  C12_17 
REMARK    6  A    between atoms: C18_24  and  O4_25 
REMARK    7  A    between atoms: C27_35  and  C28_36 
REMARK    8  A    between atoms: C28_36  and  C29_37 
ROOT
HETATM    1  C1  UNL     1      46.860   7.346  -3.296  1.00  0.00     0.016 C 
HETATM    2  C2  UNL     1      46.457   8.391  -2.523  1.00  0.00    -0.069 C 
HETATM    3  C3  UNL     1      47.461   8.575  -1.480  1.00  0.00     0.052 C 
HETATM    4  C4  UNL     1      47.494   7.315  -0.674  1.00  0.00     0.004 C 
HETATM    5  C5  UNL     1      48.194   7.233   0.453  1.00  0.00     0.029 C 
HETATM    6 CL1  UNL     1      48.211   5.733   1.388  1.00  0.00    -0.088 Cl
HETATM    7  C6  UNL     1      48.972   8.438   0.848  1.00  0.00     0.103 C 
HETATM    8  C7  UNL     1      50.174   8.488  -0.095  1.00  0.00     0.035 C 
HETATM    9  C9  UNL     1      48.147   9.651   0.725  1.00  0.00     0.113 C 
HETATM   10  C14 UNL     1      47.361   9.726  -0.565  1.00  0.00     0.092 C 
HETATM   11  C15 UNL     1      45.884   9.914  -0.361  1.00  0.00     0.144 C 
HETATM   12  O3  UNL     1      45.323   9.382   0.555  1.00  0.00    -0.297 OA
HETATM   13  C16 UNL     1      45.017  10.733  -1.231  1.00  0.00     0.119 C 
HETATM   14  C17 UNL     1      45.698  12.082  -1.314  1.00  0.00     0.052 C 
HETATM   15  C18 UNL     1      46.263  12.231  -2.494  1.00  0.00     0.177 C 
HETATM   16  O5  UNL     1      46.031  11.098  -3.240  1.00  0.00    -0.317 OA
HETATM   17  C20 UNL     1      44.940  10.365  -2.656  1.00  0.00     0.099 C 
HETATM   18  C21 UNL     1      43.689  10.880  -3.270  1.00  0.00     0.023 C 
HETATM   19  C22 UNL     1      43.282  12.267  -2.770  1.00  0.00     0.013 C 
HETATM   20  C23 UNL     1      43.958  11.060  -4.740  1.00  0.00    -0.012 C 
HETATM   21  C24 UNL     1      42.607  11.246  -5.454  1.00  0.00     0.010 C 
HETATM   22  C25 UNL     1      44.770  10.007  -5.359  1.00  0.00     0.006 C 
HETATM   23  C26 UNL     1      45.323   8.931  -4.555  1.00  0.00     0.018 C 
HETATM   24  C27 UNL     1      45.174   8.933  -3.052  1.00  0.00     0.019 C 
ENDROOT
BRANCH   9  25
HETATM   25  N1  UNL     1      47.315  10.094   1.752  1.00  0.00    -0.415 N 
ATOM     26  H1  UNL     1      46.523   9.496   1.988  1.00  0.00     0.153 HD
BRANCH  25  27
HETATM   27  C10 UNL     1      47.451  11.270   2.491  1.00  0.00     0.114 C 
BRANCH  27  28
HETATM   28  C11 UNL     1      46.066  11.920   2.667  1.00  0.00     0.019 C 
BRANCH  28  29
HETATM   29  C12 UNL     1      46.128  13.376   2.220  1.00  0.00    -0.003 C 
HETATM   30  C13 UNL     1      44.754  13.849   1.796  1.00  0.00     0.005 C 
ENDBRANCH  28  29
ENDBRANCH  27  28
ENDBRANCH  25  27
ENDBRANCH   9  25
BRANCH   7  31
HETATM   31  C8  UNL     1      49.604   8.247   2.183  1.00  0.00     0.189 C 
HETATM   32  O1  UNL     1      48.981   8.232   3.267  1.00  0.00    -0.647 OA
HETATM   33  O2  UNL     1      50.976   8.072   2.209  1.00  0.00    -0.647 OA
ENDBRANCH   7  31
BRANCH  24  34
HETATM   34  C28 UNL     1      44.062   8.027  -2.583  1.00  0.00     0.044 C 
BRANCH  34  35
HETATM   35  C29 UNL     1      43.229   7.356  -3.580  1.00  0.00    -0.024 C 
HETATM   36  C30 UNL     1      41.917   7.528  -3.755  1.00  0.00    -0.091 C 
HETATM   37  C31 UNL     1      41.052   8.430  -2.984  1.00  0.00     0.042 C 
HETATM   38  C32 UNL     1      41.221   6.731  -4.842  1.00  0.00     0.042 C 
ENDBRANCH  34  35
ENDBRANCH  24  34
BRANCH  15  39
HETATM   39  O4  UNL     1      46.964  13.337  -2.899  1.00  0.00    -0.336 OA
HETATM   40  C19 UNL     1      46.396  14.582  -3.131  1.00  0.00     0.212 C 
ENDBRANCH  15  39
TORSDOF 8
ENDMDL
MODEL 5
REMARK VINA RESULT: -6.168183848      2.894      5.423
REMARK  8 active torsions:
REMARK  status: ('A' for Active; 'I' for Inactive)
REMARK    1  A    between atoms: C6_7  and  C8_9 
REMARK    2  A    between atoms: C9_12  and  N1_13 
REMARK    3  A    between atoms: N1_13  and  C10_15 
REMARK    4  A    between atoms: C10_15  and  C11_16 
REMARK    5  A    between atoms: C11_16  and  C12_17 
REMARK    6  A    between atoms: C18_24  and  O4_25 
REMARK    7  A    between atoms: C27_35  and  C28_36 
REMARK    8  A    between atoms: C28_36  and  C29_37 
ROOT
HETATM    1  C1  UNL     1      46.143   7.595  -4.002  1.00  0.00     0.016 C 
HETATM    2  C2  UNL     1      45.589   8.586  -3.252  1.00  0.00    -0.069 C 
HETATM    3  C3  UNL     1      46.574   8.978  -2.249  1.00  0.00     0.052 C 
HETATM    4  C4  UNL     1      46.841   7.774  -1.402  1.00  0.00     0.004 C 
HETATM    5  C5  UNL     1      47.574   7.855  -0.296  1.00  0.00     0.029 C 
HETATM    6 CL1  UNL     1      47.870   6.417   0.688  1.00  0.00    -0.088 Cl
HETATM    7  C6  UNL     1      48.146   9.189   0.032  1.00  0.00     0.103 C 
HETATM    8  C7  UNL     1      49.297   9.404  -0.951  1.00  0.00     0.035 C 
HETATM    9  C9  UNL     1      47.124  10.239  -0.105  1.00  0.00     0.113 C 
HETATM   10  C14 UNL     1      46.304  10.130  -1.371  1.00  0.00     0.092 C 
HETATM   11  C15 UNL     1      44.822  10.073  -1.126  1.00  0.00     0.144 C 
HETATM   12  O3  UNL     1      44.383   9.491  -0.175  1.00  0.00    -0.297 OA
HETATM   13  C16 UNL     1      43.806  10.700  -1.995  1.00  0.00     0.119 C 
HETATM   14  C17 UNL     1      44.246  12.140  -2.145  1.00  0.00     0.052 C 
HETATM   15  C18 UNL     1      44.747  12.337  -3.348  1.00  0.00     0.177 C 
HETATM   16  O5  UNL     1      44.690  11.153  -4.047  1.00  0.00    -0.317 OA
HETATM   17  C20 UNL     1      43.755  10.269  -3.403  1.00  0.00     0.099 C 
HETATM   18  C21 UNL     1      42.420  10.541  -3.993  1.00  0.00     0.023 C 
HETATM   19  C22 UNL     1      41.796  11.858  -3.528  1.00  0.00     0.013 C 
HETATM   20  C23 UNL     1      42.615  10.707  -5.477  1.00  0.00    -0.012 C 
HETATM   21  C24 UNL     1      41.235  10.635  -6.152  1.00  0.00     0.010 C 
HETATM   22  C25 UNL     1      43.578   9.783  -6.085  1.00  0.00     0.006 C 
HETATM   23  C26 UNL     1      44.327   8.847  -5.264  1.00  0.00     0.018 C 
HETATM   24  C27 UNL     1      44.219   8.882  -3.757  1.00  0.00     0.019 C 
ENDROOT
BRANCH   9  25
HETATM   25  N1  UNL     1      46.256  10.575   0.933  1.00  0.00    -0.415 N 
ATOM     26  H1  UNL     1      45.553   9.880   1.183  1.00  0.00     0.153 HD
BRANCH  25  27
HETATM   27  C10 UNL     1      46.248  11.762   1.666  1.00  0.00     0.114 C 
BRANCH  27  28
HETATM   28  C11 UNL     1      44.821  12.341   1.676  1.00  0.00     0.019 C 
BRANCH  28  29
HETATM   29  C12 UNL     1      44.823  13.710   1.008  1.00  0.00    -0.003 C 
HETATM   30  C13 UNL     1      44.617  14.795   2.044  1.00  0.00     0.005 C 
ENDBRANCH  28  29
ENDBRANCH  27  28
ENDBRANCH  25  27
ENDBRANCH   9  25
BRANCH   7  31
HETATM   31  C8  UNL     1      48.836   9.159   1.352  1.00  0.00     0.189 C 
HETATM   32  O1  UNL     1      48.256   9.222   2.458  1.00  0.00    -0.647 OA
HETATM   33  O2  UNL     1      50.215   9.051   1.337  1.00  0.00    -0.647 OA
ENDBRANCH   7  31
BRANCH  24  34
HETATM   34  C28 UNL     1      43.289   7.821  -3.222  1.00  0.00     0.044 C 
BRANCH  34  35
HETATM   35  C29 UNL     1      42.467   7.062  -4.163  1.00  0.00    -0.024 C 
HETATM   36  C30 UNL     1      41.138   7.112  -4.266  1.00  0.00    -0.091 C 
HETATM   37  C31 UNL     1      40.238   7.943  -3.457  1.00  0.00     0.042 C 
HETATM   38  C32 UNL     1      40.458   6.238  -5.303  1.00  0.00     0.042 C 
ENDBRANCH  34  35
ENDBRANCH  24  34
BRANCH  15  39
HETATM   39  O4  UNL     1      45.238  13.528  -3.812  1.00  0.00    -0.336 OA
HETATM   40  C19 UNL     1      45.735  14.539  -3.000  1.00  0.00     0.212 C 
ENDBRANCH  15  39
TORSDOF 8
ENDMDL
