MODEL 1
REMARK VINA RESULT: -8.680632773      0.000      0.000
REMARK  13 active torsions:
REMARK  status: ('A' for Active; 'I' for Inactive)
REMARK    1  A    between atoms: C2_2  and  C3_3 
REMARK    2  A    between atoms: C3_3  and  C4_4 
REMARK    3  A    between atoms: C6_7  and  O2_8 
REMARK    4  A    between atoms: O2_8  and  C7_9 
REMARK    5  A    between atoms: C9_11  and  C11_13 
REMARK    6  A    between atoms: C13_15  and  O3_16 
REMARK    7  A    between atoms: O3_16  and  C14_17 
REMARK    8  A    between atoms: C16_20  and  O5_21 
REMARK    9  A    between atoms: C17_23  and  O6_24 
REMARK   10  A    between atoms: C18_26  and  O7_27 
REMARK   11  A    between atoms: C19_29  and  O8_30 
REMARK   12  A    between atoms: C20_32  and  O9_33 
REMARK   13  A    between atoms: C22_36  and  N1_37 
ROOT
HETATM    1  C7  UNL     1      59.785  18.149  16.748  1.00  0.00     0.157 C 
HETATM    2  C8  UNL     1      58.352  18.468  16.818  1.00  0.00     0.050 C 
HETATM    3  C9  UNL     1      57.368  17.466  16.306  1.00  0.00     0.004 C 
HETATM    4  C10 UNL     1      56.159  17.364  17.250  1.00  0.00     0.022 C 
HETATM    5  C13 UNL     1      57.871  16.096  16.094  1.00  0.00     0.168 C 
HETATM    6  C19 UNL     1      59.073  15.750  16.949  1.00  0.00     0.179 C 
HETATM    7  C20 UNL     1      60.198  16.726  16.778  1.00  0.00     0.178 C 
ENDROOT
BRANCH   1   8
HETATM    8  O2  UNL     1      60.343  18.783  15.639  1.00  0.00    -0.353 OA
BRANCH   8   9
HETATM    9  C6  UNL     1      60.396  20.160  15.760  1.00  0.00     0.262 C 
HETATM   10  O1  UNL     1      61.022  20.586  16.903  1.00  0.00    -0.361 OA
HETATM   11  C5  UNL     1      61.485  21.874  16.864  1.00  0.00     0.177 C 
HETATM   12  C4  UNL     1      60.594  22.801  16.031  1.00  0.00     0.043 C 
HETATM   13  C22 UNL     1      60.572  22.297  14.600  1.00  0.00     0.194 C 
HETATM   14  C21 UNL     1      61.050  20.826  14.571  1.00  0.00     0.094 C 
BRANCH  12  15
HETATM   15  C3  UNL     1      61.196  24.155  16.127  1.00  0.00     0.035 C 
BRANCH  15  16
HETATM   16  C2  UNL     1      62.117  24.426  17.217  1.00  0.00    -0.036 C 
HETATM   17  C1  UNL     1      63.049  25.348  17.235  1.00  0.00     0.007 C 
ENDBRANCH  15  16
ENDBRANCH  12  15
BRANCH  13  18
HETATM   18  N1  UNL     1      61.395  23.081  13.723  1.00  0.00    -0.074 N 
ATOM     19  H13 UNL     1      61.308  24.075  13.932  1.00  0.00     0.274 HD
ATOM     20  H12 UNL     1      62.384  22.953  13.939  1.00  0.00     0.274 HD
ATOM     21  H11 UNL     1      61.209  22.896  12.737  1.00  0.00     0.274 HD
ENDBRANCH  13  18
ENDBRANCH   8   9
ENDBRANCH   1   8
BRANCH   7  22
HETATM   22  O9  UNL     1      61.202  16.450  17.735  1.00  0.00    -0.390 OA
ATOM     23  H9  UNL     1      61.400  15.525  17.821  1.00  0.00     0.210 HD
ENDBRANCH   7  22
BRANCH   3  24
HETATM   24  C11 UNL     1      56.827  17.985  15.023  1.00  0.00    -0.025 C 
HETATM   25  C12 UNL     1      57.252  17.489  13.882  1.00  0.00     0.008 C 
ENDBRANCH   3  24
BRANCH   6  26
HETATM   26  O8  UNL     1      59.505  14.449  16.716  1.00  0.00    -0.390 OA
ATOM     27  H8  UNL     1      58.775  13.865  16.549  1.00  0.00     0.210 HD
ENDBRANCH   6  26
BRANCH   5  28
HETATM   28  O3  UNL     1      56.838  15.172  16.324  1.00  0.00    -0.350 OA
BRANCH  28  29
HETATM   29  C14 UNL     1      56.469  14.479  15.198  1.00  0.00     0.291 C 
HETATM   30  O4  UNL     1      56.768  13.110  15.428  1.00  0.00    -0.356 OA
HETATM   31  C15 UNL     1      55.969  12.269  14.688  1.00  0.00     0.205 C 
HETATM   32  C16 UNL     1      54.545  12.194  15.211  1.00  0.00     0.173 C 
HETATM   33  C17 UNL     1      54.193  13.581  15.713  1.00  0.00     0.182 C 
HETATM   34  C18 UNL     1      55.027  14.542  14.871  1.00  0.00     0.204 C 
BRANCH  32  35
HETATM   35  O5  UNL     1      54.487  11.295  16.288  1.00  0.00    -0.391 OA
ATOM     36  H5  UNL     1      54.330  11.774  17.093  1.00  0.00     0.210 HD
ENDBRANCH  32  35
BRANCH  33  37
HETATM   37  O6  UNL     1      54.426  13.727  17.059  1.00  0.00    -0.390 OA
ATOM     38  H6  UNL     1      55.310  13.479  17.303  1.00  0.00     0.210 HD
ENDBRANCH  33  37
BRANCH  34  39
HETATM   39  O7  UNL     1      54.433  15.769  14.955  1.00  0.00    -0.388 OA
ATOM     40  H7  UNL     1      53.596  15.868  14.517  1.00  0.00     0.210 HD
ENDBRANCH  34  39
ENDBRANCH  28  29
ENDBRANCH   5  28
TORSDOF 13
ENDMDL
MODEL 2
REMARK VINA RESULT: -8.100858601      1.064      1.286
REMARK  13 active torsions:
REMARK  status: ('A' for Active; 'I' for Inactive)
REMARK    1  A    between atoms: C2_2  and  C3_3 
REMARK    2  A    between atoms: C3_3  and  C4_4 
REMARK    3  A    between atoms: C6_7  and  O2_8 
REMARK    4  A    between atoms: O2_8  and  C7_9 
REMARK    5  A    between atoms: C9_11  and  C11_13 
REMARK    6  A    between atoms: C13_15  and  O3_16 
REMARK    7  A    between atoms: O3_16  and  C14_17 
REMARK    8  A    between atoms: C16_20  and  O5_21 
REMARK    9  A    between atoms: C17_23  and  O6_24 
REMARK   10  A    between atoms: C18_26  and  O7_27 
REMARK   11  A    between atoms: C19_29  and  O8_30 
REMARK   12  A    between atoms: C20_32  and  O9_33 
REMARK   13  A    between atoms: C22_36  and  N1_37 
ROOT
HETATM    1  C7  UNL     1      59.621  18.467  16.637  1.00  0.00     0.157 C 
HETATM    2  C8  UNL     1      58.167  18.680  16.620  1.00  0.00     0.050 C 
HETATM    3  C9  UNL     1      57.285  17.567  16.153  1.00  0.00     0.004 C 
HETATM    4  C10 UNL     1      56.042  17.450  17.049  1.00  0.00     0.022 C 
HETATM    5  C13 UNL     1      57.897  16.227  16.080  1.00  0.00     0.168 C 
HETATM    6  C19 UNL     1      59.077  16.045  17.011  1.00  0.00     0.179 C 
HETATM    7  C20 UNL     1      60.135  17.087  16.806  1.00  0.00     0.178 C 
ENDROOT
BRANCH   1   8
HETATM    8  O2  UNL     1      60.186  19.049  15.504  1.00  0.00    -0.353 OA
BRANCH   8   9
HETATM    9  C6  UNL     1      60.596  20.355  15.701  1.00  0.00     0.262 C 
HETATM   10  O1  UNL     1      59.731  21.285  15.185  1.00  0.00    -0.361 OA
HETATM   11  C5  UNL     1      59.847  22.541  15.716  1.00  0.00     0.177 C 
HETATM   12  C4  UNL     1      61.288  22.895  16.096  1.00  0.00     0.043 C 
HETATM   13  C22 UNL     1      61.763  21.922  17.159  1.00  0.00     0.194 C 
HETATM   14  C21 UNL     1      60.845  20.677  17.156  1.00  0.00     0.094 C 
BRANCH  12  15
HETATM   15  C3  UNL     1      61.255  24.290  16.606  1.00  0.00     0.035 C 
BRANCH  15  16
HETATM   16  C2  UNL     1      62.113  25.277  15.973  1.00  0.00    -0.036 C 
HETATM   17  C1  UNL     1      63.000  26.034  16.573  1.00  0.00     0.007 C 
ENDBRANCH  15  16
ENDBRANCH  12  15
BRANCH  13  18
HETATM   18  N1  UNL     1      61.777  22.498  18.473  1.00  0.00    -0.074 N 
ATOM     19  H13 UNL     1      61.376  23.435  18.465  1.00  0.00     0.274 HD
ATOM     20  H12 UNL     1      61.103  22.034  19.083  1.00  0.00     0.274 HD
ATOM     21  H11 UNL     1      62.707  22.503  18.892  1.00  0.00     0.274 HD
ENDBRANCH  13  18
ENDBRANCH   8   9
ENDBRANCH   1   8
BRANCH   7  22
HETATM   22  O9  UNL     1      61.108  16.968  17.826  1.00  0.00    -0.390 OA
ATOM     23  H9  UNL     1      60.972  17.566  18.552  1.00  0.00     0.210 HD
ENDBRANCH   7  22
BRANCH   3  24
HETATM   24  C11 UNL     1      56.772  17.937  14.808  1.00  0.00    -0.025 C 
HETATM   25  C12 UNL     1      57.333  17.436  13.730  1.00  0.00     0.008 C 
ENDBRANCH   3  24
BRANCH   6  26
HETATM   26  O8  UNL     1      59.614  14.766  16.909  1.00  0.00    -0.390 OA
ATOM     27  H8  UNL     1      59.141  14.146  17.451  1.00  0.00     0.210 HD
ENDBRANCH   6  26
BRANCH   5  28
HETATM   28  O3  UNL     1      56.924  15.248  16.343  1.00  0.00    -0.350 OA
BRANCH  28  29
HETATM   29  C14 UNL     1      56.560  14.530  15.232  1.00  0.00     0.291 C 
HETATM   30  O4  UNL     1      56.885  13.170  15.483  1.00  0.00    -0.356 OA
HETATM   31  C15 UNL     1      56.097  12.303  14.761  1.00  0.00     0.205 C 
HETATM   32  C16 UNL     1      54.677  12.212  15.294  1.00  0.00     0.173 C 
HETATM   33  C17 UNL     1      54.303  13.601  15.775  1.00  0.00     0.182 C 
HETATM   34  C18 UNL     1      55.116  14.562  14.912  1.00  0.00     0.204 C 
BRANCH  32  35
HETATM   35  O5  UNL     1      54.641  11.331  16.386  1.00  0.00    -0.391 OA
ATOM     36  H5  UNL     1      54.014  11.645  17.027  1.00  0.00     0.210 HD
ENDBRANCH  32  35
BRANCH  33  37
HETATM   37  O6  UNL     1      54.541  13.774  17.116  1.00  0.00    -0.390 OA
ATOM     38  H6  UNL     1      55.373  13.405  17.388  1.00  0.00     0.210 HD
ENDBRANCH  33  37
BRANCH  34  39
HETATM   39  O7  UNL     1      54.501  15.779  14.978  1.00  0.00    -0.388 OA
ATOM     40  H7  UNL     1      54.102  16.010  15.809  1.00  0.00     0.210 HD
ENDBRANCH  34  39
ENDBRANCH  28  29
ENDBRANCH   5  28
TORSDOF 13
ENDMDL
MODEL 3
REMARK VINA RESULT: -7.698781684      2.058      2.962
REMARK  13 active torsions:
REMARK  status: ('A' for Active; 'I' for Inactive)
REMARK    1  A    between atoms: C2_2  and  C3_3 
REMARK    2  A    between atoms: C3_3  and  C4_4 
REMARK    3  A    between atoms: C6_7  and  O2_8 
REMARK    4  A    between atoms: O2_8  and  C7_9 
REMARK    5  A    between atoms: C9_11  and  C11_13 
REMARK    6  A    between atoms: C13_15  and  O3_16 
REMARK    7  A    between atoms: O3_16  and  C14_17 
REMARK    8  A    between atoms: C16_20  and  O5_21 
REMARK    9  A    between atoms: C17_23  and  O6_24 
REMARK   10  A    between atoms: C18_26  and  O7_27 
REMARK   11  A    between atoms: C19_29  and  O8_30 
REMARK   12  A    between atoms: C20_32  and  O9_33 
REMARK   13  A    between atoms: C22_36  and  N1_37 
ROOT
HETATM    1  C7  UNL     1      59.648  19.557  15.985  1.00  0.00     0.157 C 
HETATM    2  C8  UNL     1      59.047  18.593  16.917  1.00  0.00     0.050 C 
HETATM    3  C9  UNL     1      58.023  17.635  16.397  1.00  0.00     0.004 C 
HETATM    4  C10 UNL     1      58.247  16.233  16.986  1.00  0.00     0.022 C 
HETATM    5  C13 UNL     1      57.945  17.485  14.932  1.00  0.00     0.168 C 
HETATM    6  C19 UNL     1      59.235  17.825  14.215  1.00  0.00     0.179 C 
HETATM    7  C20 UNL     1      59.731  19.200  14.549  1.00  0.00     0.178 C 
ENDROOT
BRANCH   1   8
HETATM    8  O2  UNL     1      59.020  20.792  16.132  1.00  0.00    -0.353 OA
BRANCH   8   9
HETATM    9  C6  UNL     1      59.896  21.829  16.398  1.00  0.00     0.262 C 
HETATM   10  O1  UNL     1      59.345  23.071  16.221  1.00  0.00    -0.361 OA
HETATM   11  C5  UNL     1      59.990  24.089  16.870  1.00  0.00     0.177 C 
HETATM   12  C4  UNL     1      61.505  23.877  16.951  1.00  0.00     0.043 C 
HETATM   13  C22 UNL     1      61.775  22.609  17.741  1.00  0.00     0.194 C 
HETATM   14  C21 UNL     1      60.487  21.753  17.786  1.00  0.00     0.094 C 
BRANCH  12  15
HETATM   15  C3  UNL     1      62.058  25.075  17.632  1.00  0.00     0.035 C 
BRANCH  15  16
HETATM   16  C2  UNL     1      63.061  25.864  16.935  1.00  0.00    -0.036 C 
HETATM   17  C1  UNL     1      63.082  26.134  15.652  1.00  0.00     0.007 C 
ENDBRANCH  15  16
ENDBRANCH  12  15
BRANCH  13  18
HETATM   18  N1  UNL     1      62.218  22.873  19.080  1.00  0.00    -0.074 N 
ATOM     19  H13 UNL     1      63.088  23.404  19.079  1.00  0.00     0.274 HD
ATOM     20  H12 UNL     1      61.610  23.552  19.539  1.00  0.00     0.274 HD
ATOM     21  H11 UNL     1      62.308  22.025  19.640  1.00  0.00     0.274 HD
ENDBRANCH  13  18
ENDBRANCH   8   9
ENDBRANCH   1   8
BRANCH   7  22
HETATM   22  O9  UNL     1      61.021  19.375  13.998  1.00  0.00    -0.390 OA
ATOM     23  H9  UNL     1      61.159  20.237  13.622  1.00  0.00     0.210 HD
ENDBRANCH   7  22
BRANCH   3  24
HETATM   24  C11 UNL     1      56.700  18.074  16.909  1.00  0.00    -0.025 C 
HETATM   25  C12 UNL     1      56.006  18.976  16.250  1.00  0.00     0.008 C 
ENDBRANCH   3  24
BRANCH   6  26
HETATM   26  O8  UNL     1      59.111  17.663  12.840  1.00  0.00    -0.390 OA
ATOM     27  H8  UNL     1      59.412  18.432  12.370  1.00  0.00     0.210 HD
ENDBRANCH   6  26
BRANCH   5  28
HETATM   28  O3  UNL     1      57.551  16.174  14.612  1.00  0.00    -0.350 OA
BRANCH  28  29
HETATM   29  C14 UNL     1      56.283  16.100  14.091  1.00  0.00     0.291 C 
HETATM   30  O4  UNL     1      56.410  15.763  12.717  1.00  0.00    -0.356 OA
HETATM   31  C15 UNL     1      55.297  15.114  12.234  1.00  0.00     0.205 C 
HETATM   32  C16 UNL     1      55.187  13.681  12.724  1.00  0.00     0.173 C 
HETATM   33  C17 UNL     1      55.704  13.669  14.150  1.00  0.00     0.182 C 
HETATM   34  C18 UNL     1      55.418  15.064  14.698  1.00  0.00     0.204 C 
BRANCH  32  35
HETATM   35  O5  UNL     1      56.006  12.852  11.940  1.00  0.00    -0.391 OA
ATOM     36  H5  UNL     1      56.732  13.358  11.594  1.00  0.00     0.210 HD
ENDBRANCH  32  35
BRANCH  33  37
HETATM   37  O6  UNL     1      57.035  13.341  14.224  1.00  0.00    -0.390 OA
ATOM     38  H6  UNL     1      57.290  12.706  13.565  1.00  0.00     0.210 HD
ENDBRANCH  33  37
BRANCH  34  39
HETATM   39  O7  UNL     1      55.436  14.973  16.060  1.00  0.00    -0.388 OA
ATOM     40  H7  UNL     1      55.761  14.160  16.428  1.00  0.00     0.210 HD
ENDBRANCH  34  39
ENDBRANCH  28  29
ENDBRANCH   5  28
TORSDOF 13
ENDMDL
MODEL 4
REMARK VINA RESULT: -7.658352069      1.424      2.549
REMARK  13 active torsions:
REMARK  status: ('A' for Active; 'I' for Inactive)
REMARK    1  A    between atoms: C2_2  and  C3_3 
REMARK    2  A    between atoms: C3_3  and  C4_4 
REMARK    3  A    between atoms: C6_7  and  O2_8 
REMARK    4  A    between atoms: O2_8  and  C7_9 
REMARK    5  A    between atoms: C9_11  and  C11_13 
REMARK    6  A    between atoms: C13_15  and  O3_16 
REMARK    7  A    between atoms: O3_16  and  C14_17 
REMARK    8  A    between atoms: C16_20  and  O5_21 
REMARK    9  A    between atoms: C17_23  and  O6_24 
REMARK   10  A    between atoms: C18_26  and  O7_27 
REMARK   11  A    between atoms: C19_29  and  O8_30 
REMARK   12  A    between atoms: C20_32  and  O9_33 
REMARK   13  A    between atoms: C22_36  and  N1_37 
ROOT
HETATM    1  C7  UNL     1      58.781  18.949  16.193  1.00  0.00     0.157 C 
HETATM    2  C8  UNL     1      59.612  17.816  15.761  1.00  0.00     0.050 C 
HETATM    3  C9  UNL     1      59.209  16.435  16.168  1.00  0.00     0.004 C 
HETATM    4  C10 UNL     1      59.388  15.453  14.999  1.00  0.00     0.022 C 
HETATM    5  C13 UNL     1      57.831  16.270  16.667  1.00  0.00     0.168 C 
HETATM    6  C19 UNL     1      56.868  17.323  16.158  1.00  0.00     0.179 C 
HETATM    7  C20 UNL     1      57.339  18.717  16.445  1.00  0.00     0.178 C 
ENDROOT
BRANCH   1   8
HETATM    8  O2  UNL     1      59.367  19.552  17.305  1.00  0.00    -0.353 OA
BRANCH   8   9
HETATM    9  C6  UNL     1      59.704  20.877  17.099  1.00  0.00     0.262 C 
HETATM   10  O1  UNL     1      60.498  21.400  18.088  1.00  0.00    -0.361 OA
HETATM   11  C5  UNL     1      61.204  22.518  17.734  1.00  0.00     0.177 C 
HETATM   12  C4  UNL     1      60.449  23.408  16.741  1.00  0.00     0.043 C 
HETATM   13  C22 UNL     1      60.205  22.618  15.468  1.00  0.00     0.194 C 
HETATM   14  C21 UNL     1      60.374  21.110  15.765  1.00  0.00     0.094 C 
BRANCH  12  15
HETATM   15  C3  UNL     1      61.316  24.589  16.497  1.00  0.00     0.035 C 
BRANCH  15  16
HETATM   16  C2  UNL     1      62.413  24.843  17.415  1.00  0.00    -0.036 C 
HETATM   17  C1  UNL     1      63.402  25.683  17.230  1.00  0.00     0.007 C 
ENDBRANCH  15  16
ENDBRANCH  12  15
BRANCH  13  18
HETATM   18  N1  UNL     1      61.090  22.995  14.403  1.00  0.00    -0.074 N 
ATOM     19  H13 UNL     1      61.547  23.885  14.605  1.00  0.00     0.274 HD
ATOM     20  H12 UNL     1      61.911  22.390  14.379  1.00  0.00     0.274 HD
ATOM     21  H11 UNL     1      60.627  23.020  13.495  1.00  0.00     0.274 HD
ENDBRANCH  13  18
ENDBRANCH   8   9
ENDBRANCH   1   8
BRANCH   7  22
HETATM   22  O9  UNL     1      56.495  19.638  15.783  1.00  0.00    -0.390 OA
ATOM     23  H9  UNL     1      55.656  19.270  15.530  1.00  0.00     0.210 HD
ENDBRANCH   7  22
BRANCH   3  24
HETATM   24  C11 UNL     1      60.159  15.982  17.217  1.00  0.00    -0.025 C 
HETATM   25  C12 UNL     1      60.219  16.615  18.367  1.00  0.00     0.008 C 
ENDBRANCH   3  24
BRANCH   6  26
HETATM   26  O8  UNL     1      55.585  17.120  16.652  1.00  0.00    -0.390 OA
ATOM     27  H8  UNL     1      55.227  17.916  17.029  1.00  0.00     0.210 HD
ENDBRANCH   6  26
BRANCH   5  28
HETATM   28  O3  UNL     1      57.358  14.989  16.336  1.00  0.00    -0.350 OA
BRANCH  28  29
HETATM   29  C14 UNL     1      56.376  15.003  15.378  1.00  0.00     0.291 C 
HETATM   30  O4  UNL     1      56.902  14.365  14.223  1.00  0.00    -0.356 OA
HETATM   31  C15 UNL     1      55.918  13.809  13.439  1.00  0.00     0.205 C 
HETATM   32  C16 UNL     1      55.324  12.548  14.041  1.00  0.00     0.173 C 
HETATM   33  C17 UNL     1      55.285  12.759  15.542  1.00  0.00     0.182 C 
HETATM   34  C18 UNL     1      55.143  14.266  15.737  1.00  0.00     0.204 C 
BRANCH  32  35
HETATM   35  O5  UNL     1      56.160  11.455  13.760  1.00  0.00    -0.391 OA
ATOM     36  H5  UNL     1      57.049  11.657  14.028  1.00  0.00     0.210 HD
ENDBRANCH  32  35
BRANCH  33  37
HETATM   37  O6  UNL     1      56.394  12.252  16.173  1.00  0.00    -0.390 OA
ATOM     38  H6  UNL     1      56.362  11.307  16.260  1.00  0.00     0.210 HD
ENDBRANCH  33  37
BRANCH  34  39
HETATM   39  O7  UNL     1      54.656  14.464  16.996  1.00  0.00    -0.388 OA
ATOM     40  H7  UNL     1      53.916  15.054  17.079  1.00  0.00     0.210 HD
ENDBRANCH  34  39
ENDBRANCH  28  29
ENDBRANCH   5  28
TORSDOF 13
ENDMDL
MODEL 5
REMARK VINA RESULT: -7.480232315      1.769      2.858
REMARK  13 active torsions:
REMARK  status: ('A' for Active; 'I' for Inactive)
REMARK    1  A    between atoms: C2_2  and  C3_3 
REMARK    2  A    between atoms: C3_3  and  C4_4 
REMARK    3  A    between atoms: C6_7  and  O2_8 
REMARK    4  A    between atoms: O2_8  and  C7_9 
REMARK    5  A    between atoms: C9_11  and  C11_13 
REMARK    6  A    between atoms: C13_15  and  O3_16 
REMARK    7  A    between atoms: O3_16  and  C14_17 
REMARK    8  A    between atoms: C16_20  and  O5_21 
REMARK    9  A    between atoms: C17_23  and  O6_24 
REMARK   10  A    between atoms: C18_26  and  O7_27 
REMARK   11  A    between atoms: C19_29  and  O8_30 
REMARK   12  A    between atoms: C20_32  and  O9_33 
REMARK   13  A    between atoms: C22_36  and  N1_37 
ROOT
HETATM    1  C7  UNL     1      58.825  19.018  16.177  1.00  0.00     0.157 C 
HETATM    2  C8  UNL     1      59.662  17.885  15.761  1.00  0.00     0.050 C 
HETATM    3  C9  UNL     1      59.277  16.508  16.202  1.00  0.00     0.004 C 
HETATM    4  C10 UNL     1      59.454  15.503  15.053  1.00  0.00     0.022 C 
HETATM    5  C13 UNL     1      57.907  16.341  16.719  1.00  0.00     0.168 C 
HETATM    6  C19 UNL     1      56.928  17.373  16.197  1.00  0.00     0.179 C 
HETATM    7  C20 UNL     1      57.388  18.778  16.449  1.00  0.00     0.178 C 
ENDROOT
BRANCH   1   8
HETATM    8  O2  UNL     1      59.416  19.651  17.269  1.00  0.00    -0.353 OA
BRANCH   8   9
HETATM    9  C6  UNL     1      59.977  20.877  16.958  1.00  0.00     0.262 C 
HETATM   10  O1  UNL     1      59.076  21.781  16.458  1.00  0.00    -0.361 OA
HETATM   11  C5  UNL     1      59.459  23.092  16.551  1.00  0.00     0.177 C 
HETATM   12  C4  UNL     1      60.972  23.282  16.396  1.00  0.00     0.043 C 
HETATM   13  C22 UNL     1      61.671  22.538  17.519  1.00  0.00     0.194 C 
HETATM   14  C21 UNL     1      60.696  21.504  18.130  1.00  0.00     0.094 C 
BRANCH  12  15
HETATM   15  C3  UNL     1      61.218  24.744  16.470  1.00  0.00     0.035 C 
BRANCH  15  16
HETATM   16  C2  UNL     1      62.321  25.298  15.703  1.00  0.00    -0.036 C 
HETATM   17  C1  UNL     1      63.225  26.142  16.141  1.00  0.00     0.007 C 
ENDBRANCH  15  16
ENDBRANCH  12  15
BRANCH  13  18
HETATM   18  N1  UNL     1      62.145  23.413  18.554  1.00  0.00    -0.074 N 
ATOM     19  H13 UNL     1      61.436  23.543  19.275  1.00  0.00     0.274 HD
ATOM     20  H12 UNL     1      62.869  22.960  19.113  1.00  0.00     0.274 HD
ATOM     21  H11 UNL     1      62.469  24.310  18.194  1.00  0.00     0.274 HD
ENDBRANCH  13  18
ENDBRANCH   8   9
ENDBRANCH   1   8
BRANCH   7  22
HETATM   22  O9  UNL     1      56.528  19.676  15.776  1.00  0.00    -0.390 OA
ATOM     23  H9  UNL     1      55.606  19.488  15.907  1.00  0.00     0.210 HD
ENDBRANCH   7  22
BRANCH   3  24
HETATM   24  C11 UNL     1      60.243  16.088  17.250  1.00  0.00    -0.025 C 
HETATM   25  C12 UNL     1      60.274  16.715  18.405  1.00  0.00     0.008 C 
ENDBRANCH   3  24
BRANCH   6  26
HETATM   26  O8  UNL     1      55.652  17.169  16.709  1.00  0.00    -0.390 OA
ATOM     27  H8  UNL     1      55.217  17.993  16.899  1.00  0.00     0.210 HD
ENDBRANCH   6  26
BRANCH   5  28
HETATM   28  O3  UNL     1      57.443  15.049  16.421  1.00  0.00    -0.350 OA
BRANCH  28  29
HETATM   29  C14 UNL     1      56.507  15.025  15.418  1.00  0.00     0.291 C 
HETATM   30  O4  UNL     1      57.077  14.320  14.325  1.00  0.00    -0.356 OA
HETATM   31  C15 UNL     1      56.123  13.736  13.524  1.00  0.00     0.205 C 
HETATM   32  C16 UNL     1      55.481  12.516  14.162  1.00  0.00     0.173 C 
HETATM   33  C17 UNL     1      55.374  12.807  15.647  1.00  0.00     0.182 C 
HETATM   34  C18 UNL     1      55.248  14.324  15.755  1.00  0.00     0.204 C 
BRANCH  32  35
HETATM   35  O5  UNL     1      56.312  11.399  13.980  1.00  0.00    -0.391 OA
ATOM     36  H5  UNL     1      55.831  10.715  13.529  1.00  0.00     0.210 HD
ENDBRANCH  32  35
BRANCH  33  37
HETATM   37  O6  UNL     1      56.445  12.320  16.356  1.00  0.00    -0.390 OA
ATOM     38  H6  UNL     1      56.386  11.384  16.504  1.00  0.00     0.210 HD
ENDBRANCH  33  37
BRANCH  34  39
HETATM   39  O7  UNL     1      54.705  14.596  16.978  1.00  0.00    -0.388 OA
ATOM     40  H7  UNL     1      54.934  15.430  17.370  1.00  0.00     0.210 HD
ENDBRANCH  34  39
ENDBRANCH  28  29
ENDBRANCH   5  28
TORSDOF 13
ENDMDL
