MODEL 1
REMARK VINA RESULT: -8.716946776      0.000      0.000
REMARK  9 active torsions:
REMARK  status: ('A' for Active; 'I' for Inactive)
REMARK    1  A    between atoms: N1_12  and  C11_13 
REMARK    2  A    between atoms: C11_13  and  C12_14 
REMARK       I    between atoms: C12_14  and  N2_16 
REMARK    3  A    between atoms: N2_16  and  C13_18 
REMARK    4  A    between atoms: C13_18  and  C14_19 
REMARK    5  A    between atoms: C14_19  and  C15_20 
REMARK    6  A    between atoms: C15_20  and  C16_21 
REMARK    7  A    between atoms: C16_21  and  C17_22 
REMARK    8  A    between atoms: C17_22  and  C18_23 
REMARK    9  A    between atoms: C18_23  and  N3_24 
REMARK       I    between atoms: N3_24  and  C19_26 
ROOT
HETATM    1  C11 UNL     1      76.042  51.861   4.106  1.00  0.00     0.228 C 
ENDROOT
BRANCH   1   2
HETATM    2  N1  UNL     1      76.444  50.860   3.174  1.00  0.00    -0.338 N 
HETATM    3  C10 UNL     1      75.697  49.631   3.208  1.00  0.00     0.161 C 
HETATM    4  C5  UNL     1      76.332  48.408   2.727  1.00  0.00     0.018 C 
HETATM    5  C9  UNL     1      74.375  49.820   2.576  1.00  0.00     0.150 C 
HETATM    6  C4  UNL     1      77.299  48.421   1.631  1.00  0.00     0.037 C 
HETATM    7  C6  UNL     1      75.221  47.428   2.308  1.00  0.00     0.007 C 
HETATM    8  C2  UNL     1      78.669  48.963   1.896  1.00  0.00     0.025 C 
HETATM    9  C1  UNL     1      79.667  48.479   0.870  1.00  0.00     0.038 C 
HETATM   10  C3  UNL     1      79.192  48.595   3.266  1.00  0.00     0.038 C 
HETATM   11  N6  UNL     1      78.581  50.413   1.815  1.00  0.00    -0.359 N 
HETATM   12  C20 UNL     1      77.478  51.196   2.264  1.00  0.00     0.171 C 
ATOM     13  H6  UNL     1      79.371  50.910   1.405  1.00  0.00     0.162 HD
HETATM   14  S1  UNL     1      77.356  52.721   1.602  1.00  0.00    -0.041 SA
HETATM   15  C7  UNL     1      74.027  47.527   3.202  1.00  0.00     0.008 C 
HETATM   16  C8  UNL     1      73.301  48.852   2.923  1.00  0.00     0.080 C 
HETATM   17  O1  UNL     1      74.106  50.705   1.798  1.00  0.00    -0.296 OA
ENDBRANCH   1   2
BRANCH   1  18
HETATM   18  C12 UNL     1      76.398  51.637   5.521  1.00  0.00     0.235 C 
HETATM   19  O2  UNL     1      77.541  51.260   5.830  1.00  0.00    -0.272 OA
HETATM   20  N2  UNL     1      75.447  51.850   6.526  1.00  0.00    -0.360 N 
ATOM     21  H2  UNL     1      74.513  52.158   6.255  1.00  0.00     0.162 HD
BRANCH  20  22
HETATM   22  C13 UNL     1      75.726  51.654   7.915  1.00  0.00     0.122 C 
BRANCH  22  23
HETATM   23  C14 UNL     1      74.536  51.314   8.772  1.00  0.00     0.020 C 
BRANCH  23  24
HETATM   24  C15 UNL     1      73.369  50.845   7.966  1.00  0.00     0.002 C 
BRANCH  24  25
HETATM   25  C16 UNL     1      72.288  50.329   8.875  1.00  0.00     0.002 C 
BRANCH  25  26
HETATM   26  C17 UNL     1      71.744  49.016   8.395  1.00  0.00     0.020 C 
BRANCH  26  27
HETATM   27  C18 UNL     1      72.136  48.910   6.923  1.00  0.00     0.122 C 
BRANCH  27  28
HETATM   28  N3  UNL     1      71.493  47.692   6.441  1.00  0.00    -0.365 N 
HETATM   29  C19 UNL     1      72.139  46.466   6.766  1.00  0.00     0.181 C 
HETATM   30  N4  UNL     1      71.463  45.364   6.941  1.00  0.00    -0.374 N 
HETATM   31  N5  UNL     1      73.554  46.376   6.917  1.00  0.00    -0.064 NA
ATOM     32  H42 UNL     1      70.451  45.428   6.833  1.00  0.00     0.158 HD
ATOM     33  H41 UNL     1      71.927  44.486   7.175  1.00  0.00     0.158 HD
ATOM     34  H3  UNL     1      70.628  47.717   5.900  1.00  0.00     0.162 HD
ENDBRANCH  27  28
ENDBRANCH  26  27
ENDBRANCH  25  26
ENDBRANCH  24  25
ENDBRANCH  23  24
ENDBRANCH  22  23
ENDBRANCH  20  22
ENDBRANCH   1  18
TORSDOF 9
ENDMDL
MODEL 2
REMARK VINA RESULT: -8.640089758      2.614      3.515
REMARK  9 active torsions:
REMARK  status: ('A' for Active; 'I' for Inactive)
REMARK    1  A    between atoms: N1_12  and  C11_13 
REMARK    2  A    between atoms: C11_13  and  C12_14 
REMARK       I    between atoms: C12_14  and  N2_16 
REMARK    3  A    between atoms: N2_16  and  C13_18 
REMARK    4  A    between atoms: C13_18  and  C14_19 
REMARK    5  A    between atoms: C14_19  and  C15_20 
REMARK    6  A    between atoms: C15_20  and  C16_21 
REMARK    7  A    between atoms: C16_21  and  C17_22 
REMARK    8  A    between atoms: C17_22  and  C18_23 
REMARK    9  A    between atoms: C18_23  and  N3_24 
REMARK       I    between atoms: N3_24  and  C19_26 
ROOT
HETATM    1  C11 UNL     1      72.491  52.588   4.301  1.00  0.00     0.228 C 
ENDROOT
BRANCH   1   2
HETATM    2  N1  UNL     1      73.789  52.016   4.444  1.00  0.00    -0.338 N 
HETATM    3  C10 UNL     1      73.857  50.581   4.372  1.00  0.00     0.161 C 
HETATM    4  C5  UNL     1      74.968  49.896   5.025  1.00  0.00     0.018 C 
HETATM    5  C9  UNL     1      73.714  50.133   2.971  1.00  0.00     0.150 C 
HETATM    6  C4  UNL     1      76.298  50.494   5.114  1.00  0.00     0.037 C 
HETATM    7  C6  UNL     1      75.156  48.531   4.337  1.00  0.00     0.007 C 
HETATM    8  C2  UNL     1      76.507  51.628   6.070  1.00  0.00     0.025 C 
HETATM    9  C1  UNL     1      77.969  51.809   6.407  1.00  0.00     0.038 C 
HETATM   10  C3  UNL     1      75.748  51.451   7.365  1.00  0.00     0.038 C 
HETATM   11  N6  UNL     1      76.023  52.836   5.418  1.00  0.00    -0.359 N 
HETATM   12  C20 UNL     1      74.883  52.909   4.567  1.00  0.00     0.171 C 
ATOM     13  H6  UNL     1      76.541  53.698   5.583  1.00  0.00     0.162 HD
HETATM   14  S1  UNL     1      74.834  54.217   3.534  1.00  0.00    -0.041 SA
HETATM   15  C7  UNL     1      73.849  47.933   3.925  1.00  0.00     0.008 C 
HETATM   16  C8  UNL     1      73.286  48.728   2.738  1.00  0.00     0.080 C 
HETATM   17  O1  UNL     1      73.920  50.828   2.004  1.00  0.00    -0.296 OA
ENDBRANCH   1   2
BRANCH   1  18
HETATM   18  C12 UNL     1      71.843  53.093   5.528  1.00  0.00     0.235 C 
HETATM   19  O2  UNL     1      70.864  53.854   5.454  1.00  0.00    -0.272 OA
HETATM   20  N2  UNL     1      72.331  52.716   6.784  1.00  0.00    -0.360 N 
ATOM     21  H2  UNL     1      73.137  52.092   6.827  1.00  0.00     0.162 HD
BRANCH  20  22
HETATM   22  C13 UNL     1      71.751  53.167   8.011  1.00  0.00     0.122 C 
BRANCH  22  23
HETATM   23  C14 UNL     1      71.628  52.124   9.090  1.00  0.00     0.020 C 
BRANCH  23  24
HETATM   24  C15 UNL     1      72.668  51.057   8.972  1.00  0.00     0.002 C 
BRANCH  24  25
HETATM   25  C16 UNL     1      72.014  49.724   8.738  1.00  0.00     0.002 C 
BRANCH  25  26
HETATM   26  C17 UNL     1      71.961  49.385   7.277  1.00  0.00     0.020 C 
BRANCH  26  27
HETATM   27  C18 UNL     1      72.423  47.934   7.164  1.00  0.00     0.122 C 
BRANCH  27  28
HETATM   28  N3  UNL     1      71.655  47.207   8.170  1.00  0.00    -0.365 N 
HETATM   29  C19 UNL     1      71.932  45.816   8.292  1.00  0.00     0.181 C 
HETATM   30  N4  UNL     1      71.810  45.194   9.432  1.00  0.00    -0.374 N 
HETATM   31  N5  UNL     1      72.355  45.031   7.180  1.00  0.00    -0.064 NA
ATOM     32  H42 UNL     1      71.507  45.755  10.228  1.00  0.00     0.158 HD
ATOM     33  H41 UNL     1      72.009  44.197   9.519  1.00  0.00     0.158 HD
ATOM     34  H3  UNL     1      70.958  47.670   8.753  1.00  0.00     0.162 HD
ENDBRANCH  27  28
ENDBRANCH  26  27
ENDBRANCH  25  26
ENDBRANCH  24  25
ENDBRANCH  23  24
ENDBRANCH  22  23
ENDBRANCH  20  22
ENDBRANCH   1  18
TORSDOF 9
ENDMDL
MODEL 3
REMARK VINA RESULT: -8.374212156      1.958      4.369
REMARK  9 active torsions:
REMARK  status: ('A' for Active; 'I' for Inactive)
REMARK    1  A    between atoms: N1_12  and  C11_13 
REMARK    2  A    between atoms: C11_13  and  C12_14 
REMARK       I    between atoms: C12_14  and  N2_16 
REMARK    3  A    between atoms: N2_16  and  C13_18 
REMARK    4  A    between atoms: C13_18  and  C14_19 
REMARK    5  A    between atoms: C14_19  and  C15_20 
REMARK    6  A    between atoms: C15_20  and  C16_21 
REMARK    7  A    between atoms: C16_21  and  C17_22 
REMARK    8  A    between atoms: C17_22  and  C18_23 
REMARK    9  A    between atoms: C18_23  and  N3_24 
REMARK       I    between atoms: N3_24  and  C19_26 
ROOT
HETATM    1  C11 UNL     1      74.605  52.320   2.948  1.00  0.00     0.228 C 
ENDROOT
BRANCH   1   2
HETATM    2  N1  UNL     1      75.697  52.141   3.846  1.00  0.00    -0.338 N 
HETATM    3  C10 UNL     1      76.359  50.866   3.787  1.00  0.00     0.161 C 
HETATM    4  C5  UNL     1      77.077  50.391   4.966  1.00  0.00     0.018 C 
HETATM    5  C9  UNL     1      77.215  50.790   2.585  1.00  0.00     0.150 C 
HETATM    6  C4  UNL     1      77.757  51.309   5.877  1.00  0.00     0.037 C 
HETATM    7  C6  UNL     1      78.142  49.381   4.500  1.00  0.00     0.007 C 
HETATM    8  C2  UNL     1      76.924  52.153   6.792  1.00  0.00     0.025 C 
HETATM    9  C1  UNL     1      77.727  52.660   7.966  1.00  0.00     0.038 C 
HETATM   10  C3  UNL     1      75.719  51.417   7.333  1.00  0.00     0.038 C 
HETATM   11  N6  UNL     1      76.454  53.292   6.018  1.00  0.00    -0.359 N 
HETATM   12  C20 UNL     1      76.069  53.251   4.647  1.00  0.00     0.171 C 
ATOM     13  H6  UNL     1      76.395  54.191   6.495  1.00  0.00     0.162 HD
HETATM   14  S1  UNL     1      76.089  54.713   3.846  1.00  0.00    -0.041 SA
HETATM   15  C7  UNL     1      77.659  48.557   3.350  1.00  0.00     0.008 C 
HETATM   16  C8  UNL     1      77.594  49.439   2.094  1.00  0.00     0.080 C 
HETATM   17  O1  UNL     1      77.627  51.749   1.974  1.00  0.00    -0.296 OA
ENDBRANCH   1   2
BRANCH   1  18
HETATM   18  C12 UNL     1      73.454  51.408   3.105  1.00  0.00     0.235 C 
HETATM   19  O2  UNL     1      72.519  51.702   3.869  1.00  0.00    -0.272 OA
HETATM   20  N2  UNL     1      73.411  50.205   2.393  1.00  0.00    -0.360 N 
ATOM     21  H2  UNL     1      74.187  49.978   1.771  1.00  0.00     0.162 HD
BRANCH  20  22
HETATM   22  C13 UNL     1      72.326  49.278   2.498  1.00  0.00     0.122 C 
BRANCH  22  23
HETATM   23  C14 UNL     1      72.658  47.967   3.161  1.00  0.00     0.020 C 
BRANCH  23  24
HETATM   24  C15 UNL     1      74.109  47.850   3.496  1.00  0.00     0.002 C 
BRANCH  24  25
HETATM   25  C16 UNL     1      74.282  47.667   4.978  1.00  0.00     0.002 C 
BRANCH  25  26
HETATM   26  C17 UNL     1      73.731  48.832   5.746  1.00  0.00     0.020 C 
BRANCH  26  27
HETATM   27  C18 UNL     1      72.822  48.238   6.819  1.00  0.00     0.122 C 
BRANCH  27  28
HETATM   28  N3  UNL     1      72.704  46.823   6.483  1.00  0.00    -0.365 N 
HETATM   29  C19 UNL     1      72.013  46.006   7.422  1.00  0.00     0.181 C 
HETATM   30  N4  UNL     1      71.337  44.956   7.046  1.00  0.00    -0.374 N 
HETATM   31  N5  UNL     1      72.023  46.291   8.819  1.00  0.00    -0.064 NA
ATOM     32  H42 UNL     1      71.331  44.752   6.047  1.00  0.00     0.158 HD
ATOM     33  H41 UNL     1      70.842  44.372   7.719  1.00  0.00     0.158 HD
ATOM     34  H3  UNL     1      73.095  46.440   5.622  1.00  0.00     0.162 HD
ENDBRANCH  27  28
ENDBRANCH  26  27
ENDBRANCH  25  26
ENDBRANCH  24  25
ENDBRANCH  23  24
ENDBRANCH  22  23
ENDBRANCH  20  22
ENDBRANCH   1  18
TORSDOF 9
ENDMDL
MODEL 4
REMARK VINA RESULT: -8.217358907      2.244      5.042
REMARK  9 active torsions:
REMARK  status: ('A' for Active; 'I' for Inactive)
REMARK    1  A    between atoms: N1_12  and  C11_13 
REMARK    2  A    between atoms: C11_13  and  C12_14 
REMARK       I    between atoms: C12_14  and  N2_16 
REMARK    3  A    between atoms: N2_16  and  C13_18 
REMARK    4  A    between atoms: C13_18  and  C14_19 
REMARK    5  A    between atoms: C14_19  and  C15_20 
REMARK    6  A    between atoms: C15_20  and  C16_21 
REMARK    7  A    between atoms: C16_21  and  C17_22 
REMARK    8  A    between atoms: C17_22  and  C18_23 
REMARK    9  A    between atoms: C18_23  and  N3_24 
REMARK       I    between atoms: N3_24  and  C19_26 
ROOT
HETATM    1  C11 UNL     1      76.855  50.861   5.422  1.00  0.00     0.228 C 
ENDROOT
BRANCH   1   2
HETATM    2  N1  UNL     1      75.707  51.705   5.379  1.00  0.00    -0.338 N 
HETATM    3  C10 UNL     1      74.675  51.416   6.338  1.00  0.00     0.161 C 
HETATM    4  C5  UNL     1      73.304  51.820   6.042  1.00  0.00     0.018 C 
HETATM    5  C9  UNL     1      75.082  51.881   7.681  1.00  0.00     0.150 C 
HETATM    6  C4  UNL     1      73.006  53.030   5.279  1.00  0.00     0.037 C 
HETATM    7  C6  UNL     1      72.550  51.957   7.377  1.00  0.00     0.007 C 
HETATM    8  C2  UNL     1      73.265  53.024   3.803  1.00  0.00     0.025 C 
HETATM    9  C1  UNL     1      72.482  54.106   3.097  1.00  0.00     0.038 C 
HETATM   10  C3  UNL     1      72.926  51.702   3.153  1.00  0.00     0.038 C 
HETATM   11  N6  UNL     1      74.686  53.274   3.616  1.00  0.00    -0.359 N 
HETATM   12  C20 UNL     1      75.725  52.782   4.457  1.00  0.00     0.171 C 
ATOM     13  H6  UNL     1      74.961  53.847   2.818  1.00  0.00     0.162 HD
HETATM   14  S1  UNL     1      77.172  53.609   4.379  1.00  0.00    -0.041 SA
HETATM   15  C7  UNL     1      72.987  50.929   8.370  1.00  0.00     0.008 C 
HETATM   16  C8  UNL     1      74.403  51.273   8.855  1.00  0.00     0.080 C 
HETATM   17  O1  UNL     1      75.926  52.721   7.889  1.00  0.00    -0.296 OA
ENDBRANCH   1   2
BRANCH   1  18
HETATM   18  C12 UNL     1      76.856  49.689   4.524  1.00  0.00     0.235 C 
HETATM   19  O2  UNL     1      77.928  49.180   4.156  1.00  0.00    -0.272 OA
HETATM   20  N2  UNL     1      75.646  49.143   4.082  1.00  0.00    -0.360 N 
ATOM     21  H2  UNL     1      74.775  49.573   4.392  1.00  0.00     0.162 HD
BRANCH  20  22
HETATM   22  C13 UNL     1      75.576  48.008   3.214  1.00  0.00     0.122 C 
BRANCH  22  23
HETATM   23  C14 UNL     1      74.189  47.496   2.929  1.00  0.00     0.020 C 
BRANCH  23  24
HETATM   24  C15 UNL     1      73.396  47.275   4.176  1.00  0.00     0.002 C 
BRANCH  24  25
HETATM   25  C16 UNL     1      72.207  48.193   4.201  1.00  0.00     0.002 C 
BRANCH  25  26
HETATM   26  C17 UNL     1      71.813  48.548   5.604  1.00  0.00     0.020 C 
BRANCH  26  27
HETATM   27  C18 UNL     1      72.801  47.822   6.515  1.00  0.00     0.122 C 
BRANCH  27  28
HETATM   28  N3  UNL     1      72.028  47.443   7.695  1.00  0.00    -0.365 N 
HETATM   29  C19 UNL     1      72.123  46.082   8.100  1.00  0.00     0.181 C 
HETATM   30  N4  UNL     1      72.014  45.734   9.352  1.00  0.00    -0.374 N 
HETATM   31  N5  UNL     1      72.340  45.030   7.164  1.00  0.00    -0.064 NA
ATOM     32  H42 UNL     1      71.858  46.487  10.023  1.00  0.00     0.158 HD
ATOM     33  H41 UNL     1      72.082  44.759   9.643  1.00  0.00     0.158 HD
ATOM     34  H3  UNL     1      71.452  48.116   8.200  1.00  0.00     0.162 HD
ENDBRANCH  27  28
ENDBRANCH  26  27
ENDBRANCH  25  26
ENDBRANCH  24  25
ENDBRANCH  23  24
ENDBRANCH  22  23
ENDBRANCH  20  22
ENDBRANCH   1  18
TORSDOF 9
ENDMDL
MODEL 5
REMARK VINA RESULT: -8.197296253      1.980      5.050
REMARK  9 active torsions:
REMARK  status: ('A' for Active; 'I' for Inactive)
REMARK    1  A    between atoms: N1_12  and  C11_13 
REMARK    2  A    between atoms: C11_13  and  C12_14 
REMARK       I    between atoms: C12_14  and  N2_16 
REMARK    3  A    between atoms: N2_16  and  C13_18 
REMARK    4  A    between atoms: C13_18  and  C14_19 
REMARK    5  A    between atoms: C14_19  and  C15_20 
REMARK    6  A    between atoms: C15_20  and  C16_21 
REMARK    7  A    between atoms: C16_21  and  C17_22 
REMARK    8  A    between atoms: C17_22  and  C18_23 
REMARK    9  A    between atoms: C18_23  and  N3_24 
REMARK       I    between atoms: N3_24  and  C19_26 
ROOT
HETATM    1  C11 UNL     1      77.498  51.405   3.635  1.00  0.00     0.228 C 
ENDROOT
BRANCH   1   2
HETATM    2  N1  UNL     1      76.307  52.075   4.040  1.00  0.00    -0.338 N 
HETATM    3  C10 UNL     1      75.872  51.829   5.389  1.00  0.00     0.161 C 
HETATM    4  C5  UNL     1      74.460  51.997   5.716  1.00  0.00     0.018 C 
HETATM    5  C9  UNL     1      76.724  52.570   6.343  1.00  0.00     0.150 C 
HETATM    6  C4  UNL     1      73.632  53.006   5.059  1.00  0.00     0.037 C 
HETATM    7  C6  UNL     1      74.350  52.267   7.227  1.00  0.00     0.007 C 
HETATM    8  C2  UNL     1      73.219  52.776   3.638  1.00  0.00     0.025 C 
HETATM    9  C1  UNL     1      72.015  53.609   3.266  1.00  0.00     0.038 C 
HETATM   10  C3  UNL     1      72.893  51.328   3.349  1.00  0.00     0.038 C 
HETATM   11  N6  UNL     1      74.339  53.168   2.796  1.00  0.00    -0.359 N 
HETATM   12  C20 UNL     1      75.714  52.968   3.112  1.00  0.00     0.171 C 
ATOM     13  H6  UNL     1      74.123  53.624   1.910  1.00  0.00     0.162 HD
HETATM   14  S1  UNL     1      76.793  53.946   2.299  1.00  0.00    -0.041 SA
HETATM   15  C7  UNL     1      75.365  51.493   8.005  1.00  0.00     0.008 C 
HETATM   16  C8  UNL     1      76.755  52.094   7.751  1.00  0.00     0.080 C 
HETATM   17  O1  UNL     1      77.395  53.534   6.057  1.00  0.00    -0.296 OA
ENDBRANCH   1   2
BRANCH   1  18
HETATM   18  C12 UNL     1      77.467  49.929   3.633  1.00  0.00     0.235 C 
HETATM   19  O2  UNL     1      78.085  49.287   4.498  1.00  0.00    -0.272 OA
HETATM   20  N2  UNL     1      76.738  49.244   2.654  1.00  0.00    -0.360 N 
ATOM     21  H2  UNL     1      76.238  49.786   1.951  1.00  0.00     0.162 HD
BRANCH  20  22
HETATM   22  C13 UNL     1      76.665  47.816   2.597  1.00  0.00     0.122 C 
BRANCH  22  23
HETATM   23  C14 UNL     1      75.334  47.254   2.175  1.00  0.00     0.020 C 
BRANCH  23  24
HETATM   24  C15 UNL     1      74.185  48.024   2.739  1.00  0.00     0.002 C 
BRANCH  24  25
HETATM   25  C16 UNL     1      73.716  47.388   4.017  1.00  0.00     0.002 C 
BRANCH  25  26
HETATM   26  C17 UNL     1      74.055  48.231   5.211  1.00  0.00     0.020 C 
BRANCH  26  27
HETATM   27  C18 UNL     1      72.857  48.133   6.152  1.00  0.00     0.122 C 
BRANCH  27  28
HETATM   28  N3  UNL     1      72.243  46.841   5.859  1.00  0.00    -0.365 N 
HETATM   29  C19 UNL     1      72.015  45.984   6.972  1.00  0.00     0.181 C 
HETATM   30  N4  UNL     1      71.019  45.142   6.992  1.00  0.00    -0.374 N 
HETATM   31  N5  UNL     1      72.859  45.999   8.121  1.00  0.00    -0.064 NA
ATOM     32  H42 UNL     1      70.415  45.131   6.171  1.00  0.00     0.158 HD
ATOM     33  H41 UNL     1      70.855  44.529   7.790  1.00  0.00     0.158 HD
ATOM     34  H3  UNL     1      71.993  46.567   4.909  1.00  0.00     0.162 HD
ENDBRANCH  27  28
ENDBRANCH  26  27
ENDBRANCH  25  26
ENDBRANCH  24  25
ENDBRANCH  23  24
ENDBRANCH  22  23
ENDBRANCH  20  22
ENDBRANCH   1  18
TORSDOF 9
ENDMDL
