MODEL 1
REMARK VINA RESULT: -8.382190581      0.000      0.000
REMARK  12 active torsions:
REMARK  status: ('A' for Active; 'I' for Inactive)
REMARK    1  A    between atoms: C2_2  and  C3_3 
REMARK    2  A    between atoms: C7_7  and  C8_8 
REMARK    3  A    between atoms: C8_8  and  O1_9 
REMARK    4  A    between atoms: C8_8  and  C9_11 
REMARK    5  A    between atoms: C9_11  and  O2_12 
REMARK    6  A    between atoms: C9_11  and  C10_14 
REMARK    7  A    between atoms: C11_15  and  O3_16 
REMARK    8  A    between atoms: C11_15  and  C12_18 
REMARK    9  A    between atoms: C12_18  and  O4_19 
REMARK   10  A    between atoms: C12_18  and  C13_21 
REMARK   11  A    between atoms: C13_21  and  C14_22 
REMARK   12  A    between atoms: C16_24  and  C17_25 
ROOT
HETATM    1  C10 UNL     1      14.429  56.426  36.306  1.00  0.00     0.042 C 
HETATM    2  C11 UNL     1      13.458  56.922  37.014  1.00  0.00     0.071 C 
ENDROOT
BRANCH   1   3
HETATM    3  C9  UNL     1      15.798  56.062  36.741  1.00  0.00     0.174 C 
BRANCH   3   4
HETATM    4  C8  UNL     1      15.910  54.633  37.225  1.00  0.00     0.179 C 
BRANCH   4   5
HETATM    5  C7  UNL     1      17.219  54.393  37.949  1.00  0.00     0.154 C 
HETATM    6  C6  UNL     1      17.270  52.936  38.317  1.00  0.00     0.038 C 
HETATM    7  C5  UNL     1      18.483  52.461  37.512  1.00  0.00     0.044 C 
HETATM    8  C3  UNL     1      19.290  53.764  37.460  1.00  0.00     0.075 C 
HETATM    9  C4  UNL     1      19.911  53.930  38.828  1.00  0.00     0.050 C 
HETATM   10  O5  UNL     1      18.315  54.687  37.181  1.00  0.00    -0.369 OA
BRANCH   8  11
HETATM   11  C2  UNL     1      20.333  53.685  36.442  1.00  0.00     0.000 C 
HETATM   12  C1  UNL     1      20.753  52.511  36.003  1.00  0.00     0.010 C 
ENDBRANCH   8  11
ENDBRANCH   4   5
BRANCH   4  13
HETATM   13  O1  UNL     1      15.878  53.798  36.110  1.00  0.00    -0.390 OA
ATOM     14  H1  UNL     1      15.633  54.325  35.358  1.00  0.00     0.210 HD
ENDBRANCH   4  13
ENDBRANCH   3   4
BRANCH   3  15
HETATM   15  O2  UNL     1      16.680  56.242  35.697  1.00  0.00    -0.389 OA
ATOM     16  H2  UNL     1      16.299  56.858  35.083  1.00  0.00     0.210 HD
ENDBRANCH   3  15
ENDBRANCH   1   3
BRANCH   2  17
HETATM   17  O3  UNL     1      12.239  57.178  36.336  1.00  0.00    -0.363 OA
ATOM     18  H3  UNL     1      11.646  57.800  36.741  1.00  0.00     0.217 HD
ENDBRANCH   2  17
BRANCH   2  19
HETATM   19  C12 UNL     1      13.462  57.255  38.439  1.00  0.00     0.178 C 
BRANCH  19  20
HETATM   20  O4  UNL     1      13.805  56.238  39.291  1.00  0.00    -0.389 OA
ATOM     21  H4  UNL     1      13.131  55.963  39.904  1.00  0.00     0.210 HD
ENDBRANCH  19  20
BRANCH  19  22
HETATM   22  C13 UNL     1      14.342  58.465  38.728  1.00  0.00     0.072 C 
BRANCH  22  23
HETATM   23  C14 UNL     1      13.589  59.726  38.839  1.00  0.00    -0.081 C 
HETATM   24  C15 UNL     1      14.211  61.064  39.014  1.00  0.00     0.043 C 
HETATM   25  C16 UNL     1      12.273  59.694  38.766  1.00  0.00     0.003 C 
BRANCH  25  26
HETATM   26  C17 UNL     1      11.434  60.898  38.865  1.00  0.00     0.002 C 
HETATM   27  C18 UNL     1      10.456  61.089  38.026  1.00  0.00    -0.088 C 
HETATM   28  C19 UNL     1       9.614  62.304  38.131  1.00  0.00     0.043 C 
HETATM   29  C20 UNL     1      10.187  60.090  36.965  1.00  0.00     0.043 C 
ENDBRANCH  25  26
ENDBRANCH  22  23
ENDBRANCH  19  22
ENDBRANCH   2  19
TORSDOF 12
ENDMDL
MODEL 2
REMARK VINA RESULT: -8.331324047      3.259      6.379
REMARK  12 active torsions:
REMARK  status: ('A' for Active; 'I' for Inactive)
REMARK    1  A    between atoms: C2_2  and  C3_3 
REMARK    2  A    between atoms: C7_7  and  C8_8 
REMARK    3  A    between atoms: C8_8  and  O1_9 
REMARK    4  A    between atoms: C8_8  and  C9_11 
REMARK    5  A    between atoms: C9_11  and  O2_12 
REMARK    6  A    between atoms: C9_11  and  C10_14 
REMARK    7  A    between atoms: C11_15  and  O3_16 
REMARK    8  A    between atoms: C11_15  and  C12_18 
REMARK    9  A    between atoms: C12_18  and  O4_19 
REMARK   10  A    between atoms: C12_18  and  C13_21 
REMARK   11  A    between atoms: C13_21  and  C14_22 
REMARK   12  A    between atoms: C16_24  and  C17_25 
ROOT
HETATM    1  C10 UNL     1      19.802  52.245  37.422  1.00  0.00     0.042 C 
HETATM    2  C11 UNL     1      18.542  52.555  37.492  1.00  0.00     0.071 C 
ENDROOT
BRANCH   1   3
HETATM    3  C9  UNL     1      20.703  52.299  36.246  1.00  0.00     0.174 C 
BRANCH   3   4
HETATM    4  C8  UNL     1      20.749  50.999  35.471  1.00  0.00     0.179 C 
BRANCH   4   5
HETATM    5  C7  UNL     1      22.141  50.718  34.942  1.00  0.00     0.154 C 
HETATM    6  C6  UNL     1      22.412  49.254  35.144  1.00  0.00     0.038 C 
HETATM    7  C5  UNL     1      22.570  48.772  33.700  1.00  0.00     0.044 C 
HETATM    8  C3  UNL     1      23.090  50.059  33.048  1.00  0.00     0.075 C 
HETATM    9  C4  UNL     1      24.539  50.183  33.460  1.00  0.00     0.050 C 
HETATM   10  O5  UNL     1      22.273  51.006  33.609  1.00  0.00    -0.369 OA
BRANCH   8  11
HETATM   11  C2  UNL     1      22.987  49.980  31.594  1.00  0.00     0.000 C 
HETATM   12  C1  UNL     1      23.386  50.987  30.838  1.00  0.00     0.010 C 
ENDBRANCH   8  11
ENDBRANCH   4   5
BRANCH   4  13
HETATM   13  O1  UNL     1      19.892  51.119  34.379  1.00  0.00    -0.390 OA
ATOM     14  H1  UNL     1      19.104  50.625  34.571  1.00  0.00     0.210 HD
ENDBRANCH   4  13
ENDBRANCH   3   4
BRANCH   3  15
HETATM   15  O2  UNL     1      20.294  53.302  35.394  1.00  0.00    -0.389 OA
ATOM     16  H2  UNL     1      19.841  53.964  35.903  1.00  0.00     0.210 HD
ENDBRANCH   3  15
ENDBRANCH   1   3
BRANCH   2  17
HETATM   17  O3  UNL     1      17.917  52.408  38.757  1.00  0.00    -0.363 OA
ATOM     18  H3  UNL     1      18.368  52.783  39.503  1.00  0.00     0.217 HD
ENDBRANCH   2  17
BRANCH   2  19
HETATM   19  C12 UNL     1      17.674  53.044  36.420  1.00  0.00     0.178 C 
BRANCH  19  20
HETATM   20  O4  UNL     1      17.471  52.184  35.373  1.00  0.00    -0.389 OA
ATOM     21  H4  UNL     1      18.198  52.085  34.769  1.00  0.00     0.210 HD
ENDBRANCH  19  20
BRANCH  19  22
HETATM   22  C13 UNL     1      16.323  53.500  36.959  1.00  0.00     0.072 C 
BRANCH  22  23
HETATM   23  C14 UNL     1      16.185  54.965  37.035  1.00  0.00    -0.081 C 
HETATM   24  C15 UNL     1      17.003  55.928  36.254  1.00  0.00     0.043 C 
HETATM   25  C16 UNL     1      15.272  55.481  37.834  1.00  0.00     0.003 C 
BRANCH  25  26
HETATM   26  C17 UNL     1      15.057  56.928  37.980  1.00  0.00     0.002 C 
HETATM   27  C18 UNL     1      14.747  57.435  39.139  1.00  0.00    -0.088 C 
HETATM   28  C19 UNL     1      14.531  58.894  39.280  1.00  0.00     0.043 C 
HETATM   29  C20 UNL     1      14.609  56.548  40.319  1.00  0.00     0.043 C 
ENDBRANCH  25  26
ENDBRANCH  22  23
ENDBRANCH  19  22
ENDBRANCH   2  19
TORSDOF 12
ENDMDL
MODEL 3
REMARK VINA RESULT: -8.306361216      1.496      2.653
REMARK  12 active torsions:
REMARK  status: ('A' for Active; 'I' for Inactive)
REMARK    1  A    between atoms: C2_2  and  C3_3 
REMARK    2  A    between atoms: C7_7  and  C8_8 
REMARK    3  A    between atoms: C8_8  and  O1_9 
REMARK    4  A    between atoms: C8_8  and  C9_11 
REMARK    5  A    between atoms: C9_11  and  O2_12 
REMARK    6  A    between atoms: C9_11  and  C10_14 
REMARK    7  A    between atoms: C11_15  and  O3_16 
REMARK    8  A    between atoms: C11_15  and  C12_18 
REMARK    9  A    between atoms: C12_18  and  O4_19 
REMARK   10  A    between atoms: C12_18  and  C13_21 
REMARK   11  A    between atoms: C13_21  and  C14_22 
REMARK   12  A    between atoms: C16_24  and  C17_25 
ROOT
HETATM    1  C10 UNL     1      15.655  53.957  38.438  1.00  0.00     0.042 C 
HETATM    2  C11 UNL     1      15.235  55.155  38.720  1.00  0.00     0.071 C 
ENDROOT
BRANCH   1   3
HETATM    3  C9  UNL     1      16.426  53.503  37.257  1.00  0.00     0.174 C 
BRANCH   3   4
HETATM    4  C8  UNL     1      17.212  52.235  37.510  1.00  0.00     0.179 C 
BRANCH   4   5
HETATM    5  C7  UNL     1      18.703  52.501  37.526  1.00  0.00     0.154 C 
HETATM    6  C6  UNL     1      18.975  53.605  36.543  1.00  0.00     0.038 C 
HETATM    7  C5  UNL     1      19.520  54.703  37.461  1.00  0.00     0.044 C 
HETATM    8  C3  UNL     1      20.136  53.838  38.567  1.00  0.00     0.075 C 
HETATM    9  C4  UNL     1      21.423  53.284  38.001  1.00  0.00     0.050 C 
HETATM   10  O5  UNL     1      19.163  52.891  38.757  1.00  0.00    -0.369 OA
BRANCH   8  11
HETATM   11  C2  UNL     1      20.415  54.640  39.755  1.00  0.00     0.000 C 
HETATM   12  C1  UNL     1      21.635  55.090  39.988  1.00  0.00     0.010 C 
ENDBRANCH   8  11
ENDBRANCH   4   5
BRANCH   4  13
HETATM   13  O1  UNL     1      16.946  51.349  36.468  1.00  0.00    -0.390 OA
ATOM     14  H1  UNL     1      17.164  51.785  35.652  1.00  0.00     0.210 HD
ENDBRANCH   4  13
ENDBRANCH   3   4
BRANCH   3  15
HETATM   15  O2  UNL     1      15.568  53.283  36.200  1.00  0.00    -0.389 OA
ATOM     16  H2  UNL     1      15.848  53.819  35.468  1.00  0.00     0.210 HD
ENDBRANCH   3  15
ENDBRANCH   1   3
BRANCH   2  17
HETATM   17  O3  UNL     1      14.512  55.310  39.931  1.00  0.00    -0.363 OA
ATOM     18  H3  UNL     1      13.820  55.960  39.936  1.00  0.00     0.217 HD
ENDBRANCH   2  17
BRANCH   2  19
HETATM   19  C12 UNL     1      15.415  56.380  37.939  1.00  0.00     0.178 C 
BRANCH  19  20
HETATM   20  O4  UNL     1      16.223  56.275  36.838  1.00  0.00    -0.389 OA
ATOM     21  H4  UNL     1      16.640  57.079  36.550  1.00  0.00     0.210 HD
ENDBRANCH  19  20
BRANCH  19  22
HETATM   22  C13 UNL     1      14.077  56.978  37.522  1.00  0.00     0.072 C 
BRANCH  22  23
HETATM   23  C14 UNL     1      13.757  58.241  38.210  1.00  0.00    -0.081 C 
HETATM   24  C15 UNL     1      14.495  58.767  39.387  1.00  0.00     0.043 C 
HETATM   25  C16 UNL     1      12.762  58.979  37.761  1.00  0.00     0.003 C 
BRANCH  25  26
HETATM   26  C17 UNL     1      12.366  60.254  38.378  1.00  0.00     0.002 C 
HETATM   27  C18 UNL     1      11.123  60.643  38.348  1.00  0.00    -0.088 C 
HETATM   28  C19 UNL     1      10.730  61.928  38.970  1.00  0.00     0.043 C 
HETATM   29  C20 UNL     1      10.101  59.796  37.687  1.00  0.00     0.043 C 
ENDBRANCH  25  26
ENDBRANCH  22  23
ENDBRANCH  19  22
ENDBRANCH   2  19
TORSDOF 12
ENDMDL
MODEL 4
REMARK VINA RESULT: -8.304832108      3.377      6.261
REMARK  12 active torsions:
REMARK  status: ('A' for Active; 'I' for Inactive)
REMARK    1  A    between atoms: C2_2  and  C3_3 
REMARK    2  A    between atoms: C7_7  and  C8_8 
REMARK    3  A    between atoms: C8_8  and  O1_9 
REMARK    4  A    between atoms: C8_8  and  C9_11 
REMARK    5  A    between atoms: C9_11  and  O2_12 
REMARK    6  A    between atoms: C9_11  and  C10_14 
REMARK    7  A    between atoms: C11_15  and  O3_16 
REMARK    8  A    between atoms: C11_15  and  C12_18 
REMARK    9  A    between atoms: C12_18  and  O4_19 
REMARK   10  A    between atoms: C12_18  and  C13_21 
REMARK   11  A    between atoms: C13_21  and  C14_22 
REMARK   12  A    between atoms: C16_24  and  C17_25 
ROOT
HETATM    1  C10 UNL     1      18.468  51.564  36.230  1.00  0.00     0.042 C 
HETATM    2  C11 UNL     1      17.420  51.816  36.958  1.00  0.00     0.071 C 
ENDROOT
BRANCH   1   3
HETATM    3  C9  UNL     1      19.860  52.035  36.418  1.00  0.00     0.174 C 
BRANCH   3   4
HETATM    4  C8  UNL     1      20.893  51.077  35.868  1.00  0.00     0.179 C 
BRANCH   4   5
HETATM    5  C7  UNL     1      20.245  49.936  35.111  1.00  0.00     0.154 C 
HETATM    6  C6  UNL     1      20.760  49.980  33.700  1.00  0.00     0.038 C 
HETATM    7  C5  UNL     1      21.500  48.643  33.604  1.00  0.00     0.044 C 
HETATM    8  C3  UNL     1      20.687  47.819  34.610  1.00  0.00     0.075 C 
HETATM    9  C4  UNL     1      19.390  47.471  33.917  1.00  0.00     0.050 C 
HETATM   10  O5  UNL     1      20.539  48.708  35.644  1.00  0.00    -0.369 OA
BRANCH   8  11
HETATM   11  C2  UNL     1      21.402  46.602  34.979  1.00  0.00     0.000 C 
HETATM   12  C1  UNL     1      22.376  46.641  35.871  1.00  0.00     0.010 C 
ENDBRANCH   8  11
ENDBRANCH   4   5
BRANCH   4  13
HETATM   13  O1  UNL     1      21.593  50.535  36.944  1.00  0.00    -0.390 OA
ATOM     14  H1  UNL     1      22.354  51.082  37.102  1.00  0.00     0.210 HD
ENDBRANCH   4  13
ENDBRANCH   3   4
BRANCH   3  15
HETATM   15  O2  UNL     1      20.023  53.258  35.802  1.00  0.00    -0.389 OA
ATOM     16  H2  UNL     1      19.350  53.848  36.120  1.00  0.00     0.210 HD
ENDBRANCH   3  15
ENDBRANCH   1   3
BRANCH   2  17
HETATM   17  O3  UNL     1      16.197  51.228  36.544  1.00  0.00    -0.363 OA
ATOM     18  H3  UNL     1      15.399  51.630  36.865  1.00  0.00     0.217 HD
ENDBRANCH   2  17
BRANCH   2  19
HETATM   19  C12 UNL     1      17.341  52.638  38.166  1.00  0.00     0.178 C 
BRANCH  19  20
HETATM   20  O4  UNL     1      18.088  53.786  38.161  1.00  0.00    -0.389 OA
ATOM     21  H4  UNL     1      17.631  54.579  37.906  1.00  0.00     0.210 HD
ENDBRANCH  19  20
BRANCH  19  22
HETATM   22  C13 UNL     1      15.897  52.984  38.512  1.00  0.00     0.072 C 
BRANCH  22  23
HETATM   23  C14 UNL     1      15.508  54.347  38.113  1.00  0.00    -0.081 C 
HETATM   24  C15 UNL     1      15.195  54.758  36.720  1.00  0.00     0.043 C 
HETATM   25  C16 UNL     1      15.409  55.281  39.038  1.00  0.00     0.003 C 
BRANCH  25  26
HETATM   26  C17 UNL     1      15.028  56.670  38.740  1.00  0.00     0.002 C 
HETATM   27  C18 UNL     1      14.614  57.458  39.691  1.00  0.00    -0.088 C 
HETATM   28  C19 UNL     1      14.230  58.856  39.384  1.00  0.00     0.043 C 
HETATM   29  C20 UNL     1      14.525  56.953  41.082  1.00  0.00     0.043 C 
ENDBRANCH  25  26
ENDBRANCH  22  23
ENDBRANCH  19  22
ENDBRANCH   2  19
TORSDOF 12
ENDMDL
MODEL 5
REMARK VINA RESULT: -8.288427103      2.889      5.892
REMARK  12 active torsions:
REMARK  status: ('A' for Active; 'I' for Inactive)
REMARK    1  A    between atoms: C2_2  and  C3_3 
REMARK    2  A    between atoms: C7_7  and  C8_8 
REMARK    3  A    between atoms: C8_8  and  O1_9 
REMARK    4  A    between atoms: C8_8  and  C9_11 
REMARK    5  A    between atoms: C9_11  and  O2_12 
REMARK    6  A    between atoms: C9_11  and  C10_14 
REMARK    7  A    between atoms: C11_15  and  O3_16 
REMARK    8  A    between atoms: C11_15  and  C12_18 
REMARK    9  A    between atoms: C12_18  and  O4_19 
REMARK   10  A    between atoms: C12_18  and  C13_21 
REMARK   11  A    between atoms: C13_21  and  C14_22 
REMARK   12  A    between atoms: C16_24  and  C17_25 
ROOT
HETATM    1  C10 UNL     1      19.375  52.873  37.559  1.00  0.00     0.042 C 
HETATM    2  C11 UNL     1      18.313  53.624  37.530  1.00  0.00     0.071 C 
ENDROOT
BRANCH   1   3
HETATM    3  C9  UNL     1      19.854  51.912  36.538  1.00  0.00     0.174 C 
BRANCH   3   4
HETATM    4  C8  UNL     1      21.363  51.843  36.447  1.00  0.00     0.179 C 
BRANCH   4   5
HETATM    5  C7  UNL     1      21.811  51.121  35.193  1.00  0.00     0.154 C 
HETATM    6  C6  UNL     1      22.493  49.852  35.623  1.00  0.00     0.038 C 
HETATM    7  C5  UNL     1      21.572  48.791  35.014  1.00  0.00     0.044 C 
HETATM    8  C3  UNL     1      21.033  49.571  33.808  1.00  0.00     0.075 C 
HETATM    9  C4  UNL     1      22.148  49.592  32.788  1.00  0.00     0.050 C 
HETATM   10  O5  UNL     1      20.769  50.796  34.364  1.00  0.00    -0.369 OA
BRANCH   8  11
HETATM   11  C2  UNL     1      19.856  48.912  33.251  1.00  0.00     0.000 C 
HETATM   12  C1  UNL     1      19.356  47.834  33.829  1.00  0.00     0.010 C 
ENDBRANCH   8  11
ENDBRANCH   4   5
BRANCH   4  13
HETATM   13  O1  UNL     1      21.828  51.122  37.546  1.00  0.00    -0.390 OA
ATOM     14  H1  UNL     1      21.698  51.656  38.321  1.00  0.00     0.210 HD
ENDBRANCH   4  13
ENDBRANCH   3   4
BRANCH   3  15
HETATM   15  O2  UNL     1      19.375  50.652  36.826  1.00  0.00    -0.389 OA
ATOM     16  H2  UNL     1      19.523  50.476  37.748  1.00  0.00     0.210 HD
ENDBRANCH   3  15
ENDBRANCH   1   3
BRANCH   2  17
HETATM   17  O3  UNL     1      18.091  54.461  38.654  1.00  0.00    -0.363 OA
ATOM     18  H3  UNL     1      17.491  54.139  39.315  1.00  0.00     0.217 HD
ENDBRANCH   2  17
BRANCH   2  19
HETATM   19  C12 UNL     1      17.306  53.718  36.473  1.00  0.00     0.178 C 
BRANCH  19  20
HETATM   20  O4  UNL     1      17.159  52.608  35.683  1.00  0.00    -0.389 OA
ATOM     21  H4  UNL     1      16.267  52.309  35.546  1.00  0.00     0.210 HD
ENDBRANCH  19  20
BRANCH  19  22
HETATM   22  C13 UNL     1      15.944  54.115  37.033  1.00  0.00     0.072 C 
BRANCH  22  23
HETATM   23  C14 UNL     1      15.695  55.566  36.996  1.00  0.00    -0.081 C 
HETATM   24  C15 UNL     1      15.981  56.439  35.829  1.00  0.00     0.043 C 
HETATM   25  C16 UNL     1      15.169  56.151  38.054  1.00  0.00     0.003 C 
BRANCH  25  26
HETATM   26  C17 UNL     1      14.882  57.593  38.115  1.00  0.00     0.002 C 
HETATM   27  C18 UNL     1      14.568  58.154  39.248  1.00  0.00    -0.088 C 
HETATM   28  C19 UNL     1      14.279  59.606  39.303  1.00  0.00     0.043 C 
HETATM   29  C20 UNL     1      14.497  57.337  40.483  1.00  0.00     0.043 C 
ENDBRANCH  25  26
ENDBRANCH  22  23
ENDBRANCH  19  22
ENDBRANCH   2  19
TORSDOF 12
ENDMDL
