MODEL 1
REMARK VINA RESULT: -6.254588271      0.000      0.000
REMARK  8 active torsions:
REMARK  status: ('A' for Active; 'I' for Inactive)
REMARK    1  A    between atoms: N1_2  and  C2_3 
REMARK    2  A    between atoms: C2_3  and  C3_4 
REMARK    3  A    between atoms: C3_4  and  N2_5 
REMARK       I    between atoms: N2_5  and  C4_7 
REMARK       I    between atoms: C4_7  and  N4_11 
REMARK    4  A    between atoms: C6_13  and  N5_14 
REMARK       I    between atoms: N5_14  and  C7_16 
REMARK    5  A    between atoms: C7_16  and  C8_18 
REMARK    6  A    between atoms: C8_18  and  N6_19 
REMARK    7  A    between atoms: C9_23  and  C10_24 
REMARK    8  A    between atoms: C10_24  and  N7_25 
REMARK       I    between atoms: N7_25  and  C11_27 
ROOT
HETATM    1  N2  UNL     1      -4.480  20.085  16.665  1.00  0.00    -0.225 N 
ATOM      2  H2  UNL     1      -3.831  20.446  15.966  1.00  0.00     0.177 HD
HETATM    3  C4  UNL     1      -4.115  18.927  17.392  1.00  0.00     0.678 C 
HETATM    4  N3  UNL     1      -5.028  18.084  17.809  1.00  0.00    -0.234 N 
ATOM      5  H31 UNL     1      -4.765  17.249  18.332  1.00  0.00     0.174 HD
ATOM      6  H32 UNL     1      -5.987  18.336  17.568  1.00  0.00     0.174 HD
HETATM    7  N4  UNL     1      -2.774  18.576  17.728  1.00  0.00    -0.131 N 
HETATM    8  C5  UNL     1      -2.484  17.367  18.474  1.00  0.00     0.179 C 
HETATM    9  C6  UNL     1      -1.396  16.626  17.723  1.00  0.00     0.128 C 
HETATM   10  C9  UNL     1      -0.160  17.436  17.543  1.00  0.00     0.128 C 
HETATM   11  N10 UNL     1      -0.444  18.755  17.023  1.00  0.00    -0.334 N 
ATOM     12  H10 UNL     1       0.231  19.227  16.422  1.00  0.00     0.164 HD
HETATM   13  C12 UNL     1      -1.667  19.383  17.355  1.00  0.00     0.337 C 
HETATM   14  O2  UNL     1      -1.816  20.635  17.334  1.00  0.00    -0.246 OA
ENDROOT
BRANCH   1  15
HETATM   15  C3  UNL     1      -5.729  20.777  16.867  1.00  0.00     0.166 C 
BRANCH  15  16
HETATM   16  C2  UNL     1      -6.670  20.614  15.699  1.00  0.00     0.257 C 
BRANCH  16  17
HETATM   17  N1  UNL     1      -7.941  20.062  16.030  1.00  0.00    -0.069 N 
HETATM   18  C1  UNL     1      -8.205  19.886  17.447  1.00  0.00     0.272 C 
HETATM   19  C13 UNL     1      -9.107  20.592  15.370  1.00  0.00     0.238 C 
HETATM   20  C14 UNL     1      -8.887  19.612  14.238  1.00  0.00     0.056 C 
HETATM   21  C15 UNL     1      -8.128  18.817  15.265  1.00  0.00     0.238 C 
ENDBRANCH  16  17
ENDBRANCH  15  16
ENDBRANCH   1  15
BRANCH   9  22
HETATM   22  N5  UNL     1      -1.940  16.135  16.476  1.00  0.00    -0.351 N 
HETATM   23  C7  UNL     1      -1.980  14.763  16.147  1.00  0.00     0.243 C 
HETATM   24  O1  UNL     1      -1.528  13.927  16.961  1.00  0.00    -0.272 OA
ATOM     25  H5  UNL     1      -2.312  16.808  15.806  1.00  0.00     0.163 HD
BRANCH  23  26
HETATM   26  C8  UNL     1      -2.545  14.307  14.861  1.00  0.00     0.332 C 
BRANCH  26  27
HETATM   27  N6  UNL     1      -2.205  12.911  14.630  1.00  0.00    -0.071 N 
ATOM     28  H63 UNL     1      -2.510  12.591  13.710  1.00  0.00     0.274 HD
ATOM     29  H62 UNL     1      -1.201  12.779  14.508  1.00  0.00     0.274 HD
ATOM     30  H61 UNL     1      -2.579  12.330  15.380  1.00  0.00     0.274 HD
ENDBRANCH  26  27
ENDBRANCH  23  26
ENDBRANCH   9  22
BRANCH  10  31
HETATM   31  C10 UNL     1       0.524  17.656  18.885  1.00  0.00     0.149 C 
BRANCH  31  32
HETATM   32  N7  UNL     1       1.886  18.089  18.631  1.00  0.00    -0.363 N 
HETATM   33  C11 UNL     1       2.273  19.371  19.100  1.00  0.00     0.181 C 
HETATM   34  N8  UNL     1       3.188  19.460  19.989  1.00  0.00    -0.374 N 
HETATM   35  N9  UNL     1       1.626  20.504  18.558  1.00  0.00    -0.064 NA
ATOM     36  H82 UNL     1       3.656  18.643  20.379  1.00  0.00     0.158 HD
ATOM     37  H81 UNL     1       3.467  20.382  20.326  1.00  0.00     0.158 HD
ATOM     38  H7  UNL     1       2.544  17.490  18.132  1.00  0.00     0.162 HD
ENDBRANCH  31  32
ENDBRANCH  10  31
TORSDOF 8
ENDMDL
MODEL 2
REMARK VINA RESULT: -6.227651222      2.153      7.629
REMARK  8 active torsions:
REMARK  status: ('A' for Active; 'I' for Inactive)
REMARK    1  A    between atoms: N1_2  and  C2_3 
REMARK    2  A    between atoms: C2_3  and  C3_4 
REMARK    3  A    between atoms: C3_4  and  N2_5 
REMARK       I    between atoms: N2_5  and  C4_7 
REMARK       I    between atoms: C4_7  and  N4_11 
REMARK    4  A    between atoms: C6_13  and  N5_14 
REMARK       I    between atoms: N5_14  and  C7_16 
REMARK    5  A    between atoms: C7_16  and  C8_18 
REMARK    6  A    between atoms: C8_18  and  N6_19 
REMARK    7  A    between atoms: C9_23  and  C10_24 
REMARK    8  A    between atoms: C10_24  and  N7_25 
REMARK       I    between atoms: N7_25  and  C11_27 
ROOT
HETATM    1  N2  UNL     1       0.089  20.950  18.101  1.00  0.00    -0.225 N 
ATOM      2  H2  UNL     1       0.141  21.037  17.086  1.00  0.00     0.177 HD
HETATM    3  C4  UNL     1      -0.927  20.139  18.659  1.00  0.00     0.678 C 
HETATM    4  N3  UNL     1      -1.446  20.427  19.828  1.00  0.00    -0.234 N 
ATOM      5  H31 UNL     1      -2.179  19.842  20.230  1.00  0.00     0.174 HD
ATOM      6  H32 UNL     1      -1.060  21.258  20.277  1.00  0.00     0.174 HD
HETATM    7  N4  UNL     1      -1.466  18.977  18.032  1.00  0.00    -0.131 N 
HETATM    8  C5  UNL     1      -2.511  18.200  18.670  1.00  0.00     0.179 C 
HETATM    9  C6  UNL     1      -3.611  18.001  17.648  1.00  0.00     0.128 C 
HETATM   10  C9  UNL     1      -3.138  17.320  16.411  1.00  0.00     0.128 C 
HETATM   11  N10 UNL     1      -1.940  17.929  15.879  1.00  0.00    -0.334 N 
ATOM     12  H10 UNL     1      -1.766  17.928  14.874  1.00  0.00     0.164 HD
HETATM   13  C12 UNL     1      -1.012  18.525  16.764  1.00  0.00     0.337 C 
HETATM   14  O2  UNL     1       0.206  18.672  16.475  1.00  0.00    -0.246 OA
ENDROOT
BRANCH   1  15
HETATM   15  C3  UNL     1       1.054  21.662  18.903  1.00  0.00     0.166 C 
BRANCH  15  16
HETATM   16  C2  UNL     1       2.440  21.077  18.785  1.00  0.00     0.257 C 
BRANCH  16  17
HETATM   17  N1  UNL     1       2.759  20.098  19.769  1.00  0.00    -0.069 N 
HETATM   18  C1  UNL     1       2.453  18.723  19.418  1.00  0.00     0.272 C 
HETATM   19  C13 UNL     1       4.047  20.171  20.410  1.00  0.00     0.238 C 
HETATM   20  C14 UNL     1       3.463  21.123  21.431  1.00  0.00     0.056 C 
HETATM   21  C15 UNL     1       2.149  20.499  21.049  1.00  0.00     0.238 C 
ENDBRANCH  16  17
ENDBRANCH  15  16
ENDBRANCH   1  15
BRANCH   9  22
HETATM   22  N5  UNL     1      -4.244  19.276  17.388  1.00  0.00    -0.351 N 
HETATM   23  C7  UNL     1      -5.621  19.503  17.599  1.00  0.00     0.243 C 
HETATM   24  O1  UNL     1      -6.334  18.569  18.029  1.00  0.00    -0.272 OA
ATOM     25  H5  UNL     1      -3.671  20.044  17.037  1.00  0.00     0.163 HD
BRANCH  23  26
HETATM   26  C8  UNL     1      -6.225  20.822  17.319  1.00  0.00     0.332 C 
BRANCH  26  27
HETATM   27  N6  UNL     1      -7.542  20.911  17.931  1.00  0.00    -0.071 N 
ATOM     28  H63 UNL     1      -8.289  20.771  17.251  1.00  0.00     0.274 HD
ATOM     29  H62 UNL     1      -7.737  20.111  18.533  1.00  0.00     0.274 HD
ATOM     30  H61 UNL     1      -7.639  21.796  18.428  1.00  0.00     0.274 HD
ENDBRANCH  26  27
ENDBRANCH  23  26
ENDBRANCH   9  22
BRANCH  10  31
HETATM   31  C10 UNL     1      -2.772  15.874  16.716  1.00  0.00     0.149 C 
BRANCH  31  32
HETATM   32  N7  UNL     1      -2.121  15.318  15.544  1.00  0.00    -0.363 N 
HETATM   33  C11 UNL     1      -1.907  13.916  15.505  1.00  0.00     0.181 C 
HETATM   34  N8  UNL     1      -2.493  13.219  14.607  1.00  0.00    -0.374 N 
HETATM   35  N9  UNL     1      -1.048  13.344  16.471  1.00  0.00    -0.064 NA
ATOM     36  H82 UNL     1      -3.113  13.632  13.910  1.00  0.00     0.158 HD
ATOM     37  H81 UNL     1      -2.340  12.211  14.580  1.00  0.00     0.158 HD
ATOM     38  H7  UNL     1      -1.826  15.916  14.772  1.00  0.00     0.162 HD
ENDBRANCH  31  32
ENDBRANCH  10  31
TORSDOF 8
ENDMDL
MODEL 3
REMARK VINA RESULT: -6.085463536      0.780      1.257
REMARK  8 active torsions:
REMARK  status: ('A' for Active; 'I' for Inactive)
REMARK    1  A    between atoms: N1_2  and  C2_3 
REMARK    2  A    between atoms: C2_3  and  C3_4 
REMARK    3  A    between atoms: C3_4  and  N2_5 
REMARK       I    between atoms: N2_5  and  C4_7 
REMARK       I    between atoms: C4_7  and  N4_11 
REMARK    4  A    between atoms: C6_13  and  N5_14 
REMARK       I    between atoms: N5_14  and  C7_16 
REMARK    5  A    between atoms: C7_16  and  C8_18 
REMARK    6  A    between atoms: C8_18  and  N6_19 
REMARK    7  A    between atoms: C9_23  and  C10_24 
REMARK    8  A    between atoms: C10_24  and  N7_25 
REMARK       I    between atoms: N7_25  and  C11_27 
ROOT
HETATM    1  N2  UNL     1      -4.173  20.008  16.687  1.00  0.00    -0.225 N 
ATOM      2  H2  UNL     1      -3.524  20.369  15.988  1.00  0.00     0.177 HD
HETATM    3  C4  UNL     1      -3.766  18.912  17.484  1.00  0.00     0.678 C 
HETATM    4  N3  UNL     1      -4.644  18.041  17.920  1.00  0.00    -0.234 N 
ATOM      5  H31 UNL     1      -4.350  17.251  18.494  1.00  0.00     0.174 HD
ATOM      6  H32 UNL     1      -5.608  18.225  17.641  1.00  0.00     0.174 HD
HETATM    7  N4  UNL     1      -2.419  18.655  17.874  1.00  0.00    -0.131 N 
HETATM    8  C5  UNL     1      -2.084  17.505  18.691  1.00  0.00     0.179 C 
HETATM    9  C6  UNL     1      -0.935  16.789  18.010  1.00  0.00     0.128 C 
HETATM   10  C9  UNL     1       0.259  17.658  17.821  1.00  0.00     0.128 C 
HETATM   11  N10 UNL     1      -0.082  18.929  17.224  1.00  0.00    -0.334 N 
ATOM     12  H10 UNL     1       0.584  19.407  16.617  1.00  0.00     0.164 HD
HETATM   13  C12 UNL     1      -1.347  19.504  17.489  1.00  0.00     0.337 C 
HETATM   14  O2  UNL     1      -1.564  20.742  17.398  1.00  0.00    -0.246 OA
ENDROOT
BRANCH   1  15
HETATM   15  C3  UNL     1      -5.464  20.638  16.819  1.00  0.00     0.166 C 
BRANCH  15  16
HETATM   16  C2  UNL     1      -6.543  19.892  16.074  1.00  0.00     0.257 C 
BRANCH  16  17
HETATM   17  N1  UNL     1      -7.861  20.089  16.579  1.00  0.00    -0.069 N 
HETATM   18  C1  UNL     1      -8.632  21.143  15.945  1.00  0.00     0.272 C 
HETATM   19  C13 UNL     1      -8.688  18.929  16.794  1.00  0.00     0.238 C 
HETATM   20  C14 UNL     1      -8.093  18.785  18.178  1.00  0.00     0.056 C 
HETATM   21  C15 UNL     1      -7.785  20.251  18.042  1.00  0.00     0.238 C 
ENDBRANCH  16  17
ENDBRANCH  15  16
ENDBRANCH   1  15
BRANCH   9  22
HETATM   22  N5  UNL     1      -1.415  16.204  16.777  1.00  0.00    -0.351 N 
HETATM   23  C7  UNL     1      -1.847  14.864  16.684  1.00  0.00     0.243 C 
HETATM   24  O1  UNL     1      -1.820  14.142  17.705  1.00  0.00    -0.272 OA
ATOM     25  H5  UNL     1      -1.441  16.785  15.938  1.00  0.00     0.163 HD
BRANCH  23  26
HETATM   26  C8  UNL     1      -2.328  14.309  15.402  1.00  0.00     0.332 C 
BRANCH  26  27
HETATM   27  N6  UNL     1      -1.460  13.225  14.968  1.00  0.00    -0.071 N 
ATOM     28  H63 UNL     1      -0.474  13.443  15.114  1.00  0.00     0.274 HD
ATOM     29  H62 UNL     1      -1.526  12.414  15.583  1.00  0.00     0.274 HD
ATOM     30  H61 UNL     1      -1.657  12.984  13.996  1.00  0.00     0.274 HD
ENDBRANCH  26  27
ENDBRANCH  23  26
ENDBRANCH   9  22
BRANCH  10  31
HETATM   31  C10 UNL     1       0.889  17.984  19.168  1.00  0.00     0.149 C 
BRANCH  31  32
HETATM   32  N7  UNL     1       2.286  18.311  18.944  1.00  0.00    -0.363 N 
HETATM   33  C11 UNL     1       2.720  19.624  19.263  1.00  0.00     0.181 C 
HETATM   34  N8  UNL     1       3.588  19.787  20.188  1.00  0.00    -0.374 N 
HETATM   35  N9  UNL     1       2.168  20.705  18.539  1.00  0.00    -0.064 NA
ATOM     36  H82 UNL     1       3.986  19.007  20.710  1.00  0.00     0.158 HD
ATOM     37  H81 UNL     1       3.900  20.730  20.417  1.00  0.00     0.158 HD
ATOM     38  H7  UNL     1       2.935  17.620  18.569  1.00  0.00     0.162 HD
ENDBRANCH  31  32
ENDBRANCH  10  31
TORSDOF 8
ENDMDL
MODEL 4
REMARK VINA RESULT: -6.041625459      2.301      7.921
REMARK  8 active torsions:
REMARK  status: ('A' for Active; 'I' for Inactive)
REMARK    1  A    between atoms: N1_2  and  C2_3 
REMARK    2  A    between atoms: C2_3  and  C3_4 
REMARK    3  A    between atoms: C3_4  and  N2_5 
REMARK       I    between atoms: N2_5  and  C4_7 
REMARK       I    between atoms: C4_7  and  N4_11 
REMARK    4  A    between atoms: C6_13  and  N5_14 
REMARK       I    between atoms: N5_14  and  C7_16 
REMARK    5  A    between atoms: C7_16  and  C8_18 
REMARK    6  A    between atoms: C8_18  and  N6_19 
REMARK    7  A    between atoms: C9_23  and  C10_24 
REMARK    8  A    between atoms: C10_24  and  N7_25 
REMARK       I    between atoms: N7_25  and  C11_27 
ROOT
HETATM    1  N2  UNL     1       0.257  20.763  18.155  1.00  0.00    -0.225 N 
ATOM      2  H2  UNL     1       0.331  20.858  17.142  1.00  0.00     0.177 HD
HETATM    3  C4  UNL     1      -0.812  20.003  18.686  1.00  0.00     0.678 C 
HETATM    4  N3  UNL     1      -1.334  20.306  19.850  1.00  0.00    -0.234 N 
ATOM      5  H31 UNL     1      -2.105  19.758  20.232  1.00  0.00     0.174 HD
ATOM      6  H32 UNL     1      -0.910  21.109  20.315  1.00  0.00     0.174 HD
HETATM    7  N4  UNL     1      -1.404  18.880  18.035  1.00  0.00    -0.131 N 
HETATM    8  C5  UNL     1      -2.501  18.155  18.647  1.00  0.00     0.179 C 
HETATM    9  C6  UNL     1      -3.593  18.030  17.604  1.00  0.00     0.128 C 
HETATM   10  C9  UNL     1      -3.137  17.338  16.367  1.00  0.00     0.128 C 
HETATM   11  N10 UNL     1      -1.898  17.885  15.862  1.00  0.00    -0.334 N 
ATOM     12  H10 UNL     1      -1.708  17.886  14.860  1.00  0.00     0.164 HD
HETATM   13  C12 UNL     1      -0.954  18.418  16.770  1.00  0.00     0.337 C 
HETATM   14  O2  UNL     1       0.275  18.500  16.503  1.00  0.00    -0.246 OA
ENDROOT
BRANCH   1  15
HETATM   15  C3  UNL     1       1.246  21.410  18.981  1.00  0.00     0.166 C 
BRANCH  15  16
HETATM   16  C2  UNL     1       2.645  21.235  18.443  1.00  0.00     0.257 C 
BRANCH  16  17
HETATM   17  N1  UNL     1       3.676  21.330  19.422  1.00  0.00    -0.069 N 
HETATM   18  C1  UNL     1       3.830  20.178  20.292  1.00  0.00     0.272 C 
HETATM   19  C13 UNL     1       4.968  21.815  19.006  1.00  0.00     0.238 C 
HETATM   20  C14 UNL     1       4.494  23.230  19.253  1.00  0.00     0.056 C 
HETATM   21  C15 UNL     1       3.498  22.583  20.175  1.00  0.00     0.238 C 
ENDBRANCH  16  17
ENDBRANCH  15  16
ENDBRANCH   1  15
BRANCH   9  22
HETATM   22  N5  UNL     1      -4.150  19.341  17.350  1.00  0.00    -0.351 N 
HETATM   23  C7  UNL     1      -5.509  19.650  17.569  1.00  0.00     0.243 C 
HETATM   24  O1  UNL     1      -6.275  18.760  18.002  1.00  0.00    -0.272 OA
ATOM     25  H5  UNL     1      -3.534  20.073  16.997  1.00  0.00     0.163 HD
BRANCH  23  26
HETATM   26  C8  UNL     1      -6.034  21.003  17.294  1.00  0.00     0.332 C 
BRANCH  26  27
HETATM   27  N6  UNL     1      -7.421  21.100  17.724  1.00  0.00    -0.071 N 
ATOM     28  H63 UNL     1      -8.069  21.037  16.938  1.00  0.00     0.274 HD
ATOM     29  H62 UNL     1      -7.721  20.269  18.233  1.00  0.00     0.274 HD
ATOM     30  H61 UNL     1      -7.562  21.952  18.267  1.00  0.00     0.274 HD
ENDBRANCH  26  27
ENDBRANCH  23  26
ENDBRANCH   9  22
BRANCH  10  31
HETATM   31  C10 UNL     1      -2.858  15.870  16.660  1.00  0.00     0.149 C 
BRANCH  31  32
HETATM   32  N7  UNL     1      -2.162  15.308  15.517  1.00  0.00    -0.363 N 
HETATM   33  C11 UNL     1      -1.918  13.910  15.510  1.00  0.00     0.181 C 
HETATM   34  N8  UNL     1      -2.463  13.185  14.609  1.00  0.00    -0.374 N 
HETATM   35  N9  UNL     1      -1.074  13.374  16.509  1.00  0.00    -0.064 NA
ATOM     36  H82 UNL     1      -3.072  13.572  13.887  1.00  0.00     0.158 HD
ATOM     37  H81 UNL     1      -2.288  12.180  14.604  1.00  0.00     0.158 HD
ATOM     38  H7  UNL     1      -1.859  15.898  14.742  1.00  0.00     0.162 HD
ENDBRANCH  31  32
ENDBRANCH  10  31
TORSDOF 8
ENDMDL
MODEL 5
REMARK VINA RESULT: -6.009827997      1.424      2.011
REMARK  8 active torsions:
REMARK  status: ('A' for Active; 'I' for Inactive)
REMARK    1  A    between atoms: N1_2  and  C2_3 
REMARK    2  A    between atoms: C2_3  and  C3_4 
REMARK    3  A    between atoms: C3_4  and  N2_5 
REMARK       I    between atoms: N2_5  and  C4_7 
REMARK       I    between atoms: C4_7  and  N4_11 
REMARK    4  A    between atoms: C6_13  and  N5_14 
REMARK       I    between atoms: N5_14  and  C7_16 
REMARK    5  A    between atoms: C7_16  and  C8_18 
REMARK    6  A    between atoms: C8_18  and  N6_19 
REMARK    7  A    between atoms: C9_23  and  C10_24 
REMARK    8  A    between atoms: C10_24  and  N7_25 
REMARK       I    between atoms: N7_25  and  C11_27 
ROOT
HETATM    1  N2  UNL     1      -4.998  20.294  15.711  1.00  0.00    -0.225 N 
ATOM      2  H2  UNL     1      -4.377  20.511  14.932  1.00  0.00     0.177 HD
HETATM    3  C4  UNL     1      -4.611  19.283  16.622  1.00  0.00     0.678 C 
HETATM    4  N3  UNL     1      -5.513  18.544  17.223  1.00  0.00    -0.234 N 
ATOM      5  H31 UNL     1      -5.234  17.815  17.879  1.00  0.00     0.174 HD
ATOM      6  H32 UNL     1      -6.479  18.764  16.980  1.00  0.00     0.174 HD
HETATM    7  N4  UNL     1      -3.260  18.976  16.961  1.00  0.00    -0.131 N 
HETATM    8  C5  UNL     1      -2.948  17.920  17.903  1.00  0.00     0.179 C 
HETATM    9  C6  UNL     1      -1.900  17.037  17.256  1.00  0.00     0.128 C 
HETATM   10  C9  UNL     1      -0.667  17.780  16.880  1.00  0.00     0.128 C 
HETATM   11  N10 UNL     1      -0.962  18.986  16.140  1.00  0.00    -0.334 N 
ATOM     12  H10 UNL     1      -0.309  19.330  15.435  1.00  0.00     0.164 HD
HETATM   13  C12 UNL     1      -2.164  19.684  16.402  1.00  0.00     0.337 C 
HETATM   14  O2  UNL     1      -2.303  20.913  16.158  1.00  0.00    -0.246 OA
ENDROOT
BRANCH   1  15
HETATM   15  C3  UNL     1      -6.231  21.032  15.835  1.00  0.00     0.166 C 
BRANCH  15  16
HETATM   16  C2  UNL     1      -7.010  21.066  14.542  1.00  0.00     0.257 C 
BRANCH  16  17
HETATM   17  N1  UNL     1      -8.396  20.765  14.674  1.00  0.00    -0.069 N 
HETATM   18  C1  UNL     1      -9.297  21.903  14.647  1.00  0.00     0.272 C 
HETATM   19  C13 UNL     1      -8.936  19.686  13.886  1.00  0.00     0.238 C 
HETATM   20  C14 UNL     1      -8.540  18.716  14.979  1.00  0.00     0.056 C 
HETATM   21  C15 UNL     1      -8.585  19.927  15.871  1.00  0.00     0.238 C 
ENDBRANCH  16  17
ENDBRANCH  15  16
ENDBRANCH   1  15
BRANCH   9  22
HETATM   22  N5  UNL     1      -2.502  16.335  16.143  1.00  0.00    -0.351 N 
HETATM   23  C7  UNL     1      -2.208  14.989  15.839  1.00  0.00     0.243 C 
HETATM   24  O1  UNL     1      -1.393  14.365  16.555  1.00  0.00    -0.272 OA
ATOM     25  H5  UNL     1      -3.168  16.834  15.553  1.00  0.00     0.163 HD
BRANCH  23  26
HETATM   26  C8  UNL     1      -2.847  14.313  14.691  1.00  0.00     0.332 C 
BRANCH  26  27
HETATM   27  N6  UNL     1      -2.300  12.974  14.530  1.00  0.00    -0.071 N 
ATOM     28  H63 UNL     1      -1.308  12.993  14.295  1.00  0.00     0.274 HD
ATOM     29  H62 UNL     1      -2.234  12.480  15.420  1.00  0.00     0.274 HD
ATOM     30  H61 UNL     1      -2.845  12.453  13.843  1.00  0.00     0.274 HD
ENDBRANCH  26  27
ENDBRANCH  23  26
ENDBRANCH   9  22
BRANCH  10  31
HETATM   31  C10 UNL     1       0.077  18.229  18.130  1.00  0.00     0.149 C 
BRANCH  31  32
HETATM   32  N7  UNL     1       0.874  17.113  18.606  1.00  0.00    -0.363 N 
HETATM   33  C11 UNL     1       0.230  16.129  19.401  1.00  0.00     0.181 C 
HETATM   34  N8  UNL     1       0.144  14.931  18.961  1.00  0.00    -0.374 N 
HETATM   35  N9  UNL     1      -0.292  16.518  20.654  1.00  0.00    -0.064 NA
ATOM     36  H82 UNL     1       0.521  14.650  18.056  1.00  0.00     0.158 HD
ATOM     37  H81 UNL     1      -0.319  14.223  19.532  1.00  0.00     0.158 HD
ATOM     38  H7  UNL     1       1.865  17.038  18.377  1.00  0.00     0.162 HD
ENDBRANCH  31  32
ENDBRANCH  10  31
TORSDOF 8
ENDMDL
