MODEL 1
REMARK VINA RESULT: -4.821269987      0.000      0.000
REMARK  1 active torsions:
REMARK  status: ('A' for Active; 'I' for Inactive)
REMARK    1  A    between atoms: C2_3  and  N2_4 
ROOT
HETATM    1  N1  UNL     1      53.322  31.167  19.344  1.00  0.00    -0.195 NA
HETATM    2  C1  UNL     1      54.094  30.540  19.936  1.00  0.00     0.098 C 
HETATM    3  C2  UNL     1      55.080  29.752  20.693  1.00  0.00     0.210 C 
HETATM    4  C3  UNL     1      56.161  30.599  21.264  1.00  0.00     0.054 C 
HETATM    5  C4  UNL     1      57.467  29.891  20.938  1.00  0.00     0.004 C 
HETATM    6  C5  UNL     1      57.117  29.277  19.579  1.00  0.00     0.004 C 
HETATM    7  C6  UNL     1      55.744  28.726  19.788  1.00  0.00     0.054 C 
ENDROOT
BRANCH   3   8
HETATM    8  N2  UNL     1      54.338  29.004  21.684  1.00  0.00    -0.057 N 
ATOM      9  H23 UNL     1      54.089  29.556  22.505  1.00  0.00     0.276 HD
ATOM     10  H22 UNL     1      53.387  28.777  21.391  1.00  0.00     0.276 HD
ATOM     11  H21 UNL     1      54.897  28.180  21.907  1.00  0.00     0.276 HD
ENDBRANCH   3   8
TORSDOF 1
ENDMDL
MODEL 2
REMARK VINA RESULT: -4.497262066      1.645      2.074
REMARK  1 active torsions:
REMARK  status: ('A' for Active; 'I' for Inactive)
REMARK    1  A    between atoms: C2_3  and  N2_4 
ROOT
HETATM    1  N1  UNL     1      53.512  30.223  19.430  1.00  0.00    -0.195 NA
HETATM    2  C1  UNL     1      54.478  29.944  20.002  1.00  0.00     0.098 C 
HETATM    3  C2  UNL     1      55.713  29.586  20.719  1.00  0.00     0.210 C 
HETATM    4  C3  UNL     1      56.630  28.761  19.888  1.00  0.00     0.054 C 
HETATM    5  C4  UNL     1      57.076  27.607  20.772  1.00  0.00     0.004 C 
HETATM    6  C5  UNL     1      55.808  27.390  21.605  1.00  0.00     0.004 C 
HETATM    7  C6  UNL     1      55.385  28.777  21.964  1.00  0.00     0.054 C 
ENDROOT
BRANCH   3   8
HETATM    8  N2  UNL     1      56.298  30.827  21.180  1.00  0.00    -0.057 N 
ATOM      9  H23 UNL     1      57.305  30.767  21.331  1.00  0.00     0.276 HD
ATOM     10  H22 UNL     1      56.320  31.553  20.464  1.00  0.00     0.276 HD
ATOM     11  H21 UNL     1      55.781  31.100  22.015  1.00  0.00     0.276 HD
ENDBRANCH   3   8
TORSDOF 1
ENDMDL
MODEL 3
REMARK VINA RESULT: -4.226248347      0.934      2.461
REMARK  1 active torsions:
REMARK  status: ('A' for Active; 'I' for Inactive)
REMARK    1  A    between atoms: C2_3  and  N2_4 
ROOT
HETATM    1  N1  UNL     1      54.157  28.016  22.508  1.00  0.00    -0.195 NA
HETATM    2  C1  UNL     1      54.639  28.674  21.687  1.00  0.00     0.098 C 
HETATM    3  C2  UNL     1      55.255  29.500  20.637  1.00  0.00     0.210 C 
HETATM    4  C3  UNL     1      56.056  28.693  19.679  1.00  0.00     0.054 C 
HETATM    5  C4  UNL     1      57.378  29.428  19.511  1.00  0.00     0.004 C 
HETATM    6  C5  UNL     1      57.553  30.008  20.918  1.00  0.00     0.004 C 
HETATM    7  C6  UNL     1      56.193  30.527  21.254  1.00  0.00     0.054 C 
ENDROOT
BRANCH   3   8
HETATM    8  N2  UNL     1      54.182  30.248  20.017  1.00  0.00    -0.057 N 
ATOM      9  H23 UNL     1      53.429  29.657  19.665  1.00  0.00     0.276 HD
ATOM     10  H22 UNL     1      53.624  30.781  20.684  1.00  0.00     0.276 HD
ATOM     11  H21 UNL     1      54.610  30.827  19.295  1.00  0.00     0.276 HD
ENDBRANCH   3   8
TORSDOF 1
ENDMDL
MODEL 4
REMARK VINA RESULT: -4.077437349      2.183      2.566
REMARK  1 active torsions:
REMARK  status: ('A' for Active; 'I' for Inactive)
REMARK    1  A    between atoms: C2_3  and  N2_4 
ROOT
HETATM    1  N1  UNL     1      53.830  27.790  22.368  1.00  0.00    -0.195 NA
HETATM    2  C1  UNL     1      54.930  28.011  22.084  1.00  0.00     0.098 C 
HETATM    3  C2  UNL     1      56.327  28.304  21.725  1.00  0.00     0.210 C 
HETATM    4  C3  UNL     1      56.557  29.752  21.482  1.00  0.00     0.054 C 
HETATM    5  C4  UNL     1      57.350  29.841  20.187  1.00  0.00     0.004 C 
HETATM    6  C5  UNL     1      56.766  28.650  19.422  1.00  0.00     0.004 C 
HETATM    7  C6  UNL     1      56.711  27.567  20.451  1.00  0.00     0.054 C 
ENDROOT
BRANCH   3   8
HETATM    8  N2  UNL     1      57.149  27.750  22.780  1.00  0.00    -0.057 N 
ATOM      9  H23 UNL     1      57.068  28.255  23.662  1.00  0.00     0.276 HD
ATOM     10  H22 UNL     1      56.816  26.847  23.120  1.00  0.00     0.276 HD
ATOM     11  H21 UNL     1      58.103  27.718  22.420  1.00  0.00     0.276 HD
ENDBRANCH   3   8
TORSDOF 1
ENDMDL
MODEL 5
REMARK VINA RESULT: -4.046190824      2.056      3.136
REMARK  1 active torsions:
REMARK  status: ('A' for Active; 'I' for Inactive)
REMARK    1  A    between atoms: C2_3  and  N2_4 
ROOT
HETATM    1  N1  UNL     1      57.018  27.572  20.138  1.00  0.00    -0.195 NA
HETATM    2  C1  UNL     1      56.563  28.603  20.402  1.00  0.00     0.098 C 
HETATM    3  C2  UNL     1      55.974  29.908  20.742  1.00  0.00     0.210 C 
HETATM    4  C3  UNL     1      54.572  29.789  21.221  1.00  0.00     0.054 C 
HETATM    5  C4  UNL     1      53.780  30.851  20.474  1.00  0.00     0.004 C 
HETATM    6  C5  UNL     1      54.515  30.851  19.130  1.00  0.00     0.004 C 
HETATM    7  C6  UNL     1      55.957  30.815  19.521  1.00  0.00     0.054 C 
ENDROOT
BRANCH   3   8
HETATM    8  N2  UNL     1      56.868  30.527  21.698  1.00  0.00    -0.057 N 
ATOM      9  H23 UNL     1      57.668  29.942  21.940  1.00  0.00     0.276 HD
ATOM     10  H22 UNL     1      57.395  31.309  21.309  1.00  0.00     0.276 HD
ATOM     11  H21 UNL     1      56.299  30.786  22.504  1.00  0.00     0.276 HD
ENDBRANCH   3   8
TORSDOF 1
ENDMDL
