MODEL 1
REMARK VINA RESULT: -9.154827472      0.000      0.000
REMARK  3 active torsions:
REMARK  status: ('A' for Active; 'I' for Inactive)
REMARK    1  A    between atoms: C2_2  and  S1_4 
REMARK    2  A    between atoms: S1_4  and  C3_5 
REMARK    3  A    between atoms: C3_5  and  C5_7 
ROOT
HETATM    1  C5  UNL     1      13.390  -6.851  24.626  1.00  0.00     0.069 C 
HETATM    2  C6  UNL     1      12.961  -7.828  25.679  1.00  0.00     0.014 C 
HETATM    3  C7  UNL     1      11.509  -7.840  25.967  1.00  0.00     0.011 C 
HETATM    4  C8  UNL     1      10.601  -7.667  24.760  1.00  0.00    -0.033 C 
HETATM    5  C9  UNL     1      10.098  -6.255  24.799  1.00  0.00     0.016 C 
HETATM    6  C10 UNL     1       9.434  -8.610  24.982  1.00  0.00     0.012 C 
HETATM    7  C11 UNL     1       9.188  -9.510  23.790  1.00  0.00     0.034 C 
HETATM    8  C12 UNL     1       9.214  -8.606  22.578  1.00  0.00     0.141 C 
HETATM    9  O2  UNL     1       8.547  -9.190  21.482  1.00  0.00    -0.315 OA
HETATM   10  C13 UNL     1       9.127 -10.059  20.612  1.00  0.00     0.259 C 
HETATM   11  O3  UNL     1       8.444 -10.874  19.971  1.00  0.00    -0.265 OA
HETATM   12  C14 UNL     1      10.593 -10.017  20.442  1.00  0.00     0.112 C 
HETATM   13  C15 UNL     1      11.318  -9.509  21.628  1.00  0.00     0.022 C 
HETATM   14  C16 UNL     1      10.678  -8.290  22.297  1.00  0.00    -0.006 C 
HETATM   15  C17 UNL     1      10.677  -7.210  21.246  1.00  0.00     0.019 C 
HETATM   16  C18 UNL     1      11.417  -8.000  23.540  1.00  0.00     0.074 C 
HETATM   17  C19 UNL     1      12.486  -6.978  23.453  1.00  0.00     0.138 C 
HETATM   18  O4  UNL     1      12.688  -6.242  22.514  1.00  0.00    -0.297 OA
ENDROOT
BRANCH   1  19
HETATM   19  C3  UNL     1      14.834  -7.064  24.267  1.00  0.00     0.062 C 
HETATM   20  C4  UNL     1      15.722  -7.178  25.479  1.00  0.00     0.022 C 
BRANCH  19  21
HETATM   21  S1  UNL     1      15.080  -8.480  23.185  1.00  0.00    -0.088 SA
BRANCH  21  22
HETATM   22  C2  UNL     1      16.559  -8.309  22.197  1.00  0.00     0.182 C 
HETATM   23  C1  UNL     1      17.203  -9.393  21.438  1.00  0.00     0.104 C 
HETATM   24  O1  UNL     1      17.103  -7.198  22.130  1.00  0.00    -0.286 OA
ENDBRANCH  21  22
ENDBRANCH  19  21
ENDBRANCH   1  19
TORSDOF 3
ENDMDL
MODEL 2
REMARK VINA RESULT: -8.995385924      2.904      5.173
REMARK  3 active torsions:
REMARK  status: ('A' for Active; 'I' for Inactive)
REMARK    1  A    between atoms: C2_2  and  S1_4 
REMARK    2  A    between atoms: S1_4  and  C3_5 
REMARK    3  A    between atoms: C3_5  and  C5_7 
ROOT
HETATM    1  C5  UNL     1      10.936  -6.443  25.293  1.00  0.00     0.069 C 
HETATM    2  C6  UNL     1      10.602  -5.319  24.361  1.00  0.00     0.014 C 
HETATM    3  C7  UNL     1      11.270  -5.381  23.041  1.00  0.00     0.011 C 
HETATM    4  C8  UNL     1      11.404  -6.772  22.441  1.00  0.00    -0.033 C 
HETATM    5  C9  UNL     1      12.832  -7.187  22.634  1.00  0.00     0.016 C 
HETATM    6  C10 UNL     1      11.136  -6.611  20.957  1.00  0.00     0.012 C 
HETATM    7  C11 UNL     1      10.087  -7.579  20.454  1.00  0.00     0.034 C 
HETATM    8  C12 UNL     1      10.470  -8.930  21.014  1.00  0.00     0.141 C 
HETATM    9  O2  UNL     1       9.892  -9.980  20.272  1.00  0.00    -0.315 OA
HETATM   10  C13 UNL     1       8.637 -10.460  20.480  1.00  0.00     0.259 C 
HETATM   11  O3  UNL     1       8.012 -11.030  19.572  1.00  0.00    -0.265 OA
HETATM   12  C14 UNL     1       8.027 -10.290  21.815  1.00  0.00     0.112 C 
HETATM   13  C15 UNL     1       8.544  -9.123  22.564  1.00  0.00     0.022 C 
HETATM   14  C16 UNL     1      10.062  -8.930  22.482  1.00  0.00    -0.006 C 
HETATM   15  C17 UNL     1      10.658 -10.177  23.081  1.00  0.00     0.019 C 
HETATM   16  C18 UNL     1      10.403  -7.654  23.139  1.00  0.00     0.074 C 
HETATM   17  C19 UNL     1      10.821  -7.730  24.558  1.00  0.00     0.138 C 
HETATM   18  O4  UNL     1      11.076  -8.743  25.168  1.00  0.00    -0.297 OA
ENDROOT
BRANCH   1  19
HETATM   19  C3  UNL     1      10.055  -6.396  26.512  1.00  0.00     0.062 C 
HETATM   20  C4  UNL     1       8.931  -7.398  26.453  1.00  0.00     0.022 C 
BRANCH  19  21
HETATM   21  S1  UNL     1      10.976  -6.590  28.043  1.00  0.00    -0.088 SA
BRANCH  21  22
HETATM   22  C2  UNL     1       9.891  -6.808  29.446  1.00  0.00     0.182 C 
HETATM   23  C1  UNL     1       9.421  -5.731  30.331  1.00  0.00     0.104 C 
HETATM   24  O1  UNL     1       9.491  -7.950  29.714  1.00  0.00    -0.286 OA
ENDBRANCH  21  22
ENDBRANCH  19  21
ENDBRANCH   1  19
TORSDOF 3
ENDMDL
MODEL 3
REMARK VINA RESULT: -8.810535770      3.300      5.510
REMARK  3 active torsions:
REMARK  status: ('A' for Active; 'I' for Inactive)
REMARK    1  A    between atoms: C2_2  and  S1_4 
REMARK    2  A    between atoms: S1_4  and  C3_5 
REMARK    3  A    between atoms: C3_5  and  C5_7 
ROOT
HETATM    1  C5  UNL     1      12.020  -5.719  22.582  1.00  0.00     0.069 C 
HETATM    2  C6  UNL     1      10.824  -6.147  21.788  1.00  0.00     0.014 C 
HETATM    3  C7  UNL     1      10.607  -7.610  21.723  1.00  0.00     0.011 C 
HETATM    4  C8  UNL     1      10.907  -8.374  23.003  1.00  0.00    -0.033 C 
HETATM    5  C9  UNL     1      12.227  -9.056  22.797  1.00  0.00     0.016 C 
HETATM    6  C10 UNL     1       9.823  -9.428  23.121  1.00  0.00     0.012 C 
HETATM    7  C11 UNL     1       9.142  -9.403  24.473  1.00  0.00     0.034 C 
HETATM    8  C12 UNL     1      10.256  -9.341  25.494  1.00  0.00     0.141 C 
HETATM    9  O2  UNL     1       9.821  -9.784  26.760  1.00  0.00    -0.315 OA
HETATM   10  C13 UNL     1       9.196  -8.992  27.671  1.00  0.00     0.259 C 
HETATM   11  O3  UNL     1       8.450  -9.477  28.535  1.00  0.00    -0.265 OA
HETATM   12  C14 UNL     1       9.423  -7.533  27.614  1.00  0.00     0.112 C 
HETATM   13  C15 UNL     1       9.771  -7.035  26.264  1.00  0.00     0.022 C 
HETATM   14  C16 UNL     1      10.770  -7.907  25.497  1.00  0.00    -0.006 C 
HETATM   15  C17 UNL     1      12.022  -7.916  26.336  1.00  0.00     0.019 C 
HETATM   16  C18 UNL     1      10.896  -7.374  24.129  1.00  0.00     0.074 C 
HETATM   17  C19 UNL     1      12.022  -6.444  23.880  1.00  0.00     0.138 C 
HETATM   18  O4  UNL     1      12.939  -6.223  24.638  1.00  0.00    -0.297 OA
ENDROOT
BRANCH   1  19
HETATM   19  C3  UNL     1      12.030  -4.226  22.756  1.00  0.00     0.062 C 
HETATM   20  C4  UNL     1      11.800  -3.490  21.462  1.00  0.00     0.022 C 
BRANCH  19  21
HETATM   21  S1  UNL     1      10.864  -3.663  24.003  1.00  0.00    -0.088 SA
BRANCH  21  22
HETATM   22  C2  UNL     1      11.374  -2.116  24.737  1.00  0.00     0.182 C 
HETATM   23  C1  UNL     1      12.761  -1.632  24.823  1.00  0.00     0.104 C 
HETATM   24  O1  UNL     1      10.506  -1.374  25.221  1.00  0.00    -0.286 OA
ENDBRANCH  21  22
ENDBRANCH  19  21
ENDBRANCH   1  19
TORSDOF 3
ENDMDL
MODEL 4
REMARK VINA RESULT: -8.720951875      2.661      6.114
REMARK  3 active torsions:
REMARK  status: ('A' for Active; 'I' for Inactive)
REMARK    1  A    between atoms: C2_2  and  S1_4 
REMARK    2  A    between atoms: S1_4  and  C3_5 
REMARK    3  A    between atoms: C3_5  and  C5_7 
ROOT
HETATM    1  C5  UNL     1      10.992  -8.658  23.140  1.00  0.00     0.069 C 
HETATM    2  C6  UNL     1       9.615  -8.674  23.731  1.00  0.00     0.014 C 
HETATM    3  C7  UNL     1       9.547  -8.329  25.169  1.00  0.00     0.011 C 
HETATM    4  C8  UNL     1      10.490  -7.226  25.622  1.00  0.00    -0.033 C 
HETATM    5  C9  UNL     1      11.623  -7.897  26.341  1.00  0.00     0.016 C 
HETATM    6  C10 UNL     1       9.705  -6.390  26.615  1.00  0.00     0.012 C 
HETATM    7  C11 UNL     1       9.739  -4.915  26.279  1.00  0.00     0.034 C 
HETATM    8  C12 UNL     1      11.188  -4.591  25.992  1.00  0.00     0.141 C 
HETATM    9  O2  UNL     1      11.447  -3.212  26.131  1.00  0.00    -0.315 OA
HETATM   10  C13 UNL     1      11.243  -2.295  25.149  1.00  0.00     0.259 C 
HETATM   11  O3  UNL     1      11.044  -1.100  25.420  1.00  0.00    -0.265 OA
HETATM   12  C14 UNL     1      11.262  -2.749  23.743  1.00  0.00     0.112 C 
HETATM   13  C15 UNL     1      10.883  -4.169  23.568  1.00  0.00     0.022 C 
HETATM   14  C16 UNL     1      11.491  -5.126  24.598  1.00  0.00    -0.006 C 
HETATM   15  C17 UNL     1      12.983  -5.010  24.422  1.00  0.00     0.019 C 
HETATM   16  C18 UNL     1      10.904  -6.463  24.392  1.00  0.00     0.074 C 
HETATM   17  C19 UNL     1      11.678  -7.404  23.549  1.00  0.00     0.138 C 
HETATM   18  O4  UNL     1      12.814  -7.242  23.166  1.00  0.00    -0.297 OA
ENDROOT
BRANCH   1  19
HETATM   19  C3  UNL     1      10.926  -8.817  21.646  1.00  0.00     0.062 C 
HETATM   20  C4  UNL     1      11.455 -10.149  21.182  1.00  0.00     0.022 C 
BRANCH  19  21
HETATM   21  S1  UNL     1       9.274  -8.545  20.990  1.00  0.00    -0.088 SA
BRANCH  21  22
HETATM   22  C2  UNL     1       8.403 -10.084  20.730  1.00  0.00     0.182 C 
HETATM   23  C1  UNL     1       7.423 -10.672  21.657  1.00  0.00     0.104 C 
HETATM   24  O1  UNL     1       8.627 -10.724  19.693  1.00  0.00    -0.286 OA
ENDBRANCH  21  22
ENDBRANCH  19  21
ENDBRANCH   1  19
TORSDOF 3
ENDMDL
MODEL 5
REMARK VINA RESULT: -8.713972998      2.999      4.960
REMARK  3 active torsions:
REMARK  status: ('A' for Active; 'I' for Inactive)
REMARK    1  A    between atoms: C2_2  and  S1_4 
REMARK    2  A    between atoms: S1_4  and  C3_5 
REMARK    3  A    between atoms: C3_5  and  C5_7 
ROOT
HETATM    1  C5  UNL     1      11.067  -6.073  25.021  1.00  0.00     0.069 C 
HETATM    2  C6  UNL     1      10.763  -5.027  23.993  1.00  0.00     0.014 C 
HETATM    3  C7  UNL     1      11.424  -5.225  22.683  1.00  0.00     0.011 C 
HETATM    4  C8  UNL     1      11.517  -6.667  22.209  1.00  0.00    -0.033 C 
HETATM    5  C9  UNL     1      12.934  -7.104  22.438  1.00  0.00     0.016 C 
HETATM    6  C10 UNL     1      11.249  -6.631  20.717  1.00  0.00     0.012 C 
HETATM    7  C11 UNL     1      10.171  -7.610  20.303  1.00  0.00     0.034 C 
HETATM    8  C12 UNL     1      10.518  -8.916  20.981  1.00  0.00     0.141 C 
HETATM    9  O2  UNL     1       9.908 -10.011  20.335  1.00  0.00    -0.315 OA
HETATM   10  C13 UNL     1       8.641 -10.434  20.586  1.00  0.00     0.259 C 
HETATM   11  O3  UNL     1       7.997 -11.065  19.733  1.00  0.00    -0.265 OA
HETATM   12  C14 UNL     1       8.040 -10.129  21.900  1.00  0.00     0.112 C 
HETATM   13  C15 UNL     1       8.592  -8.915  22.542  1.00  0.00     0.022 C 
HETATM   14  C16 UNL     1      10.114  -8.774  22.442  1.00  0.00    -0.006 C 
HETATM   15  C17 UNL     1      10.677  -9.979  23.150  1.00  0.00     0.019 C 
HETATM   16  C18 UNL     1      10.494  -7.455  22.983  1.00  0.00     0.074 C 
HETATM   17  C19 UNL     1      10.914  -7.416  24.403  1.00  0.00     0.138 C 
HETATM   18  O4  UNL     1      11.141  -8.378  25.101  1.00  0.00    -0.297 OA
ENDROOT
BRANCH   1  19
HETATM   19  C3  UNL     1      10.192  -5.893  26.231  1.00  0.00     0.062 C 
HETATM   20  C4  UNL     1      10.951  -6.050  27.523  1.00  0.00     0.022 C 
BRANCH  19  21
HETATM   21  S1  UNL     1       9.306  -4.328  26.221  1.00  0.00    -0.088 SA
BRANCH  21  22
HETATM   22  C2  UNL     1      10.170  -3.071  27.152  1.00  0.00     0.182 C 
HETATM   23  C1  UNL     1      11.501  -2.537  26.825  1.00  0.00     0.104 C 
HETATM   24  O1  UNL     1       9.623  -2.597  28.158  1.00  0.00    -0.286 OA
ENDBRANCH  21  22
ENDBRANCH  19  21
ENDBRANCH   1  19
TORSDOF 3
ENDMDL
