MODEL 1
REMARK VINA RESULT: -8.344175859      0.000      0.000
REMARK  6 active torsions:
REMARK  status: ('A' for Active; 'I' for Inactive)
REMARK    1  A    between atoms: C5_5  and  C6_6 
REMARK    2  A    between atoms: C6_6  and  N1_7 
REMARK    3  A    between atoms: C9_10  and  N2_11 
REMARK    4  A    between atoms: C17_19  and  N3_20 
REMARK    5  A    between atoms: C22_26  and  N4_27 
REMARK       I    between atoms: N4_27  and  C23_29 
REMARK       I    between atoms: C23_29  and  N5_31 
REMARK    6  A    between atoms: N5_31  and  C24_33 
ROOT
HETATM    1  C1  UNL     1      13.607  48.293  61.246  1.00  0.00     0.051 C 
HETATM    2  C2  UNL     1      14.197  48.674  62.567  1.00  0.00    -0.024 A 
HETATM    3  C3  UNL     1      13.657  48.208  63.733  1.00  0.00    -0.022 A 
HETATM    4  C4  UNL     1      14.166  48.533  64.966  1.00  0.00     0.048 A 
HETATM    5  C5  UNL     1      15.305  49.393  65.029  1.00  0.00     0.030 A 
HETATM    6  C17 UNL     1      15.881  49.886  63.892  1.00  0.00     0.071 A 
HETATM    7  C22 UNL     1      15.294  49.500  62.669  1.00  0.00     0.070 A 
HETATM    8  N6  UNL     1      13.583  48.041  66.161  1.00  0.00    -0.389 N 
ATOM      9  H6  UNL     1      13.809  48.453  67.066  1.00  0.00     0.159 HD
HETATM   10  C27 UNL     1      12.649  46.927  66.052  1.00  0.00     0.120 C 
HETATM   11  C28 UNL     1      11.679  47.299  64.944  1.00  0.00     0.024 C 
HETATM   12  C29 UNL     1      12.469  47.310  63.646  1.00  0.00     0.043 C 
ENDROOT
BRANCH   5  13
HETATM   13  C6  UNL     1      15.673  49.732  66.381  1.00  0.00     0.075 C 
BRANCH  13  14
HETATM   14  N1  UNL     1      15.888  51.007  66.892  1.00  0.00    -0.292 NA
HETATM   15  C7  UNL     1      14.577  51.697  66.898  1.00  0.00     0.097 C 
HETATM   16  C8  UNL     1      13.722  51.121  67.955  1.00  0.00     0.050 C 
HETATM   17  C9  UNL     1      14.087  51.838  69.244  1.00  0.00     0.225 C 
HETATM   18  C15 UNL     1      15.614  52.052  69.139  1.00  0.00     0.050 C 
HETATM   19  C16 UNL     1      16.229  50.972  68.327  1.00  0.00     0.097 C 
BRANCH  17  20
HETATM   20  N2  UNL     1      13.498  53.113  69.417  1.00  0.00     0.093 N 
HETATM   21  C10 UNL     1      14.358  53.877  70.309  1.00  0.00     0.273 C 
HETATM   22  C11 UNL     1      13.579  54.862  71.151  1.00  0.00     0.030 C 
HETATM   23  C12 UNL     1      12.687  54.165  72.147  1.00  0.00     0.003 C 
HETATM   24  C13 UNL     1      12.204  52.889  71.493  1.00  0.00     0.030 C 
HETATM   25  C14 UNL     1      12.184  53.114  69.998  1.00  0.00     0.273 C 
ENDBRANCH  17  20
ENDBRANCH  13  14
ENDBRANCH   5  13
BRANCH   6  26
HETATM   26  N3  UNL     1      17.002  50.782  63.823  1.00  0.00    -0.374 N 
HETATM   27  C18 UNL     1      18.386  50.460  63.899  1.00  0.00     0.149 C 
HETATM   28  C19 UNL     1      19.228  51.371  63.017  1.00  0.00     0.187 C 
HETATM   29  O1  UNL     1      18.562  52.048  62.052  1.00  0.00    -0.388 OA
HETATM   30  C20 UNL     1      17.433  52.729  62.400  1.00  0.00     0.187 C 
HETATM   31  C21 UNL     1      16.741  52.234  63.648  1.00  0.00     0.149 C 
ENDBRANCH   6  26
BRANCH   7  32
HETATM   32  N4  UNL     1      15.850  49.993  61.465  1.00  0.00    -0.306 N 
HETATM   33  C23 UNL     1      16.948  49.387  60.808  1.00  0.00     0.321 C 
HETATM   34  O2  UNL     1      17.495  48.332  61.282  1.00  0.00    -0.247 OA
HETATM   35  N5  UNL     1      17.485  49.905  59.617  1.00  0.00    -0.339 N 
ATOM     36  H5  UNL     1      17.068  50.746  59.220  1.00  0.00     0.164 HD
ATOM     37  H4  UNL     1      15.439  50.829  61.049  1.00  0.00     0.171 HD
BRANCH  35  38
HETATM   38  C24 UNL     1      18.607  49.295  58.930  1.00  0.00     0.078 C 
HETATM   39  C25 UNL     1      18.261  49.117  57.469  1.00  0.00     0.032 C 
HETATM   40  C26 UNL     1      19.825  50.196  59.016  1.00  0.00     0.032 C 
ENDBRANCH  35  38
ENDBRANCH   7  32
TORSDOF 6
ENDMDL
MODEL 2
REMARK VINA RESULT: -8.203692344      3.332      7.573
REMARK  6 active torsions:
REMARK  status: ('A' for Active; 'I' for Inactive)
REMARK    1  A    between atoms: C5_5  and  C6_6 
REMARK    2  A    between atoms: C6_6  and  N1_7 
REMARK    3  A    between atoms: C9_10  and  N2_11 
REMARK    4  A    between atoms: C17_19  and  N3_20 
REMARK    5  A    between atoms: C22_26  and  N4_27 
REMARK       I    between atoms: N4_27  and  C23_29 
REMARK       I    between atoms: C23_29  and  N5_31 
REMARK    6  A    between atoms: N5_31  and  C24_33 
ROOT
HETATM    1  C1  UNL     1      17.419  49.439  67.437  1.00  0.00     0.051 C 
HETATM    2  C2  UNL     1      16.378  49.190  66.393  1.00  0.00    -0.024 A 
HETATM    3  C3  UNL     1      15.177  48.628  66.725  1.00  0.00    -0.022 A 
HETATM    4  C4  UNL     1      14.195  48.382  65.798  1.00  0.00     0.048 A 
HETATM    5  C5  UNL     1      14.440  48.729  64.434  1.00  0.00     0.030 A 
HETATM    6  C17 UNL     1      15.625  49.293  64.052  1.00  0.00     0.071 A 
HETATM    7  C22 UNL     1      16.577  49.512  65.069  1.00  0.00     0.070 A 
HETATM    8  N6  UNL     1      12.960  47.791  66.167  1.00  0.00    -0.389 N 
ATOM      9  H6  UNL     1      12.330  47.404  65.465  1.00  0.00     0.159 HD
HETATM   10  C27 UNL     1      12.621  47.756  67.584  1.00  0.00     0.120 C 
HETATM   11  C28 UNL     1      13.852  47.222  68.297  1.00  0.00     0.024 C 
HETATM   12  C29 UNL     1      14.939  48.274  68.154  1.00  0.00     0.043 C 
ENDROOT
BRANCH   5  13
HETATM   13  C6  UNL     1      13.370  48.327  63.556  1.00  0.00     0.075 C 
BRANCH  13  14
HETATM   14  N1  UNL     1      13.494  47.673  62.335  1.00  0.00    -0.292 NA
HETATM   15  C7  UNL     1      12.533  46.545  62.349  1.00  0.00     0.097 C 
HETATM   16  C8  UNL     1      11.157  47.070  62.238  1.00  0.00     0.050 C 
HETATM   17  C9  UNL     1      10.885  47.260  60.756  1.00  0.00     0.225 C 
HETATM   18  C15 UNL     1      12.236  47.747  60.183  1.00  0.00     0.050 C 
HETATM   19  C16 UNL     1      12.992  48.497  61.218  1.00  0.00     0.097 C 
BRANCH  17  20
HETATM   20  N2  UNL     1      10.531  46.088  60.048  1.00  0.00     0.093 N 
HETATM   21  C10 UNL     1       9.960  46.499  58.773  1.00  0.00     0.273 C 
HETATM   22  C11 UNL     1       8.912  45.530  58.276  1.00  0.00     0.030 C 
HETATM   23  C12 UNL     1       7.683  45.537  59.150  1.00  0.00     0.003 C 
HETATM   24  C13 UNL     1       8.150  45.780  60.569  1.00  0.00     0.030 C 
HETATM   25  C14 UNL     1       9.560  45.245  60.690  1.00  0.00     0.273 C 
ENDBRANCH  17  20
ENDBRANCH  13  14
ENDBRANCH   5  13
BRANCH   6  26
HETATM   26  N3  UNL     1      16.005  49.654  62.714  1.00  0.00    -0.374 N 
HETATM   27  C18 UNL     1      15.707  50.857  62.014  1.00  0.00     0.149 C 
HETATM   28  C19 UNL     1      16.842  51.267  61.086  1.00  0.00     0.187 C 
HETATM   29  O1  UNL     1      18.046  50.697  61.330  1.00  0.00    -0.388 OA
HETATM   30  C20 UNL     1      18.103  49.345  61.488  1.00  0.00     0.187 C 
HETATM   31  C21 UNL     1      16.811  48.691  61.921  1.00  0.00     0.149 C 
ENDBRANCH   6  26
BRANCH   7  32
HETATM   32  N4  UNL     1      17.822  50.085  64.719  1.00  0.00    -0.306 N 
HETATM   33  C23 UNL     1      18.044  51.481  64.649  1.00  0.00     0.321 C 
HETATM   34  O2  UNL     1      17.106  52.309  64.914  1.00  0.00    -0.247 OA
HETATM   35  N5  UNL     1      19.291  52.022  64.289  1.00  0.00    -0.339 N 
ATOM     36  H5  UNL     1      20.055  51.383  64.072  1.00  0.00     0.164 HD
ATOM     37  H4  UNL     1      18.600  49.459  64.507  1.00  0.00     0.171 HD
BRANCH  35  38
HETATM   38  C24 UNL     1      19.537  53.449  64.215  1.00  0.00     0.078 C 
HETATM   39  C25 UNL     1      20.990  53.722  64.528  1.00  0.00     0.032 C 
HETATM   40  C26 UNL     1      19.257  53.955  62.812  1.00  0.00     0.032 C 
ENDBRANCH  35  38
ENDBRANCH   7  32
TORSDOF 6
ENDMDL
MODEL 3
REMARK VINA RESULT: -8.184887875      2.721      3.410
REMARK  6 active torsions:
REMARK  status: ('A' for Active; 'I' for Inactive)
REMARK    1  A    between atoms: C5_5  and  C6_6 
REMARK    2  A    between atoms: C6_6  and  N1_7 
REMARK    3  A    between atoms: C9_10  and  N2_11 
REMARK    4  A    between atoms: C17_19  and  N3_20 
REMARK    5  A    between atoms: C22_26  and  N4_27 
REMARK       I    between atoms: N4_27  and  C23_29 
REMARK       I    between atoms: C23_29  and  N5_31 
REMARK    6  A    between atoms: N5_31  and  C24_33 
ROOT
HETATM    1  C1  UNL     1      13.483  48.244  60.368  1.00  0.00     0.051 C 
HETATM    2  C2  UNL     1      13.932  48.552  61.761  1.00  0.00    -0.024 A 
HETATM    3  C3  UNL     1      13.260  48.046  62.839  1.00  0.00    -0.022 A 
HETATM    4  C4  UNL     1      13.637  48.304  64.133  1.00  0.00     0.048 A 
HETATM    5  C5  UNL     1      14.778  49.134  64.360  1.00  0.00     0.030 A 
HETATM    6  C17 UNL     1      15.484  49.663  63.315  1.00  0.00     0.071 A 
HETATM    7  C22 UNL     1      15.027  49.346  62.019  1.00  0.00     0.070 A 
HETATM    8  N6  UNL     1      12.919  47.773  65.234  1.00  0.00    -0.389 N 
ATOM      9  H6  UNL     1      13.052  48.138  66.177  1.00  0.00     0.159 HD
HETATM   10  C27 UNL     1      11.982  46.687  64.972  1.00  0.00     0.120 C 
HETATM   11  C28 UNL     1      11.145  47.131  63.785  1.00  0.00     0.024 C 
HETATM   12  C29 UNL     1      12.073  47.181  62.582  1.00  0.00     0.043 C 
ENDROOT
BRANCH   5  13
HETATM   13  C6  UNL     1      15.003  49.403  65.757  1.00  0.00     0.075 C 
BRANCH  13  14
HETATM   14  N1  UNL     1      15.418  48.494  66.725  1.00  0.00    -0.292 NA
HETATM   15  C7  UNL     1      16.893  48.609  66.821  1.00  0.00     0.097 C 
HETATM   16  C8  UNL     1      17.245  49.885  67.476  1.00  0.00     0.050 C 
HETATM   17  C9  UNL     1      17.185  49.633  68.973  1.00  0.00     0.225 C 
HETATM   18  C15 UNL     1      15.990  48.667  69.146  1.00  0.00     0.050 C 
HETATM   19  C16 UNL     1      14.986  48.897  68.077  1.00  0.00     0.097 C 
BRANCH  17  20
HETATM   20  N2  UNL     1      18.319  48.996  69.528  1.00  0.00     0.093 N 
HETATM   21  C10 UNL     1      18.113  48.904  70.966  1.00  0.00     0.273 C 
HETATM   22  C11 UNL     1      19.411  48.970  71.737  1.00  0.00     0.030 C 
HETATM   23  C12 UNL     1      20.058  50.329  71.631  1.00  0.00     0.003 C 
HETATM   24  C13 UNL     1      19.750  50.859  70.248  1.00  0.00     0.030 C 
HETATM   25  C14 UNL     1      19.571  49.673  69.326  1.00  0.00     0.273 C 
ENDBRANCH  17  20
ENDBRANCH  13  14
ENDBRANCH   5  13
BRANCH   6  26
HETATM   26  N3  UNL     1      16.621  50.535  63.411  1.00  0.00    -0.374 N 
HETATM   27  C18 UNL     1      17.983  50.177  63.616  1.00  0.00     0.149 C 
HETATM   28  C19 UNL     1      18.931  51.110  62.874  1.00  0.00     0.187 C 
HETATM   29  O1  UNL     1      18.384  51.848  61.880  1.00  0.00    -0.388 OA
HETATM   30  C20 UNL     1      17.237  52.538  62.141  1.00  0.00     0.187 C 
HETATM   31  C21 UNL     1      16.407  52.000  63.282  1.00  0.00     0.149 C 
ENDBRANCH   6  26
BRANCH   7  32
HETATM   32  N4  UNL     1      15.720  49.880  60.907  1.00  0.00    -0.306 N 
HETATM   33  C23 UNL     1      16.847  49.256  60.320  1.00  0.00     0.321 C 
HETATM   34  O2  UNL     1      17.296  48.149  60.776  1.00  0.00    -0.247 OA
HETATM   35  N5  UNL     1      17.521  49.815  59.221  1.00  0.00    -0.339 N 
ATOM     36  H5  UNL     1      17.184  50.699  58.840  1.00  0.00     0.164 HD
ATOM     37  H4  UNL     1      15.390  50.759  60.508  1.00  0.00     0.171 HD
BRANCH  35  38
HETATM   38  C24 UNL     1      18.675  49.189  58.605  1.00  0.00     0.078 C 
HETATM   39  C25 UNL     1      18.429  49.037  57.121  1.00  0.00     0.032 C 
HETATM   40  C26 UNL     1      19.903  50.062  58.788  1.00  0.00     0.032 C 
ENDBRANCH  35  38
ENDBRANCH   7  32
TORSDOF 6
ENDMDL
MODEL 4
REMARK VINA RESULT: -8.149785166      3.134      5.998
REMARK  6 active torsions:
REMARK  status: ('A' for Active; 'I' for Inactive)
REMARK    1  A    between atoms: C5_5  and  C6_6 
REMARK    2  A    between atoms: C6_6  and  N1_7 
REMARK    3  A    between atoms: C9_10  and  N2_11 
REMARK    4  A    between atoms: C17_19  and  N3_20 
REMARK    5  A    between atoms: C22_26  and  N4_27 
REMARK       I    between atoms: N4_27  and  C23_29 
REMARK       I    between atoms: C23_29  and  N5_31 
REMARK    6  A    between atoms: N5_31  and  C24_33 
ROOT
HETATM    1  C1  UNL     1      18.983  49.022  56.685  1.00  0.00     0.051 C 
HETATM    2  C2  UNL     1      17.938  48.989  57.754  1.00  0.00    -0.024 A 
HETATM    3  C3  UNL     1      16.815  48.222  57.610  1.00  0.00    -0.022 A 
HETATM    4  C4  UNL     1      15.832  48.163  58.565  1.00  0.00     0.048 A 
HETATM    5  C5  UNL     1      15.990  48.936  59.756  1.00  0.00     0.030 A 
HETATM    6  C17 UNL     1      17.093  49.719  59.948  1.00  0.00     0.071 A 
HETATM    7  C22 UNL     1      18.055  49.719  58.916  1.00  0.00     0.070 A 
HETATM    8  N6  UNL     1      14.674  47.364  58.387  1.00  0.00    -0.389 N 
ATOM      9  H6  UNL     1      13.851  47.491  58.976  1.00  0.00     0.159 HD
HETATM   10  C27 UNL     1      14.700  46.356  57.335  1.00  0.00     0.120 C 
HETATM   11  C28 UNL     1      15.218  47.060  56.092  1.00  0.00     0.024 C 
HETATM   12  C29 UNL     1      16.669  47.421  56.360  1.00  0.00     0.043 C 
ENDROOT
BRANCH   5  13
HETATM   13  C6  UNL     1      14.843  48.859  60.626  1.00  0.00     0.075 C 
BRANCH  13  14
HETATM   14  N1  UNL     1      14.468  47.780  61.418  1.00  0.00    -0.292 NA
HETATM   15  C7  UNL     1      15.329  47.808  62.625  1.00  0.00     0.097 C 
HETATM   16  C8  UNL     1      14.925  48.935  63.490  1.00  0.00     0.050 C 
HETATM   17  C9  UNL     1      13.774  48.431  64.344  1.00  0.00     0.225 C 
HETATM   18  C15 UNL     1      12.977  47.506  63.398  1.00  0.00     0.050 C 
HETATM   19  C16 UNL     1      13.121  47.962  61.992  1.00  0.00     0.097 C 
BRANCH  17  20
HETATM   20  N2  UNL     1      14.146  47.657  65.469  1.00  0.00     0.093 N 
HETATM   21  C10 UNL     1      12.998  46.843  65.841  1.00  0.00     0.273 C 
HETATM   22  C11 UNL     1      12.944  46.573  67.327  1.00  0.00     0.030 C 
HETATM   23  C12 UNL     1      12.666  47.829  68.114  1.00  0.00     0.003 C 
HETATM   24  C13 UNL     1      13.340  48.969  67.383  1.00  0.00     0.030 C 
HETATM   25  C14 UNL     1      14.527  48.403  66.636  1.00  0.00     0.273 C 
ENDBRANCH  17  20
ENDBRANCH  13  14
ENDBRANCH   5  13
BRANCH   6  26
HETATM   26  N3  UNL     1      17.352  50.564  61.080  1.00  0.00    -0.374 N 
HETATM   27  C18 UNL     1      18.099  50.254  62.251  1.00  0.00     0.149 C 
HETATM   28  C19 UNL     1      18.850  51.468  62.782  1.00  0.00     0.187 C 
HETATM   29  O1  UNL     1      19.013  52.493  61.913  1.00  0.00    -0.388 OA
HETATM   30  C20 UNL     1      17.923  52.942  61.228  1.00  0.00     0.187 C 
HETATM   31  C21 UNL     1      16.800  51.943  61.078  1.00  0.00     0.149 C 
ENDBRANCH   6  26
BRANCH   7  32
HETATM   32  N4  UNL     1      19.209  50.522  59.065  1.00  0.00    -0.306 N 
HETATM   33  C23 UNL     1      20.402  50.066  59.678  1.00  0.00     0.321 C 
HETATM   34  O2  UNL     1      20.493  48.872  60.126  1.00  0.00    -0.247 OA
HETATM   35  N5  UNL     1      21.531  50.890  59.820  1.00  0.00    -0.339 N 
ATOM     36  H5  UNL     1      21.483  51.847  59.472  1.00  0.00     0.164 HD
ATOM     37  H4  UNL     1      19.182  51.480  58.714  1.00  0.00     0.171 HD
BRANCH  35  38
HETATM   38  C24 UNL     1      22.761  50.439  60.442  1.00  0.00     0.078 C 
HETATM   39  C25 UNL     1      23.928  51.192  59.845  1.00  0.00     0.032 C 
HETATM   40  C26 UNL     1      22.730  50.726  61.931  1.00  0.00     0.032 C 
ENDBRANCH  35  38
ENDBRANCH   7  32
TORSDOF 6
ENDMDL
MODEL 5
REMARK VINA RESULT: -8.017956551      4.201      9.797
REMARK  6 active torsions:
REMARK  status: ('A' for Active; 'I' for Inactive)
REMARK    1  A    between atoms: C5_5  and  C6_6 
REMARK    2  A    between atoms: C6_6  and  N1_7 
REMARK    3  A    between atoms: C9_10  and  N2_11 
REMARK    4  A    between atoms: C17_19  and  N3_20 
REMARK    5  A    between atoms: C22_26  and  N4_27 
REMARK       I    between atoms: N4_27  and  C23_29 
REMARK       I    between atoms: C23_29  and  N5_31 
REMARK    6  A    between atoms: N5_31  and  C24_33 
ROOT
HETATM    1  C1  UNL     1      17.627  50.058  61.174  1.00  0.00     0.051 C 
HETATM    2  C2  UNL     1      16.513  49.226  60.623  1.00  0.00    -0.024 A 
HETATM    3  C3  UNL     1      16.569  48.742  59.345  1.00  0.00    -0.022 A 
HETATM    4  C4  UNL     1      15.568  47.976  58.801  1.00  0.00     0.048 A 
HETATM    5  C5  UNL     1      14.426  47.672  59.604  1.00  0.00     0.030 A 
HETATM    6  C17 UNL     1      14.324  48.132  60.887  1.00  0.00     0.071 A 
HETATM    7  C22 UNL     1      15.397  48.911  61.366  1.00  0.00     0.070 A 
HETATM    8  N6  UNL     1      15.648  47.493  57.470  1.00  0.00    -0.389 N 
ATOM      9  H6  UNL     1      14.825  47.124  56.994  1.00  0.00     0.159 HD
HETATM   10  C27 UNL     1      16.944  47.541  56.807  1.00  0.00     0.120 C 
HETATM   11  C28 UNL     1      17.482  48.943  57.037  1.00  0.00     0.024 C 
HETATM   12  C29 UNL     1      17.770  49.069  58.524  1.00  0.00     0.043 C 
ENDROOT
BRANCH   5  13
HETATM   13  C6  UNL     1      13.413  46.947  58.880  1.00  0.00     0.075 C 
BRANCH  13  14
HETATM   14  N1  UNL     1      12.490  47.474  57.984  1.00  0.00    -0.292 NA
HETATM   15  C7  UNL     1      11.604  46.361  57.570  1.00  0.00     0.097 C 
HETATM   16  C8  UNL     1      10.716  45.995  58.692  1.00  0.00     0.050 C 
HETATM   17  C9  UNL     1       9.529  46.940  58.629  1.00  0.00     0.225 C 
HETATM   18  C15 UNL     1      10.140  48.286  58.180  1.00  0.00     0.050 C 
HETATM   19  C16 UNL     1      11.545  48.394  58.648  1.00  0.00     0.097 C 
BRANCH  17  20
HETATM   20  N2  UNL     1       8.531  46.600  57.686  1.00  0.00     0.093 N 
HETATM   21  C10 UNL     1       7.333  47.356  58.020  1.00  0.00     0.273 C 
HETATM   22  C11 UNL     1       6.067  46.616  57.655  1.00  0.00     0.030 C 
HETATM   23  C12 UNL     1       5.872  45.387  58.508  1.00  0.00     0.003 C 
HETATM   24  C13 UNL     1       7.246  44.826  58.798  1.00  0.00     0.030 C 
HETATM   25  C14 UNL     1       8.156  45.213  57.653  1.00  0.00     0.273 C 
ENDBRANCH  17  20
ENDBRANCH  13  14
ENDBRANCH   5  13
BRANCH   6  26
HETATM   26  N3  UNL     1      13.218  47.926  61.780  1.00  0.00    -0.374 N 
HETATM   27  C18 UNL     1      11.936  48.542  61.742  1.00  0.00     0.149 C 
HETATM   28  C19 UNL     1      10.837  47.594  62.202  1.00  0.00     0.187 C 
HETATM   29  O1  UNL     1      11.150  46.276  62.202  1.00  0.00    -0.388 OA
HETATM   30  C20 UNL     1      12.315  45.887  62.795  1.00  0.00     0.187 C 
HETATM   31  C21 UNL     1      13.376  46.957  62.895  1.00  0.00     0.149 C 
ENDBRANCH   6  26
BRANCH   7  32
HETATM   32  N4  UNL     1      15.331  49.417  62.686  1.00  0.00    -0.306 N 
HETATM   33  C23 UNL     1      15.884  48.748  63.805  1.00  0.00     0.321 C 
HETATM   34  O2  UNL     1      16.491  47.632  63.667  1.00  0.00    -0.247 OA
HETATM   35  N5  UNL     1      15.794  49.271  65.106  1.00  0.00    -0.339 N 
ATOM     36  H5  UNL     1      15.313  50.160  65.242  1.00  0.00     0.164 HD
ATOM     37  H4  UNL     1      14.861  50.310  62.839  1.00  0.00     0.171 HD
BRANCH  35  38
HETATM   38  C24 UNL     1      16.357  48.602  66.263  1.00  0.00     0.078 C 
HETATM   39  C25 UNL     1      17.514  49.415  66.797  1.00  0.00     0.032 C 
HETATM   40  C26 UNL     1      15.316  48.492  67.361  1.00  0.00     0.032 C 
ENDBRANCH  35  38
ENDBRANCH   7  32
TORSDOF 6
ENDMDL
