MODEL 1
REMARK VINA RESULT: -5.391660930      0.000      0.000
REMARK  3 active torsions:
REMARK  status: ('A' for Active; 'I' for Inactive)
REMARK    1  A    between atoms: C2_7  and  N2_8 
REMARK    2  A    between atoms: N2_8  and  N3_10 
REMARK    3  A    between atoms: C3_12  and  C4_13 
ROOT
HETATM    1  N3  UNL     1      11.739   1.897  14.485  1.00  0.00    -0.313 N 
ATOM      2  H3  UNL     1      12.090   2.816  14.751  1.00  0.00     0.185 HD
HETATM    3  C3  UNL     1      12.001   0.862  15.210  1.00  0.00     0.104 C 
ENDROOT
BRANCH   1   4
HETATM    4  N2  UNL     1      10.977   1.742  13.343  1.00  0.00    -0.291 N 
ATOM      5  H2  UNL     1      11.318   1.143  12.592  1.00  0.00     0.187 HD
BRANCH   4   6
HETATM    6  C2  UNL     1       9.811   2.359  13.204  1.00  0.00     0.136 A 
HETATM    7  C1  UNL     1       8.665   1.800  12.753  1.00  0.00     0.146 A 
HETATM    8 CL1  UNL     1       8.618   0.062  12.272  1.00  0.00    -0.061 Cl
HETATM    9  N1  UNL     1       7.564   2.501  12.654  1.00  0.00    -0.309 N 
HETATM   10  S1  UNL     1       7.590   4.105  13.094  1.00  0.00     0.027 SA
ATOM     11  H1  UNL     1       6.704   2.070  12.313  1.00  0.00     0.176 HD
HETATM   12  S2  UNL     1       9.579   4.004  13.587  1.00  0.00    -0.013 SA
ENDBRANCH   4   6
ENDBRANCH   1   4
BRANCH   3  13
HETATM   13  C4  UNL     1      11.494  -0.482  14.831  1.00  0.00     0.116 C 
HETATM   14  C5  UNL     1      10.199  -0.733  15.538  1.00  0.00     0.030 C 
HETATM   15  C6  UNL     1      10.377  -1.170  16.964  1.00  0.00     0.004 C 
HETATM   16  C7  UNL     1      11.205  -2.458  16.890  1.00  0.00     0.019 C 
HETATM   17  C8  UNL     1      12.545  -2.021  16.371  1.00  0.00     0.114 C 
HETATM   18  N4  UNL     1      12.495  -1.484  15.044  1.00  0.00    -0.413 N 
ATOM     19  H4  UNL     1      13.126  -1.793  14.305  1.00  0.00     0.153 HD
ENDBRANCH   3  13
TORSDOF 3
ENDMDL
MODEL 2
REMARK VINA RESULT: -5.358086640      2.322      2.740
REMARK  3 active torsions:
REMARK  status: ('A' for Active; 'I' for Inactive)
REMARK    1  A    between atoms: C2_7  and  N2_8 
REMARK    2  A    between atoms: N2_8  and  N3_10 
REMARK    3  A    between atoms: C3_12  and  C4_13 
ROOT
HETATM    1  N3  UNL     1       9.180   1.542  14.058  1.00  0.00    -0.313 N 
ATOM      2  H3  UNL     1       8.293   1.707  13.583  1.00  0.00     0.185 HD
HETATM    3  C3  UNL     1       9.575   0.340  14.308  1.00  0.00     0.104 C 
ENDROOT
BRANCH   1   4
HETATM    4  N2  UNL     1       9.975   2.605  14.441  1.00  0.00    -0.291 N 
ATOM      5  H2  UNL     1      10.233   2.707  15.423  1.00  0.00     0.187 HD
BRANCH   4   6
HETATM    6  C2  UNL     1      10.410   3.495  13.559  1.00  0.00     0.136 A 
HETATM    7  C1  UNL     1       9.651   4.406  12.909  1.00  0.00     0.146 A 
HETATM    8 CL1  UNL     1       7.874   4.499  13.204  1.00  0.00    -0.061 Cl
HETATM    9  N1  UNL     1      10.182   5.243  12.054  1.00  0.00    -0.309 N 
HETATM   10  S1  UNL     1      11.820   5.171  11.771  1.00  0.00     0.027 SA
ATOM     11  H1  UNL     1       9.601   5.927  11.569  1.00  0.00     0.176 HD
HETATM   12  S2  UNL     1      12.047   3.623  13.099  1.00  0.00    -0.013 SA
ENDBRANCH   4   6
ENDBRANCH   1   4
BRANCH   3  13
HETATM   13  C4  UNL     1      10.867   0.090  14.999  1.00  0.00     0.116 C 
HETATM   14  C5  UNL     1      11.461  -1.181  14.477  1.00  0.00     0.030 C 
HETATM   15  C6  UNL     1      10.860  -2.413  15.090  1.00  0.00     0.004 C 
HETATM   16  C7  UNL     1      11.118  -2.279  16.596  1.00  0.00     0.019 C 
HETATM   17  C8  UNL     1      10.290  -1.101  17.023  1.00  0.00     0.114 C 
HETATM   18  N4  UNL     1      10.701   0.132  16.421  1.00  0.00    -0.413 N 
ATOM     19  H4  UNL     1      10.864   0.979  16.965  1.00  0.00     0.153 HD
ENDBRANCH   3  13
TORSDOF 3
ENDMDL
MODEL 3
REMARK VINA RESULT: -5.345104822      3.732      4.297
REMARK  3 active torsions:
REMARK  status: ('A' for Active; 'I' for Inactive)
REMARK    1  A    between atoms: C2_7  and  N2_8 
REMARK    2  A    between atoms: N2_8  and  N3_10 
REMARK    3  A    between atoms: C3_12  and  C4_13 
ROOT
HETATM    1  N3  UNL     1       9.716   4.296  12.153  1.00  0.00    -0.313 N 
ATOM      2  H3  UNL     1       9.284   4.997  11.551  1.00  0.00     0.185 HD
HETATM    3  C3  UNL     1      10.739   4.599  12.878  1.00  0.00     0.104 C 
ENDROOT
BRANCH   1   4
HETATM    4  N2  UNL     1       9.212   3.011  12.204  1.00  0.00    -0.291 N 
ATOM      5  H2  UNL     1       9.743   2.249  11.782  1.00  0.00     0.187 HD
BRANCH   4   6
HETATM    6  C2  UNL     1       8.051   2.748  12.789  1.00  0.00     0.136 A 
HETATM    7  C1  UNL     1       7.626   1.532  13.201  1.00  0.00     0.146 A 
HETATM    8 CL1  UNL     1       8.662   0.073  12.978  1.00  0.00    -0.061 Cl
HETATM    9  N1  UNL     1       6.457   1.381  13.771  1.00  0.00    -0.309 N 
HETATM   10  S1  UNL     1       5.489   2.717  13.985  1.00  0.00     0.027 SA
ATOM     11  H1  UNL     1       6.145   0.459  14.079  1.00  0.00     0.176 HD
HETATM   12  S2  UNL     1       6.885   3.948  13.120  1.00  0.00    -0.013 SA
ENDBRANCH   4   6
ENDBRANCH   1   4
BRANCH   3  13
HETATM   13  C4  UNL     1      11.376   3.585  13.759  1.00  0.00     0.116 C 
HETATM   14  C5  UNL     1      11.090   3.930  15.187  1.00  0.00     0.030 C 
HETATM   15  C6  UNL     1      11.986   5.007  15.728  1.00  0.00     0.004 C 
HETATM   16  C7  UNL     1      13.410   4.455  15.585  1.00  0.00     0.019 C 
HETATM   17  C8  UNL     1      13.638   4.366  14.104  1.00  0.00     0.114 C 
HETATM   18  N4  UNL     1      12.766   3.439  13.447  1.00  0.00    -0.413 N 
ATOM     19  H4  UNL     1      13.110   2.726  12.803  1.00  0.00     0.153 HD
ENDBRANCH   3  13
TORSDOF 3
ENDMDL
MODEL 4
REMARK VINA RESULT: -5.310899349      3.471      4.529
REMARK  3 active torsions:
REMARK  status: ('A' for Active; 'I' for Inactive)
REMARK    1  A    between atoms: C2_7  and  N2_8 
REMARK    2  A    between atoms: N2_8  and  N3_10 
REMARK    3  A    between atoms: C3_12  and  C4_13 
ROOT
HETATM    1  N3  UNL     1      10.232   1.833  13.468  1.00  0.00    -0.313 N 
ATOM      2  H3  UNL     1      10.057   0.830  13.512  1.00  0.00     0.185 HD
HETATM    3  C3  UNL     1      11.159   2.367  14.190  1.00  0.00     0.104 C 
ENDROOT
BRANCH   1   4
HETATM    4  N2  UNL     1       9.481   2.638  12.634  1.00  0.00    -0.291 N 
ATOM      5  H2  UNL     1       9.878   2.946  11.746  1.00  0.00     0.187 HD
BRANCH   4   6
HETATM    6  C2  UNL     1       8.254   3.019  12.965  1.00  0.00     0.136 A 
HETATM    7  C1  UNL     1       7.801   4.293  13.007  1.00  0.00     0.146 A 
HETATM    8 CL1  UNL     1       8.891   5.669  12.590  1.00  0.00    -0.061 Cl
HETATM    9  N1  UNL     1       6.567   4.561  13.348  1.00  0.00    -0.309 N 
HETATM   10  S1  UNL     1       5.549   3.304  13.734  1.00  0.00     0.027 SA
ATOM     11  H1  UNL     1       6.234   5.526  13.376  1.00  0.00     0.176 HD
HETATM   12  S2  UNL     1       7.026   1.919  13.401  1.00  0.00    -0.013 SA
ENDBRANCH   4   6
ENDBRANCH   1   4
BRANCH   3  13
HETATM   13  C4  UNL     1      11.421   3.829  14.134  1.00  0.00     0.116 C 
HETATM   14  C5  UNL     1      12.884   4.053  13.908  1.00  0.00     0.030 C 
HETATM   15  C6  UNL     1      13.704   3.924  15.160  1.00  0.00     0.004 C 
HETATM   16  C7  UNL     1      13.142   4.980  16.119  1.00  0.00     0.019 C 
HETATM   17  C8  UNL     1      11.749   4.511  16.430  1.00  0.00     0.114 C 
HETATM   18  N4  UNL     1      10.887   4.489  15.286  1.00  0.00    -0.413 N 
ATOM     19  H4  UNL     1       9.959   4.913  15.293  1.00  0.00     0.153 HD
ENDBRANCH   3  13
TORSDOF 3
ENDMDL
MODEL 5
REMARK VINA RESULT: -5.246271462      3.401      5.660
REMARK  3 active torsions:
REMARK  status: ('A' for Active; 'I' for Inactive)
REMARK    1  A    between atoms: C2_7  and  N2_8 
REMARK    2  A    between atoms: N2_8  and  N3_10 
REMARK    3  A    between atoms: C3_12  and  C4_13 
ROOT
HETATM    1  N3  UNL     1      12.038   0.816  14.490  1.00  0.00    -0.313 N 
ATOM      2  H3  UNL     1      12.864   0.405  14.056  1.00  0.00     0.185 HD
HETATM    3  C3  UNL     1      11.440   1.819  13.940  1.00  0.00     0.104 C 
ENDROOT
BRANCH   1   4
HETATM    4  N2  UNL     1      11.544   0.306  15.675  1.00  0.00    -0.291 N 
ATOM      5  H2  UNL     1      11.190   0.947  16.386  1.00  0.00     0.187 HD
BRANCH   4   6
HETATM    6  C2  UNL     1      11.521  -0.999  15.908  1.00  0.00     0.136 A 
HETATM    7  C1  UNL     1      10.799  -1.916  15.224  1.00  0.00     0.146 A 
HETATM    8 CL1  UNL     1       9.741  -1.414  13.852  1.00  0.00    -0.061 Cl
HETATM    9  N1  UNL     1      10.849  -3.186  15.536  1.00  0.00    -0.309 N 
HETATM   10  S1  UNL     1      11.820  -3.666  16.798  1.00  0.00     0.027 SA
ATOM     11  H1  UNL     1      10.301  -3.870  15.014  1.00  0.00     0.176 HD
HETATM   12  S2  UNL     1      12.430  -1.738  17.147  1.00  0.00    -0.013 SA
ENDBRANCH   4   6
ENDBRANCH   1   4
BRANCH   3  13
HETATM   13  C4  UNL     1      10.236   2.425  14.565  1.00  0.00     0.116 C 
HETATM   14  C5  UNL     1       9.034   2.084  13.740  1.00  0.00     0.030 C 
HETATM   15  C6  UNL     1       8.880   2.957  12.527  1.00  0.00     0.004 C 
HETATM   16  C7  UNL     1       8.769   4.386  13.072  1.00  0.00     0.019 C 
HETATM   17  C8  UNL     1      10.114   4.670  13.677  1.00  0.00     0.114 C 
HETATM   18  N4  UNL     1      10.428   3.826  14.791  1.00  0.00    -0.413 N 
ATOM     19  H4  UNL     1      10.764   4.196  15.680  1.00  0.00     0.153 HD
ENDBRANCH   3  13
TORSDOF 3
ENDMDL
