MODEL 1
REMARK VINA RESULT: -7.683374725      0.000      0.000
REMARK  3 active torsions:
REMARK  status: ('A' for Active; 'I' for Inactive)
REMARK    1  A    between atoms: C2_2  and  C3_3 
REMARK    2  A    between atoms: N1_4  and  C4_6 
REMARK    3  A    between atoms: C7_11  and  C8_12 
ROOT
HETATM    1  C4  UNL     1      42.866   1.913  92.127  1.00  0.00     0.063 A 
HETATM    2  C5  UNL     1      43.848   1.408  91.270  1.00  0.00     0.080 A 
HETATM    3  N2  UNL     1      45.079   2.149  91.132  1.00  0.00    -0.100 NA
HETATM    4  C6  UNL     1      43.771   0.268  90.533  1.00  0.00     0.079 A 
HETATM    5  S1  UNL     1      42.324  -0.600  90.699  1.00  0.00    -0.103 SA
HETATM    6  C7  UNL     1      41.228   0.133  91.771  1.00  0.00    -0.006 A 
HETATM    7  C11 UNL     1      41.649   1.315  92.355  1.00  0.00    -0.020 A 
HETATM    8  C12 UNL     1      40.658   1.978  93.292  1.00  0.00     0.052 C 
ENDROOT
BRANCH   1   9
HETATM    9  N1  UNL     1      43.183   2.974  92.692  1.00  0.00    -0.368 N 
HETATM   10  C3  UNL     1      43.233   4.321  92.754  1.00  0.00     0.061 C 
ATOM     11  H1  UNL     1      43.639   2.670  93.552  1.00  0.00     0.165 HD
BRANCH  10  12
HETATM   12  C2  UNL     1      42.206   4.993  93.671  1.00  0.00     0.040 C 
HETATM   13  C1  UNL     1      42.856   5.269  95.003  1.00  0.00     0.010 C 
ENDBRANCH  10  12
ENDBRANCH   1   9
BRANCH   6  14
HETATM   14  C8  UNL     1      39.924  -0.517  92.037  1.00  0.00     0.018 C 
HETATM   15  C9  UNL     1      39.115  -0.434  90.733  1.00  0.00     0.015 C 
HETATM   16  C10 UNL     1      40.053  -2.003  92.303  1.00  0.00     0.015 C 
ENDBRANCH   6  14
TORSDOF 3
ENDMDL
MODEL 2
REMARK VINA RESULT: -7.238013151      0.950      1.014
REMARK  3 active torsions:
REMARK  status: ('A' for Active; 'I' for Inactive)
REMARK    1  A    between atoms: C2_2  and  C3_3 
REMARK    2  A    between atoms: N1_4  and  C4_6 
REMARK    3  A    between atoms: C7_11  and  C8_12 
ROOT
HETATM    1  C4  UNL     1      42.608   1.971  91.981  1.00  0.00     0.063 A 
HETATM    2  C5  UNL     1      43.893   1.720  91.493  1.00  0.00     0.080 A 
HETATM    3  N2  UNL     1      44.765   2.846  91.258  1.00  0.00    -0.100 NA
HETATM    4  C6  UNL     1      44.427   0.503  91.206  1.00  0.00     0.079 A 
HETATM    5  S1  UNL     1      43.399  -0.817  91.484  1.00  0.00    -0.103 SA
HETATM    6  C7  UNL     1      41.873  -0.359  92.075  1.00  0.00    -0.006 A 
HETATM    7  C11 UNL     1      41.672   0.999  92.250  1.00  0.00    -0.020 A 
HETATM    8  C12 UNL     1      40.302   1.405  92.755  1.00  0.00     0.052 C 
ENDROOT
BRANCH   1   9
HETATM    9  N1  UNL     1      42.362   3.176  92.168  1.00  0.00    -0.368 N 
HETATM   10  C3  UNL     1      41.970   4.204  92.949  1.00  0.00     0.061 C 
ATOM     11  H1  UNL     1      42.556   3.610  91.266  1.00  0.00     0.165 HD
BRANCH  10  12
HETATM   12  C2  UNL     1      43.087   5.099  93.494  1.00  0.00     0.040 C 
HETATM   13  C1  UNL     1      42.893   5.263  94.980  1.00  0.00     0.010 C 
ENDBRANCH  10  12
ENDBRANCH   1   9
BRANCH   6  14
HETATM   14  C8  UNL     1      40.870  -1.403  92.387  1.00  0.00     0.018 C 
HETATM   15  C9  UNL     1      39.997  -1.564  91.133  1.00  0.00     0.015 C 
HETATM   16  C10 UNL     1      41.489  -2.771  92.591  1.00  0.00     0.015 C 
ENDBRANCH   6  14
TORSDOF 3
ENDMDL
MODEL 3
REMARK VINA RESULT: -7.060557001      2.133      3.347
REMARK  3 active torsions:
REMARK  status: ('A' for Active; 'I' for Inactive)
REMARK    1  A    between atoms: C2_2  and  C3_3 
REMARK    2  A    between atoms: N1_4  and  C4_6 
REMARK    3  A    between atoms: C7_11  and  C8_12 
ROOT
HETATM    1  C4  UNL     1      40.342   1.625  92.630  1.00  0.00     0.063 A 
HETATM    2  C5  UNL     1      39.081   1.436  92.056  1.00  0.00     0.080 A 
HETATM    3  N2  UNL     1      38.165   2.550  92.043  1.00  0.00    -0.100 NA
HETATM    4  C6  UNL     1      38.611   0.290  91.496  1.00  0.00     0.079 A 
HETATM    5  S1  UNL     1      39.691  -1.017  91.513  1.00  0.00    -0.103 SA
HETATM    6  C7  UNL     1      41.180  -0.638  92.240  1.00  0.00    -0.006 A 
HETATM    7  C11 UNL     1      41.314   0.655  92.713  1.00  0.00    -0.020 A 
HETATM    8  C12 UNL     1      42.635   0.982  93.382  1.00  0.00     0.052 C 
ENDROOT
BRANCH   1   9
HETATM    9  N1  UNL     1      40.532   2.773  93.070  1.00  0.00    -0.368 N 
HETATM   10  C3  UNL     1      41.005   3.627  94.001  1.00  0.00     0.061 C 
ATOM     11  H1  UNL     1      40.118   3.380  92.364  1.00  0.00     0.165 HD
BRANCH  10  12
HETATM   12  C2  UNL     1      42.326   4.326  93.666  1.00  0.00     0.040 C 
HETATM   13  C1  UNL     1      42.707   5.217  94.821  1.00  0.00     0.010 C 
ENDBRANCH  10  12
ENDBRANCH   1   9
BRANCH   6  14
HETATM   14  C8  UNL     1      42.238  -1.672  92.313  1.00  0.00     0.018 C 
HETATM   15  C9  UNL     1      41.538  -2.996  92.655  1.00  0.00     0.015 C 
HETATM   16  C10 UNL     1      42.897  -1.933  90.973  1.00  0.00     0.015 C 
ENDBRANCH   6  14
TORSDOF 3
ENDMDL
MODEL 4
REMARK VINA RESULT: -6.995778515      2.840      5.238
REMARK  3 active torsions:
REMARK  status: ('A' for Active; 'I' for Inactive)
REMARK    1  A    between atoms: C2_2  and  C3_3 
REMARK    2  A    between atoms: N1_4  and  C4_6 
REMARK    3  A    between atoms: C7_11  and  C8_12 
ROOT
HETATM    1  C4  UNL     1      42.835  -1.295  92.067  1.00  0.00     0.063 A 
HETATM    2  C5  UNL     1      43.789  -0.274  92.014  1.00  0.00     0.080 A 
HETATM    3  N2  UNL     1      45.180  -0.646  91.913  1.00  0.00    -0.100 NA
HETATM    4  C6  UNL     1      43.547   1.063  92.049  1.00  0.00     0.079 A 
HETATM    5  S1  UNL     1      41.911   1.495  92.169  1.00  0.00    -0.103 SA
HETATM    6  C7  UNL     1      40.871   0.153  92.223  1.00  0.00    -0.006 A 
HETATM    7  C11 UNL     1      41.479  -1.089  92.165  1.00  0.00    -0.020 A 
HETATM    8  C12 UNL     1      40.549  -2.285  92.238  1.00  0.00     0.052 C 
ENDROOT
BRANCH   1   9
HETATM    9  N1  UNL     1      43.314  -2.441  92.012  1.00  0.00    -0.368 N 
HETATM   10  C3  UNL     1      43.235  -3.751  91.697  1.00  0.00     0.061 C 
ATOM     11  H1  UNL     1      44.248  -2.338  92.409  1.00  0.00     0.165 HD
BRANCH  10  12
HETATM   12  C2  UNL     1      43.951  -4.180  90.414  1.00  0.00     0.040 C 
HETATM   13  C1  UNL     1      43.970  -5.686  90.352  1.00  0.00     0.010 C 
ENDBRANCH  10  12
ENDBRANCH   1   9
BRANCH   6  14
HETATM   14  C8  UNL     1      39.407   0.368  92.306  1.00  0.00     0.018 C 
HETATM   15  C9  UNL     1      39.196   1.874  92.527  1.00  0.00     0.015 C 
HETATM   16  C10 UNL     1      38.696   0.078  91.000  1.00  0.00     0.015 C 
ENDBRANCH   6  14
TORSDOF 3
ENDMDL
MODEL 5
REMARK VINA RESULT: -6.977989578      1.815      3.579
REMARK  3 active torsions:
REMARK  status: ('A' for Active; 'I' for Inactive)
REMARK    1  A    between atoms: C2_2  and  C3_3 
REMARK    2  A    between atoms: N1_4  and  C4_6 
REMARK    3  A    between atoms: C7_11  and  C8_12 
ROOT
HETATM    1  C4  UNL     1      43.376   1.119  91.583  1.00  0.00     0.063 A 
HETATM    2  C5  UNL     1      42.889   2.297  92.159  1.00  0.00     0.080 A 
HETATM    3  N2  UNL     1      43.830   3.351  92.452  1.00  0.00    -0.100 NA
HETATM    4  C6  UNL     1      41.597   2.565  92.482  1.00  0.00     0.079 A 
HETATM    5  S1  UNL     1      40.494   1.323  92.136  1.00  0.00    -0.103 SA
HETATM    6  C7  UNL     1      41.229  -0.042  91.441  1.00  0.00    -0.006 A 
HETATM    7  C11 UNL     1      42.598   0.035  91.252  1.00  0.00    -0.020 A 
HETATM    8  C12 UNL     1      43.253  -1.195  90.653  1.00  0.00     0.052 C 
ENDROOT
BRANCH   1   9
HETATM    9  N1  UNL     1      44.603   1.123  91.379  1.00  0.00    -0.368 N 
HETATM   10  C3  UNL     1      45.673   1.084  90.558  1.00  0.00     0.061 C 
ATOM     11  H1  UNL     1      45.008   1.191  92.312  1.00  0.00     0.165 HD
BRANCH  10  12
HETATM   12  C2  UNL     1      46.361   2.424  90.284  1.00  0.00     0.040 C 
HETATM   13  C1  UNL     1      47.854   2.218  90.328  1.00  0.00     0.010 C 
ENDBRANCH  10  12
ENDBRANCH   1   9
BRANCH   6  14
HETATM   14  C8  UNL     1      40.393  -1.205  91.062  1.00  0.00     0.018 C 
HETATM   15  C9  UNL     1      40.057  -1.949  92.363  1.00  0.00     0.015 C 
HETATM   16  C10 UNL     1      39.044  -0.800  90.503  1.00  0.00     0.015 C 
ENDBRANCH   6  14
TORSDOF 3
ENDMDL
