MODEL 1
REMARK VINA RESULT: -6.734221162      0.000      0.000
REMARK  7 active torsions:
REMARK  status: ('A' for Active; 'I' for Inactive)
REMARK    1  A    between atoms: O1_2  and  C2_3 
REMARK    2  A    between atoms: C8_11  and  N2_12 
REMARK    3  A    between atoms: N2_12  and  C9_13 
REMARK    4  A    between atoms: C9_13  and  C10_14 
REMARK    5  A    between atoms: C10_14  and  N3_15 
REMARK    6  A    between atoms: N3_15  and  C11_17 
REMARK    7  A    between atoms: C17_29  and  O2_30 
ROOT
HETATM    1  C2  UNL     1      24.571   3.846   3.729  1.00  0.00     0.103 A 
HETATM    2  C3  UNL     1      24.630   2.473   3.623  1.00  0.00     0.070 A 
HETATM    3  C4  UNL     1      25.778   1.764   3.996  1.00  0.00     0.049 A 
HETATM    4  N1  UNL     1      25.820   0.422   3.889  1.00  0.00    -0.359 N 
ATOM      5  H1  UNL     1      25.001  -0.066   3.529  1.00  0.00     0.166 HD
HETATM    6  C5  UNL     1      26.898  -0.297   4.236  1.00  0.00     0.009 A 
HETATM    7  C6  UNL     1      26.897  -1.799   4.097  1.00  0.00     0.068 C 
HETATM    8  C7  UNL     1      27.984   0.376   4.713  1.00  0.00     0.070 A 
HETATM    9  C8  UNL     1      27.989   1.785   4.846  1.00  0.00     0.120 A 
HETATM   10  C15 UNL     1      26.836   2.496   4.469  1.00  0.00     0.034 A 
HETATM   11  C16 UNL     1      26.768   3.881   4.572  1.00  0.00     0.057 A 
HETATM   12  C17 UNL     1      25.635   4.586   4.205  1.00  0.00     0.102 A 
ENDROOT
BRANCH   9  13
HETATM   13  N2  UNL     1      28.944   2.382   5.267  1.00  0.00    -0.420 NA
BRANCH  13  14
HETATM   14  C9  UNL     1      30.009   2.910   5.859  1.00  0.00     0.175 C 
BRANCH  14  15
HETATM   15  C10 UNL     1      29.925   2.842   7.384  1.00  0.00     0.180 C 
BRANCH  15  16
HETATM   16  N3  UNL     1      29.908   1.450   7.822  1.00  0.00    -0.367 N 
ATOM     17  H3  UNL     1      30.064   0.718   7.130  1.00  0.00     0.161 HD
BRANCH  16  18
HETATM   18  C11 UNL     1      29.686   1.078   9.157  1.00  0.00     0.158 A 
HETATM   19  N4  UNL     1      30.516   0.248   9.812  1.00  0.00    -0.346 N 
HETATM   20  C12 UNL     1      30.310  -0.113  11.088  1.00  0.00     0.132 A 
ATOM     21  H4  UNL     1      31.331  -0.120   9.322  1.00  0.00     0.167 HD
HETATM   22  C13 UNL     1      29.233   0.357  11.777  1.00  0.00     0.121 A 
HETATM   23 CL1  UNL     1      29.007  -0.143  13.440  1.00  0.00    -0.063 Cl
HETATM   24  N5  UNL     1      28.379   1.193  11.151  1.00  0.00    -0.319 N 
HETATM   25  C14 UNL     1      28.604   1.551   9.853  1.00  0.00     0.233 A 
ATOM     26  H5  UNL     1      27.565   1.557  11.648  1.00  0.00     0.169 HD
HETATM   27  F1  UNL     1      27.694   2.393   9.308  1.00  0.00    -0.182 F 
ENDBRANCH  16  18
ENDBRANCH  15  16
ENDBRANCH  14  15
ENDBRANCH  13  14
ENDBRANCH   9  13
BRANCH  12  28
HETATM   28  O2  UNL     1      25.564   5.965   4.306  1.00  0.00    -0.353 OA
HETATM   29  C18 UNL     1      26.190   6.792   3.342  1.00  0.00     0.210 C 
ENDBRANCH  12  28
BRANCH   1  30
HETATM   30  O1  UNL     1      23.433   4.564   3.360  1.00  0.00    -0.353 OA
HETATM   31  C1  UNL     1      22.249   4.342   4.100  1.00  0.00     0.210 C 
ENDBRANCH   1  30
TORSDOF 7
ENDMDL
MODEL 2
REMARK VINA RESULT: -6.701918316      1.007      1.252
REMARK  7 active torsions:
REMARK  status: ('A' for Active; 'I' for Inactive)
REMARK    1  A    between atoms: O1_2  and  C2_3 
REMARK    2  A    between atoms: C8_11  and  N2_12 
REMARK    3  A    between atoms: N2_12  and  C9_13 
REMARK    4  A    between atoms: C9_13  and  C10_14 
REMARK    5  A    between atoms: C10_14  and  N3_15 
REMARK    6  A    between atoms: N3_15  and  C11_17 
REMARK    7  A    between atoms: C17_29  and  O2_30 
ROOT
HETATM    1  C2  UNL     1      24.482   3.852   3.721  1.00  0.00     0.103 A 
HETATM    2  C3  UNL     1      24.573   2.480   3.620  1.00  0.00     0.070 A 
HETATM    3  C4  UNL     1      25.735   1.800   3.998  1.00  0.00     0.049 A 
HETATM    4  N1  UNL     1      25.809   0.459   3.895  1.00  0.00    -0.359 N 
ATOM      5  H1  UNL     1      25.002  -0.050   3.535  1.00  0.00     0.166 HD
HETATM    6  C5  UNL     1      26.902  -0.234   4.248  1.00  0.00     0.009 A 
HETATM    7  C6  UNL     1      26.936  -1.737   4.114  1.00  0.00     0.068 C 
HETATM    8  C7  UNL     1      27.970   0.465   4.726  1.00  0.00     0.070 A 
HETATM    9  C8  UNL     1      27.942   1.874   4.854  1.00  0.00     0.120 A 
HETATM   10  C15 UNL     1      26.775   2.557   4.472  1.00  0.00     0.034 A 
HETATM   11  C16 UNL     1      26.674   3.940   4.569  1.00  0.00     0.057 A 
HETATM   12  C17 UNL     1      25.527   4.618   4.197  1.00  0.00     0.102 A 
ENDROOT
BRANCH   9  13
HETATM   13  N2  UNL     1      28.883   2.495   5.276  1.00  0.00    -0.420 NA
BRANCH  13  14
HETATM   14  C9  UNL     1      29.895   3.087   5.898  1.00  0.00     0.175 C 
BRANCH  14  15
HETATM   15  C10 UNL     1      29.786   2.988   7.420  1.00  0.00     0.180 C 
BRANCH  15  16
HETATM   16  N3  UNL     1      29.574   1.600   7.816  1.00  0.00    -0.367 N 
ATOM     17  H3  UNL     1      29.533   0.885   7.090  1.00  0.00     0.161 HD
BRANCH  16  18
HETATM   18  C11 UNL     1      29.424   1.208   9.156  1.00  0.00     0.158 A 
HETATM   19  N4  UNL     1      28.360   1.576   9.889  1.00  0.00    -0.346 N 
HETATM   20  C12 UNL     1      28.209   1.206  11.171  1.00  0.00     0.132 A 
ATOM     21  H4  UNL     1      27.641   2.156   9.457  1.00  0.00     0.167 HD
HETATM   22  C13 UNL     1      29.147   0.432  11.784  1.00  0.00     0.121 A 
HETATM   23 CL1  UNL     1      28.906  -0.024  13.458  1.00  0.00    -0.063 Cl
HETATM   24  N5  UNL     1      30.229   0.044  11.078  1.00  0.00    -0.319 N 
HETATM   25  C14 UNL     1      30.366   0.428   9.775  1.00  0.00     0.233 A 
ATOM     26  H5  UNL     1      30.945  -0.536  11.517  1.00  0.00     0.169 HD
HETATM   27  F1  UNL     1      31.483  -0.008   9.146  1.00  0.00    -0.182 F 
ENDBRANCH  16  18
ENDBRANCH  15  16
ENDBRANCH  14  15
ENDBRANCH  13  14
ENDBRANCH   9  13
BRANCH  12  28
HETATM   28  O2  UNL     1      25.423   5.995   4.293  1.00  0.00    -0.353 OA
HETATM   29  C18 UNL     1      26.091   6.834   3.369  1.00  0.00     0.210 C 
ENDBRANCH  12  28
BRANCH   1  30
HETATM   30  O1  UNL     1      23.328   4.542   3.346  1.00  0.00    -0.353 OA
HETATM   31  C1  UNL     1      22.153   4.315   4.100  1.00  0.00     0.210 C 
ENDBRANCH   1  30
TORSDOF 7
ENDMDL
MODEL 3
REMARK VINA RESULT: -6.617428287      1.974      2.503
REMARK  7 active torsions:
REMARK  status: ('A' for Active; 'I' for Inactive)
REMARK    1  A    between atoms: O1_2  and  C2_3 
REMARK    2  A    between atoms: C8_11  and  N2_12 
REMARK    3  A    between atoms: N2_12  and  C9_13 
REMARK    4  A    between atoms: C9_13  and  C10_14 
REMARK    5  A    between atoms: C10_14  and  N3_15 
REMARK    6  A    between atoms: N3_15  and  C11_17 
REMARK    7  A    between atoms: C17_29  and  O2_30 
ROOT
HETATM    1  C2  UNL     1      25.968   1.963   3.173  1.00  0.00     0.103 A 
HETATM    2  C3  UNL     1      26.775   0.905   2.813  1.00  0.00     0.070 A 
HETATM    3  C4  UNL     1      27.950   0.616   3.516  1.00  0.00     0.049 A 
HETATM    4  N1  UNL     1      28.728  -0.422   3.153  1.00  0.00    -0.359 N 
ATOM      5  H1  UNL     1      28.445  -0.992   2.355  1.00  0.00     0.166 HD
HETATM    6  C5  UNL     1      29.861  -0.737   3.799  1.00  0.00     0.009 A 
HETATM    7  C6  UNL     1      30.699  -1.910   3.354  1.00  0.00     0.068 C 
HETATM    8  C7  UNL     1      30.222   0.037   4.861  1.00  0.00     0.070 A 
HETATM    9  C8  UNL     1      29.438   1.139   5.282  1.00  0.00     0.120 A 
HETATM   10  C15 UNL     1      28.260   1.429   4.574  1.00  0.00     0.034 A 
HETATM   11  C16 UNL     1      27.440   2.494   4.930  1.00  0.00     0.057 A 
HETATM   12  C17 UNL     1      26.277   2.784   4.238  1.00  0.00     0.102 A 
ENDROOT
BRANCH   9  13
HETATM   13  N2  UNL     1      29.753   1.823   6.220  1.00  0.00    -0.420 NA
BRANCH  13  14
HETATM   14  C9  UNL     1      29.936   2.655   7.238  1.00  0.00     0.175 C 
BRANCH  14  15
HETATM   15  C10 UNL     1      29.093   2.280   8.458  1.00  0.00     0.180 C 
BRANCH  15  16
HETATM   16  N3  UNL     1      29.641   1.087   9.096  1.00  0.00    -0.367 N 
ATOM     17  H3  UNL     1      30.240   0.470   8.547  1.00  0.00     0.161 HD
BRANCH  16  18
HETATM   18  C11 UNL     1      29.377   0.754  10.434  1.00  0.00     0.158 A 
HETATM   19  N4  UNL     1      28.254   1.148  11.057  1.00  0.00    -0.346 N 
HETATM   20  C12 UNL     1      27.995   0.834  12.336  1.00  0.00     0.132 A 
ATOM     21  H4  UNL     1      27.575   1.706  10.540  1.00  0.00     0.167 HD
HETATM   22  C13 UNL     1      28.878   0.092  13.061  1.00  0.00     0.121 A 
HETATM   23 CL1  UNL     1      28.495  -0.291  14.726  1.00  0.00    -0.063 Cl
HETATM   24  N5  UNL     1      30.017  -0.322  12.467  1.00  0.00    -0.319 N 
HETATM   25  C14 UNL     1      30.264   0.006  11.165  1.00  0.00     0.233 A 
ATOM     26  H5  UNL     1      30.693  -0.878  12.990  1.00  0.00     0.169 HD
HETATM   27  F1  UNL     1      31.431  -0.452  10.653  1.00  0.00    -0.182 F 
ENDBRANCH  16  18
ENDBRANCH  15  16
ENDBRANCH  14  15
ENDBRANCH  13  14
ENDBRANCH   9  13
BRANCH  12  28
HETATM   28  O2  UNL     1      25.458   3.844   4.590  1.00  0.00    -0.353 OA
HETATM   29  C18 UNL     1      25.726   5.150   4.114  1.00  0.00     0.210 C 
ENDBRANCH  12  28
BRANCH   1  30
HETATM   30  O1  UNL     1      24.795   2.262   2.479  1.00  0.00    -0.353 OA
HETATM   31  C1  UNL     1      23.890   1.203   2.232  1.00  0.00     0.210 C 
ENDBRANCH   1  30
TORSDOF 7
ENDMDL
MODEL 4
REMARK VINA RESULT: -6.378703174      1.438      1.668
REMARK  7 active torsions:
REMARK  status: ('A' for Active; 'I' for Inactive)
REMARK    1  A    between atoms: O1_2  and  C2_3 
REMARK    2  A    between atoms: C8_11  and  N2_12 
REMARK    3  A    between atoms: N2_12  and  C9_13 
REMARK    4  A    between atoms: C9_13  and  C10_14 
REMARK    5  A    between atoms: C10_14  and  N3_15 
REMARK    6  A    between atoms: N3_15  and  C11_17 
REMARK    7  A    between atoms: C17_29  and  O2_30 
ROOT
HETATM    1  C2  UNL     1      25.084   2.843   3.438  1.00  0.00     0.103 A 
HETATM    2  C3  UNL     1      25.663   1.662   3.024  1.00  0.00     0.070 A 
HETATM    3  C4  UNL     1      26.942   1.291   3.454  1.00  0.00     0.049 A 
HETATM    4  N1  UNL     1      27.494   0.134   3.042  1.00  0.00    -0.359 N 
ATOM      5  H1  UNL     1      26.963  -0.466   2.411  1.00  0.00     0.166 HD
HETATM    6  C5  UNL     1      28.716  -0.262   3.430  1.00  0.00     0.009 A 
HETATM    7  C6  UNL     1      29.292  -1.568   2.941  1.00  0.00     0.068 C 
HETATM    8  C7  UNL     1      29.410   0.554   4.273  1.00  0.00     0.070 A 
HETATM    9  C8  UNL     1      28.874   1.780   4.734  1.00  0.00     0.120 A 
HETATM   10  C15 UNL     1      27.590   2.153   4.301  1.00  0.00     0.034 A 
HETATM   11  C16 UNL     1      26.998   3.341   4.712  1.00  0.00     0.057 A 
HETATM   12  C17 UNL     1      25.733   3.712   4.291  1.00  0.00     0.102 A 
ENDROOT
BRANCH   9  13
HETATM   13  N2  UNL     1      29.483   2.502   5.479  1.00  0.00    -0.420 NA
BRANCH  13  14
HETATM   14  C9  UNL     1      30.099   3.188   6.434  1.00  0.00     0.175 C 
BRANCH  14  15
HETATM   15  C10 UNL     1      29.449   2.997   7.804  1.00  0.00     0.180 C 
BRANCH  15  16
HETATM   16  N3  UNL     1      29.484   1.588   8.182  1.00  0.00    -0.367 N 
ATOM     17  H3  UNL     1      29.606   0.888   7.450  1.00  0.00     0.161 HD
BRANCH  16  18
HETATM   18  C11 UNL     1      29.356   1.156   9.512  1.00  0.00     0.158 A 
HETATM   19  N4  UNL     1      28.290   1.476  10.264  1.00  0.00    -0.346 N 
HETATM   20  C12 UNL     1      28.161   1.068  11.537  1.00  0.00     0.132 A 
ATOM     21  H4  UNL     1      27.553   2.051   9.855  1.00  0.00     0.167 HD
HETATM   22  C13 UNL     1      29.123   0.301  12.120  1.00  0.00     0.121 A 
HETATM   23 CL1  UNL     1      28.910  -0.207  13.782  1.00  0.00    -0.063 Cl
HETATM   24  N5  UNL     1      30.208  -0.041  11.394  1.00  0.00    -0.319 N 
HETATM   25  C14 UNL     1      30.323   0.383  10.101  1.00  0.00     0.233 A 
ATOM     26  H5  UNL     1      30.942  -0.614  11.810  1.00  0.00     0.169 HD
HETATM   27  F1  UNL     1      31.444  -0.008   9.450  1.00  0.00    -0.182 F 
ENDBRANCH  16  18
ENDBRANCH  15  16
ENDBRANCH  14  15
ENDBRANCH  13  14
ENDBRANCH   9  13
BRANCH  12  28
HETATM   28  O2  UNL     1      25.141   4.896   4.699  1.00  0.00    -0.353 OA
HETATM   29  C18 UNL     1      25.448   6.116   4.050  1.00  0.00     0.210 C 
ENDBRANCH  12  28
BRANCH   1  30
HETATM   30  O1  UNL     1      23.810   3.224   3.016  1.00  0.00    -0.353 OA
HETATM   31  C1  UNL     1      22.829   3.448   4.010  1.00  0.00     0.210 C 
ENDBRANCH   1  30
TORSDOF 7
ENDMDL
MODEL 5
REMARK VINA RESULT: -6.309693097      1.662      2.113
REMARK  7 active torsions:
REMARK  status: ('A' for Active; 'I' for Inactive)
REMARK    1  A    between atoms: O1_2  and  C2_3 
REMARK    2  A    between atoms: C8_11  and  N2_12 
REMARK    3  A    between atoms: N2_12  and  C9_13 
REMARK    4  A    between atoms: C9_13  and  C10_14 
REMARK    5  A    between atoms: C10_14  and  N3_15 
REMARK    6  A    between atoms: N3_15  and  C11_17 
REMARK    7  A    between atoms: C17_29  and  O2_30 
ROOT
HETATM    1  C2  UNL     1      25.684   1.780   3.120  1.00  0.00     0.103 A 
HETATM    2  C3  UNL     1      26.552   0.769   2.768  1.00  0.00     0.070 A 
HETATM    3  C4  UNL     1      27.752   0.569   3.458  1.00  0.00     0.049 A 
HETATM    4  N1  UNL     1      28.589  -0.425   3.103  1.00  0.00    -0.359 N 
ATOM      5  H1  UNL     1      28.332  -1.027   2.322  1.00  0.00     0.166 HD
HETATM    6  C5  UNL     1      29.749  -0.654   3.738  1.00  0.00     0.009 A 
HETATM    7  C6  UNL     1      30.654  -1.780   3.303  1.00  0.00     0.068 C 
HETATM    8  C7  UNL     1      30.075   0.163   4.780  1.00  0.00     0.070 A 
HETATM    9  C8  UNL     1      29.229   1.220   5.191  1.00  0.00     0.120 A 
HETATM   10  C15 UNL     1      28.024   1.422   4.496  1.00  0.00     0.034 A 
HETATM   11  C16 UNL     1      27.143   2.440   4.844  1.00  0.00     0.057 A 
HETATM   12  C17 UNL     1      25.955   2.641   4.165  1.00  0.00     0.102 A 
ENDROOT
BRANCH   9  13
HETATM   13  N2  UNL     1      29.513   1.943   6.111  1.00  0.00    -0.420 NA
BRANCH  13  14
HETATM   14  C9  UNL     1      29.761   2.608   7.233  1.00  0.00     0.175 C 
BRANCH  14  15
HETATM   15  C10 UNL     1      30.604   1.798   8.219  1.00  0.00     0.180 C 
BRANCH  15  16
HETATM   16  N3  UNL     1      29.843   0.650   8.701  1.00  0.00    -0.367 N 
ATOM     17  H3  UNL     1      29.550  -0.059   8.029  1.00  0.00     0.161 HD
BRANCH  16  18
HETATM   18  C11 UNL     1      29.498   0.482  10.051  1.00  0.00     0.158 A 
HETATM   19  N4  UNL     1      30.111  -0.419  10.836  1.00  0.00    -0.346 N 
HETATM   20  C12 UNL     1      29.786  -0.587  12.127  1.00  0.00     0.132 A 
ATOM     21  H4  UNL     1      30.850  -0.998  10.436  1.00  0.00     0.167 HD
HETATM   22  C13 UNL     1      28.804   0.165  12.699  1.00  0.00     0.121 A 
HETATM   23 CL1  UNL     1      28.416  -0.090  14.387  1.00  0.00    -0.063 Cl
HETATM   24  N5  UNL     1      28.166   1.081  11.940  1.00  0.00    -0.319 N 
HETATM   25  C14 UNL     1      28.511   1.239  10.628  1.00  0.00     0.233 A 
ATOM     26  H5  UNL     1      27.428   1.655  12.347  1.00  0.00     0.169 HD
HETATM   27  F1  UNL     1      27.817   2.181   9.946  1.00  0.00    -0.182 F 
ENDBRANCH  16  18
ENDBRANCH  15  16
ENDBRANCH  14  15
ENDBRANCH  13  14
ENDBRANCH   9  13
BRANCH  12  28
HETATM   28  O2  UNL     1      25.075   3.654   4.509  1.00  0.00    -0.353 OA
HETATM   29  C18 UNL     1      25.381   5.005   4.215  1.00  0.00     0.210 C 
ENDBRANCH  12  28
BRANCH   1  30
HETATM   30  O1  UNL     1      24.484   1.991   2.439  1.00  0.00    -0.353 OA
HETATM   31  C1  UNL     1      23.892   0.880   1.794  1.00  0.00     0.210 C 
ENDBRANCH   1  30
TORSDOF 7
ENDMDL
