MODEL 1
REMARK VINA RESULT: -9.005045563      0.000      0.000
REMARK  8 active torsions:
REMARK  status: ('A' for Active; 'I' for Inactive)
REMARK    1  A    between atoms: N1_1  and  C1_5 
REMARK    2  A    between atoms: N2_8  and  C4_9 
REMARK    3  A    between atoms: C4_9  and  C5_10 
REMARK    4  A    between atoms: C5_10  and  C6_11 
REMARK    5  A    between atoms: C8_14  and  C9_15 
REMARK    6  A    between atoms: C10_18  and  O1_19 
REMARK    7  A    between atoms: N5_26  and  C12_27 
REMARK    8  A    between atoms: C12_27  and  C13_28 
ROOT
HETATM    1  C6  UNL     1      29.427   1.301   4.980  1.00  0.00     0.014 A 
HETATM    2  C7  UNL     1      30.217   0.201   4.816  1.00  0.00     0.139 A 
HETATM    3  F1  UNL     1      31.221  -0.117   5.666  1.00  0.00    -0.205 F 
HETATM    4  C8  UNL     1      30.036  -0.623   3.707  1.00  0.00     0.080 A 
HETATM    5  C10 UNL     1      29.068  -0.322   2.787  1.00  0.00     0.111 A 
HETATM    6  C11 UNL     1      28.278   0.788   2.960  1.00  0.00     0.112 A 
HETATM    7  N3  UNL     1      27.301   1.330   2.194  1.00  0.00    -0.281 N 
ATOM      8  H3  UNL     1      26.957   0.946   1.315  1.00  0.00     0.188 HD
HETATM    9  N4  UNL     1      26.877   2.408   2.755  1.00  0.00    -0.239 N 
ATOM     10  H4  UNL     1      26.142   3.004   2.375  1.00  0.00     0.208 HD
HETATM   11  N5  UNL     1      27.535   2.649   3.917  1.00  0.00    -0.275 N 
HETATM   12  C19 UNL     1      28.404   1.654   4.050  1.00  0.00     0.092 A 
ENDROOT
BRANCH   1  13
HETATM   13  C5  UNL     1      29.603   2.220   6.088  1.00  0.00     0.074 C 
BRANCH  13  14
HETATM   14  C4  UNL     1      28.872   2.039   7.382  1.00  0.00     0.277 C 
BRANCH  14  15
HETATM   15  N2  UNL     1      29.705   1.879   8.559  1.00  0.00     0.090 N 
HETATM   16  C3  UNL     1      30.642   0.782   8.404  1.00  0.00     0.274 C 
HETATM   17  C2  UNL     1      30.985   0.452   9.838  1.00  0.00     0.064 C 
HETATM   18  C1  UNL     1      29.603   0.389  10.440  1.00  0.00     0.213 C 
HETATM   19  C20 UNL     1      28.853   1.410   9.666  1.00  0.00     0.305 C 
BRANCH  18  20
HETATM   20  N1  UNL     1      29.069  -0.954  10.161  1.00  0.00    -0.073 N 
ATOM     21  H13 UNL     1      28.832  -1.095   9.180  1.00  0.00     0.274 HD
ATOM     22  H12 UNL     1      29.774  -1.688  10.233  1.00  0.00     0.274 HD
ATOM     23  H11 UNL     1      28.277  -1.099  10.788  1.00  0.00     0.274 HD
ENDBRANCH  18  20
ENDBRANCH  14  15
ENDBRANCH  13  14
ENDBRANCH   1  13
BRANCH   4  24
HETATM   24  C9  UNL     1      30.920  -1.804   3.585  1.00  0.00     0.392 C 
HETATM   25  F2  UNL     1      31.734  -1.598   2.462  1.00  0.00    -0.209 F 
HETATM   26  F3  UNL     1      30.217  -2.978   3.452  1.00  0.00    -0.209 F 
ENDBRANCH   4  24
BRANCH  11  27
HETATM   27  C12 UNL     1      27.182   3.743   4.770  1.00  0.00     0.155 C 
BRANCH  27  28
HETATM   28  C13 UNL     1      26.092   4.557   4.138  1.00  0.00     0.005 C 
HETATM   29  C14 UNL     1      24.766   4.609   4.766  1.00  0.00     0.006 C 
HETATM   30  C15 UNL     1      23.833   5.341   3.794  1.00  0.00     0.000 C 
HETATM   31  C16 UNL     1      24.338   6.778   3.751  1.00  0.00     0.000 C 
HETATM   32  C17 UNL     1      25.669   6.763   3.058  1.00  0.00     0.000 C 
HETATM   33  C18 UNL     1      26.638   5.981   3.898  1.00  0.00     0.006 C 
ENDBRANCH  27  28
ENDBRANCH  11  27
BRANCH   5  34
HETATM   34  O1  UNL     1      28.915  -1.154   1.706  1.00  0.00    -0.357 OA
ATOM     35  H1  UNL     1      28.699  -2.065   1.866  1.00  0.00     0.217 HD
ENDBRANCH   5  34
TORSDOF 8
ENDMDL
MODEL 2
REMARK VINA RESULT: -7.589471693      0.891      1.468
REMARK  8 active torsions:
REMARK  status: ('A' for Active; 'I' for Inactive)
REMARK    1  A    between atoms: N1_1  and  C1_5 
REMARK    2  A    between atoms: N2_8  and  C4_9 
REMARK    3  A    between atoms: C4_9  and  C5_10 
REMARK    4  A    between atoms: C5_10  and  C6_11 
REMARK    5  A    between atoms: C8_14  and  C9_15 
REMARK    6  A    between atoms: C10_18  and  O1_19 
REMARK    7  A    between atoms: N5_26  and  C12_27 
REMARK    8  A    between atoms: C12_27  and  C13_28 
ROOT
HETATM    1  C6  UNL     1      28.810   1.179   5.150  1.00  0.00     0.014 A 
HETATM    2  C7  UNL     1      29.800   0.273   4.907  1.00  0.00     0.139 A 
HETATM    3  F1  UNL     1      30.813   0.040   5.775  1.00  0.00    -0.205 F 
HETATM    4  C8  UNL     1      29.822  -0.424   3.701  1.00  0.00     0.080 A 
HETATM    5  C10 UNL     1      28.851  -0.193   2.765  1.00  0.00     0.111 A 
HETATM    6  C11 UNL     1      27.859   0.723   3.017  1.00  0.00     0.112 A 
HETATM    7  N3  UNL     1      26.827   1.168   2.261  1.00  0.00    -0.281 N 
ATOM      8  H3  UNL     1      26.596   0.841   1.323  1.00  0.00     0.188 HD
HETATM    9  N4  UNL     1      26.185   2.070   2.916  1.00  0.00    -0.239 N 
ATOM     10  H4  UNL     1      25.364   2.563   2.564  1.00  0.00     0.208 HD
HETATM   11  N5  UNL     1      26.739   2.279   4.137  1.00  0.00    -0.275 N 
HETATM   12  C19 UNL     1      27.776   1.453   4.206  1.00  0.00     0.092 A 
ENDROOT
BRANCH   1  13
HETATM   13  C5  UNL     1      28.765   1.968   6.366  1.00  0.00     0.074 C 
BRANCH  13  14
HETATM   14  C4  UNL     1      29.621   1.636   7.549  1.00  0.00     0.277 C 
BRANCH  14  15
HETATM   15  N2  UNL     1      28.994   0.819   8.571  1.00  0.00     0.090 N 
HETATM   16  C3  UNL     1      28.826   1.554   9.812  1.00  0.00     0.274 C 
HETATM   17  C2  UNL     1      28.697   0.440  10.825  1.00  0.00     0.064 C 
HETATM   18  C1  UNL     1      29.869  -0.423  10.431  1.00  0.00     0.213 C 
HETATM   19  C20 UNL     1      29.942  -0.240   8.960  1.00  0.00     0.305 C 
BRANCH  18  20
HETATM   20  N1  UNL     1      31.064   0.148  11.074  1.00  0.00    -0.073 N 
ATOM     21  H13 UNL     1      31.321   1.062  10.702  1.00  0.00     0.274 HD
ATOM     22  H12 UNL     1      30.899   0.441  12.037  1.00  0.00     0.274 HD
ATOM     23  H11 UNL     1      31.811  -0.542  10.989  1.00  0.00     0.274 HD
ENDBRANCH  18  20
ENDBRANCH  14  15
ENDBRANCH  13  14
ENDBRANCH   1  13
BRANCH   4  24
HETATM   24  C9  UNL     1      30.919  -1.398   3.497  1.00  0.00     0.392 C 
HETATM   25  F2  UNL     1      31.516  -1.097   2.265  1.00  0.00    -0.209 F 
HETATM   26  F3  UNL     1      30.476  -2.700   3.503  1.00  0.00    -0.209 F 
ENDBRANCH   4  24
BRANCH  11  27
HETATM   27  C12 UNL     1      26.152   3.173   5.088  1.00  0.00     0.155 C 
BRANCH  27  28
HETATM   28  C13 UNL     1      26.278   4.589   4.609  1.00  0.00     0.005 C 
HETATM   29  C14 UNL     1      27.324   4.938   3.640  1.00  0.00     0.006 C 
HETATM   30  C15 UNL     1      27.325   6.466   3.506  1.00  0.00     0.000 C 
HETATM   31  C16 UNL     1      25.999   6.816   2.842  1.00  0.00     0.000 C 
HETATM   32  C17 UNL     1      24.912   6.525   3.834  1.00  0.00     0.000 C 
HETATM   33  C18 UNL     1      24.892   5.047   4.104  1.00  0.00     0.006 C 
ENDBRANCH  27  28
ENDBRANCH  11  27
BRANCH   5  34
HETATM   34  O1  UNL     1      28.901  -0.896   1.587  1.00  0.00    -0.357 OA
ATOM     35  H1  UNL     1      28.331  -1.650   1.488  1.00  0.00     0.217 HD
ENDBRANCH   5  34
TORSDOF 8
ENDMDL
MODEL 3
REMARK VINA RESULT: -5.768086718      1.920      6.245
REMARK  8 active torsions:
REMARK  status: ('A' for Active; 'I' for Inactive)
REMARK    1  A    between atoms: N1_1  and  C1_5 
REMARK    2  A    between atoms: N2_8  and  C4_9 
REMARK    3  A    between atoms: C4_9  and  C5_10 
REMARK    4  A    between atoms: C5_10  and  C6_11 
REMARK    5  A    between atoms: C8_14  and  C9_15 
REMARK    6  A    between atoms: C10_18  and  O1_19 
REMARK    7  A    between atoms: N5_26  and  C12_27 
REMARK    8  A    between atoms: C12_27  and  C13_28 
ROOT
HETATM    1  C6  UNL     1      28.612   1.693   4.801  1.00  0.00     0.014 A 
HETATM    2  C7  UNL     1      28.570   1.225   3.521  1.00  0.00     0.139 A 
HETATM    3  F1  UNL     1      27.714   1.706   2.589  1.00  0.00    -0.205 F 
HETATM    4  C8  UNL     1      29.400   0.172   3.140  1.00  0.00     0.080 A 
HETATM    5  C10 UNL     1      30.251  -0.387   4.054  1.00  0.00     0.111 A 
HETATM    6  C11 UNL     1      30.285   0.090   5.341  1.00  0.00     0.112 A 
HETATM    7  N3  UNL     1      30.983  -0.306   6.433  1.00  0.00    -0.281 N 
ATOM      8  H3  UNL     1      31.667  -1.062   6.457  1.00  0.00     0.188 HD
HETATM    9  N4  UNL     1      30.645   0.426   7.436  1.00  0.00    -0.239 N 
ATOM     10  H4  UNL     1      31.028   0.328   8.376  1.00  0.00     0.208 HD
HETATM   11  N5  UNL     1      29.712   1.346   7.080  1.00  0.00    -0.275 N 
HETATM   12  C19 UNL     1      29.483   1.143   5.789  1.00  0.00     0.092 A 
ENDROOT
BRANCH   1  13
HETATM   13  C5  UNL     1      27.737   2.753   5.266  1.00  0.00     0.074 C 
BRANCH  13  14
HETATM   14  C4  UNL     1      27.512   3.995   4.461  1.00  0.00     0.277 C 
BRANCH  14  15
HETATM   15  N2  UNL     1      26.204   4.118   3.845  1.00  0.00     0.090 N 
HETATM   16  C3  UNL     1      25.494   5.287   4.333  1.00  0.00     0.274 C 
HETATM   17  C2  UNL     1      24.056   4.936   4.024  1.00  0.00     0.064 C 
HETATM   18  C1  UNL     1      23.993   3.535   4.580  1.00  0.00     0.213 C 
HETATM   19  C20 UNL     1      25.360   3.012   4.330  1.00  0.00     0.305 C 
BRANCH  18  20
HETATM   20  N1  UNL     1      23.749   3.653   6.027  1.00  0.00    -0.073 N 
ATOM     21  H13 UNL     1      23.271   4.516   6.283  1.00  0.00     0.274 HD
ATOM     22  H12 UNL     1      23.040   3.004   6.367  1.00  0.00     0.274 HD
ATOM     23  H11 UNL     1      24.650   3.541   6.494  1.00  0.00     0.274 HD
ENDBRANCH  18  20
ENDBRANCH  14  15
ENDBRANCH  13  14
ENDBRANCH   1  13
BRANCH   4  24
HETATM   24  C9  UNL     1      29.312  -0.289   1.735  1.00  0.00     0.392 C 
HETATM   25  F2  UNL     1      29.022  -1.660   1.768  1.00  0.00    -0.209 F 
HETATM   26  F3  UNL     1      30.475  -0.068   1.034  1.00  0.00    -0.209 F 
ENDBRANCH   4  24
BRANCH  11  27
HETATM   27  C12 UNL     1      29.241   2.336   8.000  1.00  0.00     0.155 C 
BRANCH  27  28
HETATM   28  C13 UNL     1      29.290   1.800   9.401  1.00  0.00     0.005 C 
HETATM   29  C14 UNL     1      28.041   1.438  10.085  1.00  0.00     0.006 C 
HETATM   30  C15 UNL     1      28.399   1.121  11.542  1.00  0.00     0.000 C 
HETATM   31  C16 UNL     1      29.236  -0.151  11.487  1.00  0.00     0.000 C 
HETATM   32  C17 UNL     1      30.545   0.202  10.846  1.00  0.00     0.000 C 
HETATM   33  C18 UNL     1      30.285   0.620   9.426  1.00  0.00     0.006 C 
ENDBRANCH  27  28
ENDBRANCH  11  27
BRANCH   5  34
HETATM   34  O1  UNL     1      31.055  -1.422   3.647  1.00  0.00    -0.357 OA
ATOM     35  H1  UNL     1      30.767  -2.311   3.817  1.00  0.00     0.217 HD
ENDBRANCH   5  34
TORSDOF 8
ENDMDL
MODEL 4
REMARK VINA RESULT: -5.669013949      2.985      6.732
REMARK  8 active torsions:
REMARK  status: ('A' for Active; 'I' for Inactive)
REMARK    1  A    between atoms: N1_1  and  C1_5 
REMARK    2  A    between atoms: N2_8  and  C4_9 
REMARK    3  A    between atoms: C4_9  and  C5_10 
REMARK    4  A    between atoms: C5_10  and  C6_11 
REMARK    5  A    between atoms: C8_14  and  C9_15 
REMARK    6  A    between atoms: C10_18  and  O1_19 
REMARK    7  A    between atoms: N5_26  and  C12_27 
REMARK    8  A    between atoms: C12_27  and  C13_28 
ROOT
HETATM    1  C6  UNL     1      26.888   2.224   4.648  1.00  0.00     0.014 A 
HETATM    2  C7  UNL     1      26.152   1.957   3.531  1.00  0.00     0.139 A 
HETATM    3  F1  UNL     1      24.867   2.359   3.384  1.00  0.00    -0.205 F 
HETATM    4  C8  UNL     1      26.704   1.198   2.501  1.00  0.00     0.080 A 
HETATM    5  C10 UNL     1      27.981   0.722   2.618  1.00  0.00     0.111 A 
HETATM    6  C11 UNL     1      28.715   0.994   3.747  1.00  0.00     0.112 A 
HETATM    7  N3  UNL     1      29.957   0.613   4.131  1.00  0.00    -0.281 N 
ATOM      8  H3  UNL     1      30.598   0.043   3.580  1.00  0.00     0.188 HD
HETATM    9  N4  UNL     1      30.198   1.085   5.303  1.00  0.00    -0.239 N 
ATOM     10  H4  UNL     1      31.067   0.939   5.816  1.00  0.00     0.208 HD
HETATM   11  N5  UNL     1      29.145   1.804   5.769  1.00  0.00    -0.275 N 
HETATM   12  C19 UNL     1      28.224   1.750   4.815  1.00  0.00     0.092 A 
ENDROOT
BRANCH   1  13
HETATM   13  C5  UNL     1      26.348   2.966   5.771  1.00  0.00     0.074 C 
BRANCH  13  14
HETATM   14  C4  UNL     1      25.354   4.069   5.578  1.00  0.00     0.277 C 
BRANCH  14  15
HETATM   15  N2  UNL     1      25.410   4.750   4.299  1.00  0.00     0.090 N 
HETATM   16  C3  UNL     1      26.308   5.890   4.340  1.00  0.00     0.274 C 
HETATM   17  C2  UNL     1      25.816   6.723   3.178  1.00  0.00     0.064 C 
HETATM   18  C1  UNL     1      24.333   6.723   3.453  1.00  0.00     0.213 C 
HETATM   19  C20 UNL     1      24.103   5.388   4.059  1.00  0.00     0.305 C 
BRANCH  18  20
HETATM   20  N1  UNL     1      24.075   7.783   4.442  1.00  0.00    -0.073 N 
ATOM     21  H13 UNL     1      23.582   7.447   5.269  1.00  0.00     0.274 HD
ATOM     22  H12 UNL     1      24.920   8.104   4.914  1.00  0.00     0.274 HD
ATOM     23  H11 UNL     1      23.579   8.532   3.958  1.00  0.00     0.274 HD
ENDBRANCH  18  20
ENDBRANCH  14  15
ENDBRANCH  13  14
ENDBRANCH   1  13
BRANCH   4  24
HETATM   24  C9  UNL     1      25.858   0.946   1.313  1.00  0.00     0.392 C 
HETATM   25  F2  UNL     1      25.889   2.108   0.529  1.00  0.00    -0.209 F 
HETATM   26  F3  UNL     1      24.560   0.635   1.646  1.00  0.00    -0.209 F 
ENDBRANCH   4  24
BRANCH  11  27
HETATM   27  C12 UNL     1      29.204   2.505   7.015  1.00  0.00     0.155 C 
BRANCH  27  28
HETATM   28  C13 UNL     1      29.254   1.528   8.153  1.00  0.00     0.005 C 
HETATM   29  C14 UNL     1      30.549   1.003   8.604  1.00  0.00     0.006 C 
HETATM   30  C15 UNL     1      30.257  -0.104   9.625  1.00  0.00     0.000 C 
HETATM   31  C16 UNL     1      29.645   0.605  10.827  1.00  0.00     0.000 C 
HETATM   32  C17 UNL     1      28.292   1.101  10.413  1.00  0.00     0.000 C 
HETATM   33  C18 UNL     1      28.470   2.135   9.337  1.00  0.00     0.006 C 
ENDBRANCH  27  28
ENDBRANCH  11  27
BRANCH   5  34
HETATM   34  O1  UNL     1      28.496  -0.022   1.586  1.00  0.00    -0.357 OA
ATOM     35  H1  UNL     1      28.887  -0.864   1.788  1.00  0.00     0.217 HD
ENDBRANCH   5  34
TORSDOF 8
ENDMDL
MODEL 5
REMARK VINA RESULT: -5.523499716      3.339      5.898
REMARK  8 active torsions:
REMARK  status: ('A' for Active; 'I' for Inactive)
REMARK    1  A    between atoms: N1_1  and  C1_5 
REMARK    2  A    between atoms: N2_8  and  C4_9 
REMARK    3  A    between atoms: C4_9  and  C5_10 
REMARK    4  A    between atoms: C5_10  and  C6_11 
REMARK    5  A    between atoms: C8_14  and  C9_15 
REMARK    6  A    between atoms: C10_18  and  O1_19 
REMARK    7  A    between atoms: N5_26  and  C12_27 
REMARK    8  A    between atoms: C12_27  and  C13_28 
ROOT
HETATM    1  C6  UNL     1      27.899   3.319   4.572  1.00  0.00     0.014 A 
HETATM    2  C7  UNL     1      27.644   4.639   4.341  1.00  0.00     0.139 A 
HETATM    3  F1  UNL     1      28.554   5.614   4.573  1.00  0.00    -0.205 F 
HETATM    4  C8  UNL     1      26.386   5.034   3.891  1.00  0.00     0.080 A 
HETATM    5  C10 UNL     1      25.412   4.096   3.687  1.00  0.00     0.111 A 
HETATM    6  C11 UNL     1      25.676   2.769   3.924  1.00  0.00     0.112 A 
HETATM    7  N3  UNL     1      24.895   1.664   3.851  1.00  0.00    -0.281 N 
ATOM      8  H3  UNL     1      23.919   1.649   3.556  1.00  0.00     0.188 HD
HETATM    9  N4  UNL     1      25.581   0.639   4.213  1.00  0.00    -0.239 N 
ATOM     10  H4  UNL     1      25.220  -0.314   4.247  1.00  0.00     0.208 HD
HETATM   11  N5  UNL     1      26.850   0.989   4.546  1.00  0.00    -0.275 N 
HETATM   12  C19 UNL     1      26.916   2.304   4.372  1.00  0.00     0.092 A 
ENDROOT
BRANCH   1  13
HETATM   13  C5  UNL     1      29.173   2.855   5.087  1.00  0.00     0.074 C 
BRANCH  13  14
HETATM   14  C4  UNL     1      29.515   2.955   6.540  1.00  0.00     0.277 C 
BRANCH  14  15
HETATM   15  N2  UNL     1      29.035   1.871   7.377  1.00  0.00     0.090 N 
HETATM   16  C3  UNL     1      29.002   2.253   8.777  1.00  0.00     0.274 C 
HETATM   17  C2  UNL     1      29.021   0.911   9.472  1.00  0.00     0.064 C 
HETATM   18  C1  UNL     1      30.155   0.241   8.738  1.00  0.00     0.213 C 
HETATM   19  C20 UNL     1      30.045   0.798   7.367  1.00  0.00     0.305 C 
BRANCH  18  20
HETATM   20  N1  UNL     1      31.407   0.689   9.371  1.00  0.00    -0.073 N 
ATOM     21  H13 UNL     1      32.202   0.088   9.156  1.00  0.00     0.274 HD
ATOM     22  H12 UNL     1      31.777   1.547   8.962  1.00  0.00     0.274 HD
ATOM     23  H11 UNL     1      31.225   0.770  10.372  1.00  0.00     0.274 HD
ENDBRANCH  18  20
ENDBRANCH  14  15
ENDBRANCH  13  14
ENDBRANCH   1  13
BRANCH   4  24
HETATM   24  C9  UNL     1      26.172   6.480   3.654  1.00  0.00     0.392 C 
HETATM   25  F2  UNL     1      25.103   6.879   4.467  1.00  0.00    -0.209 F 
HETATM   26  F3  UNL     1      25.896   6.762   2.336  1.00  0.00    -0.209 F 
ENDBRANCH   4  24
BRANCH  11  27
HETATM   27  C12 UNL     1      27.834   0.012   4.897  1.00  0.00     0.155 C 
BRANCH  27  28
HETATM   28  C13 UNL     1      28.552  -0.461   3.667  1.00  0.00     0.005 C 
HETATM   29  C14 UNL     1      28.628   0.412   2.489  1.00  0.00     0.006 C 
HETATM   30  C15 UNL     1      29.235  -0.416   1.350  1.00  0.00     0.000 C 
HETATM   31  C16 UNL     1      30.675  -0.688   1.770  1.00  0.00     0.000 C 
HETATM   32  C17 UNL     1      30.630  -1.629   2.937  1.00  0.00     0.000 C 
HETATM   33  C18 UNL     1      29.961  -0.932   4.088  1.00  0.00     0.006 C 
ENDBRANCH  27  28
ENDBRANCH  11  27
BRANCH   5  34
HETATM   34  O1  UNL     1      24.183   4.517   3.243  1.00  0.00    -0.357 OA
ATOM     35  H1  UNL     1      23.870   4.193   2.407  1.00  0.00     0.217 HD
ENDBRANCH   5  34
TORSDOF 8
ENDMDL
