MODEL 1
REMARK VINA RESULT: -4.910704524      0.000      0.000
REMARK  8 active torsions:
REMARK  status: ('A' for Active; 'I' for Inactive)
REMARK    1  A    between atoms: O1_1  and  N1_3 
REMARK       I    between atoms: C1_5  and  N2_6 
REMARK       I    between atoms: C1_5  and  N6_28 
REMARK    2  A    between atoms: N2_6  and  C2_8 
REMARK    3  A    between atoms: C3_11  and  C4_12 
REMARK    4  A    between atoms: N5_19  and  C8_20 
REMARK    5  A    between atoms: N6_28  and  C14_30 
REMARK    6  A    between atoms: C14_30  and  C15_31 
REMARK    7  A    between atoms: C15_31  and  C16_32 
REMARK    8  A    between atoms: C16_32  and  C17_33 
ROOT
HETATM    1  C2  UNL     1      27.563   1.827   4.964  1.00  0.00     0.720 A 
HETATM    2  N3  UNL     1      28.356   1.209   5.852  1.00  0.00    -0.174 N 
ATOM      3  H3  UNL     1      28.479   0.199   5.919  1.00  0.00     0.185 HD
HETATM    4  C3  UNL     1      28.965   2.110   6.640  1.00  0.00     0.142 A 
HETATM    5  N4  UNL     1      28.517   3.320   6.207  1.00  0.00    -0.265 N 
ATOM      6  H4  UNL     1      28.789   4.223   6.598  1.00  0.00     0.189 HD
HETATM    7  N5  UNL     1      27.676   3.146   5.200  1.00  0.00    -0.083 N 
ENDROOT
BRANCH   1   8
HETATM    8  N2  UNL     1      26.828   1.305   4.056  1.00  0.00    -0.019 N 
HETATM    9  C1  UNL     1      27.102   1.227   2.682  1.00  0.00     0.712 C 
HETATM   10  N1  UNL     1      26.173   1.446   1.831  1.00  0.00    -0.098 N 
HETATM   11  N6  UNL     1      28.400   0.907   2.237  1.00  0.00    -0.224 N 
ATOM     12  H1  UNL     1      26.391   1.384   0.837  1.00  0.00     0.213 HD
ATOM     13  H6  UNL     1      29.134   1.610   2.325  1.00  0.00     0.177 HD
ATOM     14  H2  UNL     1      25.945   0.900   4.366  1.00  0.00     0.203 HD
BRANCH  10  15
HETATM   15  O1  UNL     1      24.890   1.762   2.214  1.00  0.00    -0.276 OA
ATOM     16  H1  UNL     1      24.170   1.790   1.594  1.00  0.00     0.245 HD
ENDBRANCH  10  15
BRANCH  11  17
HETATM   17  C14 UNL     1      28.739  -0.378   1.661  1.00  0.00     0.138 C 
BRANCH  17  18
HETATM   18  C15 UNL     1      29.234  -1.337   2.724  1.00  0.00     0.021 C 
BRANCH  18  19
HETATM   19  C16 UNL     1      30.022  -0.597   3.786  1.00  0.00     0.017 C 
BRANCH  19  20
HETATM   20  C17 UNL     1      31.204  -1.473   4.173  1.00  0.00     0.114 C 
HETATM   21 CL3  UNL     1      30.993  -3.081   3.455  1.00  0.00    -0.130 Cl
ENDBRANCH  19  20
ENDBRANCH  18  19
ENDBRANCH  17  18
ENDBRANCH  11  17
ENDBRANCH   1   8
BRANCH   7  22
HETATM   22  C8  UNL     1      27.029   4.222   4.519  1.00  0.00     0.096 A 
HETATM   23  C9  UNL     1      27.785   5.138   3.827  1.00  0.00     0.036 A 
HETATM   24  C10 UNL     1      27.148   6.172   3.176  1.00  0.00     0.026 A 
HETATM   25  C11 UNL     1      25.775   6.313   3.198  1.00  0.00     0.035 A 
HETATM   26 CL1  UNL     1      24.961   7.632   2.368  1.00  0.00    -0.084 Cl
HETATM   27  C12 UNL     1      25.010   5.392   3.893  1.00  0.00     0.050 A 
HETATM   28  C13 UNL     1      25.646   4.357   4.546  1.00  0.00     0.065 A 
HETATM   29 CL2  UNL     1      24.703   3.188   5.425  1.00  0.00    -0.082 Cl
ENDBRANCH   7  22
BRANCH   4  30
HETATM   30  C4  UNL     1      29.933   1.876   7.762  1.00  0.00     0.190 C 
HETATM   31  C5  UNL     1      30.508   0.476   7.691  1.00  0.00     0.042 C 
HETATM   32  C6  UNL     1      30.795   0.228   9.159  1.00  0.00     0.029 C 
HETATM   33  C7  UNL     1      29.639   0.961   9.801  1.00  0.00     0.168 C 
HETATM   34  O2  UNL     1      29.308   2.012   8.990  1.00  0.00    -0.378 OA
ENDBRANCH   4  30
TORSDOF 8
ENDMDL
MODEL 2
REMARK VINA RESULT: -4.873076729      2.661      5.291
REMARK  8 active torsions:
REMARK  status: ('A' for Active; 'I' for Inactive)
REMARK    1  A    between atoms: O1_1  and  N1_3 
REMARK       I    between atoms: C1_5  and  N2_6 
REMARK       I    between atoms: C1_5  and  N6_28 
REMARK    2  A    between atoms: N2_6  and  C2_8 
REMARK    3  A    between atoms: C3_11  and  C4_12 
REMARK    4  A    between atoms: N5_19  and  C8_20 
REMARK    5  A    between atoms: N6_28  and  C14_30 
REMARK    6  A    between atoms: C14_30  and  C15_31 
REMARK    7  A    between atoms: C15_31  and  C16_32 
REMARK    8  A    between atoms: C16_32  and  C17_33 
ROOT
HETATM    1  C2  UNL     1      28.784   1.640   5.620  1.00  0.00     0.720 A 
HETATM    2  N3  UNL     1      29.364   0.465   5.333  1.00  0.00    -0.174 N 
ATOM      3  H3  UNL     1      29.907  -0.092   5.993  1.00  0.00     0.185 HD
HETATM    4  C3  UNL     1      29.129   0.127   4.055  1.00  0.00     0.142 A 
HETATM    5  N4  UNL     1      28.375   1.144   3.553  1.00  0.00    -0.265 N 
ATOM      6  H4  UNL     1      28.023   1.198   2.597  1.00  0.00     0.189 HD
HETATM    7  N5  UNL     1      28.171   2.050   4.496  1.00  0.00    -0.083 N 
ENDROOT
BRANCH   1   8
HETATM    8  N2  UNL     1      28.788   2.280   6.727  1.00  0.00    -0.019 N 
HETATM    9  C1  UNL     1      28.935   1.746   8.017  1.00  0.00     0.712 C 
HETATM   10  N1  UNL     1      28.213   2.183   8.977  1.00  0.00    -0.098 N 
HETATM   11  N6  UNL     1      29.878   0.726   8.256  1.00  0.00    -0.224 N 
ATOM     12  H1  UNL     1      28.334   1.783   9.907  1.00  0.00     0.213 HD
ATOM     13  H6  UNL     1      29.682  -0.213   7.909  1.00  0.00     0.177 HD
ATOM     14  H2  UNL     1      28.672   3.291   6.667  1.00  0.00     0.203 HD
BRANCH  10  15
HETATM   15  O1  UNL     1      27.277   3.176   8.795  1.00  0.00    -0.276 OA
ATOM     16  H1  UNL     1      27.490   4.096   8.902  1.00  0.00     0.245 HD
ENDBRANCH  10  15
BRANCH  11  17
HETATM   17  C14 UNL     1      31.116   0.954   8.974  1.00  0.00     0.138 C 
BRANCH  17  18
HETATM   18  C15 UNL     1      31.118   0.222  10.300  1.00  0.00     0.021 C 
BRANCH  18  19
HETATM   19  C16 UNL     1      29.831  -0.557  10.482  1.00  0.00     0.017 C 
BRANCH  19  20
HETATM   20  C17 UNL     1      29.203  -0.106  11.792  1.00  0.00     0.114 C 
HETATM   21 CL3  UNL     1      30.462  -0.020  13.038  1.00  0.00    -0.130 Cl
ENDBRANCH  19  20
ENDBRANCH  18  19
ENDBRANCH  17  18
ENDBRANCH  11  17
ENDBRANCH   1   8
BRANCH   7  22
HETATM   22  C8  UNL     1      27.413   3.243   4.290  1.00  0.00     0.096 A 
HETATM   23  C9  UNL     1      28.068   4.442   4.133  1.00  0.00     0.036 A 
HETATM   24  C10 UNL     1      27.325   5.587   3.937  1.00  0.00     0.026 A 
HETATM   25  C11 UNL     1      25.945   5.562   3.893  1.00  0.00     0.035 A 
HETATM   26 CL1  UNL     1      24.996   7.021   3.644  1.00  0.00    -0.084 Cl
HETATM   27  C12 UNL     1      25.282   4.357   4.050  1.00  0.00     0.050 A 
HETATM   28  C13 UNL     1      26.024   3.211   4.247  1.00  0.00     0.065 A 
HETATM   29 CL2  UNL     1      25.212   1.686   4.447  1.00  0.00    -0.082 Cl
ENDBRANCH   7  22
BRANCH   4  30
HETATM   30  C4  UNL     1      29.578  -1.093   3.307  1.00  0.00     0.190 C 
HETATM   31  C5  UNL     1      30.622  -1.853   4.099  1.00  0.00     0.042 C 
HETATM   32  C6  UNL     1      31.399  -2.499   2.969  1.00  0.00     0.029 C 
HETATM   33  C7  UNL     1      31.322  -1.415   1.917  1.00  0.00     0.168 C 
HETATM   34  O2  UNL     1      30.142  -0.747   2.091  1.00  0.00    -0.378 OA
ENDBRANCH   4  30
TORSDOF 8
ENDMDL
MODEL 3
REMARK VINA RESULT: -4.870602511      2.131      5.461
REMARK  8 active torsions:
REMARK  status: ('A' for Active; 'I' for Inactive)
REMARK    1  A    between atoms: O1_1  and  N1_3 
REMARK       I    between atoms: C1_5  and  N2_6 
REMARK       I    between atoms: C1_5  and  N6_28 
REMARK    2  A    between atoms: N2_6  and  C2_8 
REMARK    3  A    between atoms: C3_11  and  C4_12 
REMARK    4  A    between atoms: N5_19  and  C8_20 
REMARK    5  A    between atoms: N6_28  and  C14_30 
REMARK    6  A    between atoms: C14_30  and  C15_31 
REMARK    7  A    between atoms: C15_31  and  C16_32 
REMARK    8  A    between atoms: C16_32  and  C17_33 
ROOT
HETATM    1  C2  UNL     1      28.745   2.729   5.919  1.00  0.00     0.720 A 
HETATM    2  N3  UNL     1      28.966   2.845   7.237  1.00  0.00    -0.174 N 
ATOM      3  H3  UNL     1      28.779   3.683   7.787  1.00  0.00     0.185 HD
HETATM    4  C3  UNL     1      29.467   1.700   7.729  1.00  0.00     0.142 A 
HETATM    5  N4  UNL     1      29.551   0.862   6.659  1.00  0.00    -0.265 N 
ATOM      6  H4  UNL     1      29.895  -0.098   6.690  1.00  0.00     0.189 HD
HETATM    7  N5  UNL     1      29.116   1.484   5.575  1.00  0.00    -0.083 N 
ENDROOT
BRANCH   1   8
HETATM    8  N2  UNL     1      28.276   3.604   5.112  1.00  0.00    -0.019 N 
HETATM    9  C1  UNL     1      27.150   3.479   4.284  1.00  0.00     0.712 C 
HETATM   10  N1  UNL     1      27.183   3.925   3.086  1.00  0.00    -0.098 N 
HETATM   11  N6  UNL     1      25.979   2.864   4.772  1.00  0.00    -0.224 N 
ATOM     12  H1  UNL     1      26.355   3.826   2.500  1.00  0.00     0.213 HD
ATOM     13  H6  UNL     1      25.976   1.851   4.897  1.00  0.00     0.177 HD
ATOM     14  H2  UNL     1      28.776   4.491   5.065  1.00  0.00     0.203 HD
BRANCH  10  15
HETATM   15  O1  UNL     1      28.301   4.533   2.563  1.00  0.00    -0.276 OA
ATOM     16  H1  UNL     1      28.880   4.088   1.954  1.00  0.00     0.245 HD
ENDBRANCH  10  15
BRANCH  11  17
HETATM   17  C14 UNL     1      24.780   3.606   5.101  1.00  0.00     0.138 C 
BRANCH  17  18
HETATM   18  C15 UNL     1      23.824   3.644   3.927  1.00  0.00     0.021 C 
BRANCH  18  19
HETATM   19  C16 UNL     1      23.305   5.050   3.706  1.00  0.00     0.017 C 
BRANCH  19  20
HETATM   20  C17 UNL     1      24.384   6.015   4.171  1.00  0.00     0.114 C 
HETATM   21 CL3  UNL     1      24.700   7.194   2.885  1.00  0.00    -0.130 Cl
ENDBRANCH  19  20
ENDBRANCH  18  19
ENDBRANCH  17  18
ENDBRANCH  11  17
ENDBRANCH   1   8
BRANCH   7  22
HETATM   22  C8  UNL     1      29.072   0.876   4.283  1.00  0.00     0.096 A 
HETATM   23  C9  UNL     1      30.073   1.139   3.377  1.00  0.00     0.036 A 
HETATM   24  C10 UNL     1      30.018   0.548   2.133  1.00  0.00     0.026 A 
HETATM   25  C11 UNL     1      28.989  -0.299   1.773  1.00  0.00     0.035 A 
HETATM   26 CL1  UNL     1      28.917  -1.054   0.186  1.00  0.00    -0.084 Cl
HETATM   27  C12 UNL     1      27.979  -0.566   2.682  1.00  0.00     0.050 A 
HETATM   28  C13 UNL     1      28.033   0.025   3.927  1.00  0.00     0.065 A 
HETATM   29 CL2  UNL     1      26.775  -0.297   5.085  1.00  0.00    -0.082 Cl
ENDBRANCH   7  22
BRANCH   4  30
HETATM   30  C4  UNL     1      29.860   1.375   9.139  1.00  0.00     0.190 C 
HETATM   31  C5  UNL     1      30.414  -0.033   9.230  1.00  0.00     0.042 C 
HETATM   32  C6  UNL     1      30.044  -0.374  10.661  1.00  0.00     0.029 C 
HETATM   33  C7  UNL     1      28.723   0.349  10.792  1.00  0.00     0.168 C 
HETATM   34  O2  UNL     1      28.769   1.454   9.988  1.00  0.00    -0.378 OA
ENDBRANCH   4  30
TORSDOF 8
ENDMDL
MODEL 4
REMARK VINA RESULT: -4.733585932      2.301      3.703
REMARK  8 active torsions:
REMARK  status: ('A' for Active; 'I' for Inactive)
REMARK    1  A    between atoms: O1_1  and  N1_3 
REMARK       I    between atoms: C1_5  and  N2_6 
REMARK       I    between atoms: C1_5  and  N6_28 
REMARK    2  A    between atoms: N2_6  and  C2_8 
REMARK    3  A    between atoms: C3_11  and  C4_12 
REMARK    4  A    between atoms: N5_19  and  C8_20 
REMARK    5  A    between atoms: N6_28  and  C14_30 
REMARK    6  A    between atoms: C14_30  and  C15_31 
REMARK    7  A    between atoms: C15_31  and  C16_32 
REMARK    8  A    between atoms: C16_32  and  C17_33 
ROOT
HETATM    1  C2  UNL     1      29.137   1.943   4.711  1.00  0.00     0.720 A 
HETATM    2  N3  UNL     1      29.760   1.332   5.730  1.00  0.00    -0.174 N 
ATOM      3  H3  UNL     1      30.273   0.454   5.656  1.00  0.00     0.185 HD
HETATM    4  C3  UNL     1      29.611   2.041   6.861  1.00  0.00     0.142 A 
HETATM    5  N4  UNL     1      28.867   3.123   6.505  1.00  0.00    -0.265 N 
ATOM      6  H4  UNL     1      28.572   3.868   7.137  1.00  0.00     0.189 HD
HETATM    7  N5  UNL     1      28.585   3.061   5.213  1.00  0.00    -0.083 N 
ENDROOT
BRANCH   1   8
HETATM    8  N2  UNL     1      29.059   1.572   3.489  1.00  0.00    -0.019 N 
HETATM    9  C1  UNL     1      28.082   0.748   2.912  1.00  0.00     0.712 C 
HETATM   10  N1  UNL     1      28.419  -0.150   2.066  1.00  0.00    -0.098 N 
HETATM   11  N6  UNL     1      26.726   0.907   3.262  1.00  0.00    -0.224 N 
ATOM     12  H1  UNL     1      27.694  -0.739   1.656  1.00  0.00     0.213 HD
ATOM     13  H6  UNL     1      26.419   0.594   4.183  1.00  0.00     0.177 HD
ATOM     14  H2  UNL     1      29.790   1.913   2.866  1.00  0.00     0.203 HD
BRANCH  10  15
HETATM   15  O1  UNL     1      29.728  -0.346   1.691  1.00  0.00    -0.276 OA
ATOM     16  H1  UNL     1      30.078  -1.211   1.510  1.00  0.00     0.245 HD
ENDBRANCH  10  15
BRANCH  11  17
HETATM   17  C14 UNL     1      25.748   1.497   2.371  1.00  0.00     0.138 C 
BRANCH  17  18
HETATM   18  C15 UNL     1      24.359   1.439   2.973  1.00  0.00     0.021 C 
BRANCH  18  19
HETATM   19  C16 UNL     1      23.619   2.740   2.735  1.00  0.00     0.017 C 
BRANCH  19  20
HETATM   20  C17 UNL     1      22.886   3.091   4.021  1.00  0.00     0.114 C 
HETATM   21 CL3  UNL     1      22.299   4.761   3.915  1.00  0.00    -0.130 Cl
ENDBRANCH  19  20
ENDBRANCH  18  19
ENDBRANCH  17  18
ENDBRANCH  11  17
ENDBRANCH   1   8
BRANCH   7  22
HETATM   22  C8  UNL     1      27.816   4.049   4.526  1.00  0.00     0.096 A 
HETATM   23  C9  UNL     1      28.451   4.946   3.700  1.00  0.00     0.036 A 
HETATM   24  C10 UNL     1      27.698   5.897   3.044  1.00  0.00     0.026 A 
HETATM   25  C11 UNL     1      26.327   5.972   3.194  1.00  0.00     0.035 A 
HETATM   26 CL1  UNL     1      25.365   7.184   2.358  1.00  0.00    -0.084 Cl
HETATM   27  C12 UNL     1      25.684   5.070   4.025  1.00  0.00     0.050 A 
HETATM   28  C13 UNL     1      26.437   4.120   4.681  1.00  0.00     0.065 A 
HETATM   29 CL2  UNL     1      25.649   2.976   5.731  1.00  0.00    -0.082 Cl
ENDBRANCH   7  22
BRANCH   4  30
HETATM   30  C4  UNL     1      30.135   1.741   8.234  1.00  0.00     0.190 C 
HETATM   31  C5  UNL     1      30.567   0.292   8.339  1.00  0.00     0.042 C 
HETATM   32  C6  UNL     1      30.335   0.050   9.818  1.00  0.00     0.029 C 
HETATM   33  C7  UNL     1      29.109   0.900  10.056  1.00  0.00     0.168 C 
HETATM   34  O2  UNL     1      29.160   1.960   9.193  1.00  0.00    -0.378 OA
ENDBRANCH   4  30
TORSDOF 8
ENDMDL
MODEL 5
REMARK VINA RESULT: -4.650389421      2.557      3.946
REMARK  8 active torsions:
REMARK  status: ('A' for Active; 'I' for Inactive)
REMARK    1  A    between atoms: O1_1  and  N1_3 
REMARK       I    between atoms: C1_5  and  N2_6 
REMARK       I    between atoms: C1_5  and  N6_28 
REMARK    2  A    between atoms: N2_6  and  C2_8 
REMARK    3  A    between atoms: C3_11  and  C4_12 
REMARK    4  A    between atoms: N5_19  and  C8_20 
REMARK    5  A    between atoms: N6_28  and  C14_30 
REMARK    6  A    between atoms: C14_30  and  C15_31 
REMARK    7  A    between atoms: C15_31  and  C16_32 
REMARK    8  A    between atoms: C16_32  and  C17_33 
ROOT
HETATM    1  C2  UNL     1      29.679   0.607   6.122  1.00  0.00     0.720 A 
HETATM    2  N3  UNL     1      30.113   0.086   7.280  1.00  0.00    -0.174 N 
ATOM      3  H3  UNL     1      30.663  -0.769   7.364  1.00  0.00     0.185 HD
HETATM    4  C3  UNL     1      29.719   0.849   8.312  1.00  0.00     0.142 A 
HETATM    5  N4  UNL     1      29.019   1.872   7.749  1.00  0.00    -0.265 N 
ATOM      6  H4  UNL     1      28.579   2.636   8.263  1.00  0.00     0.189 HD
HETATM    7  N5  UNL     1      28.998   1.723   6.435  1.00  0.00    -0.083 N 
ENDROOT
BRANCH   1   8
HETATM    8  N2  UNL     1      29.857   0.164   4.935  1.00  0.00    -0.019 N 
HETATM    9  C1  UNL     1      29.112  -0.827   4.278  1.00  0.00     0.712 C 
HETATM   10  N1  UNL     1      29.705  -1.707   3.565  1.00  0.00    -0.098 N 
HETATM   11  N6  UNL     1      27.708  -0.853   4.400  1.00  0.00    -0.224 N 
ATOM     12  H1  UNL     1      29.147  -2.419   3.094  1.00  0.00     0.213 HD
ATOM     13  H6  UNL     1      27.300  -1.159   5.283  1.00  0.00     0.177 HD
ATOM     14  H2  UNL     1      30.626   0.577   4.408  1.00  0.00     0.203 HD
BRANCH  10  15
HETATM   15  O1  UNL     1      31.073  -1.725   3.415  1.00  0.00    -0.276 OA
ATOM     16  H1  UNL     1      31.498  -2.203   2.711  1.00  0.00     0.245 HD
ENDBRANCH  10  15
BRANCH  11  17
HETATM   17  C14 UNL     1      26.818  -0.464   3.325  1.00  0.00     0.138 C 
BRANCH  17  18
HETATM   18  C15 UNL     1      27.291   0.813   2.663  1.00  0.00     0.021 C 
BRANCH  18  19
HETATM   19  C16 UNL     1      26.111   1.657   2.226  1.00  0.00     0.017 C 
BRANCH  19  20
HETATM   20  C17 UNL     1      24.904   1.211   3.037  1.00  0.00     0.114 C 
HETATM   21 CL3  UNL     1      23.746   2.550   3.135  1.00  0.00    -0.130 Cl
ENDBRANCH  19  20
ENDBRANCH  18  19
ENDBRANCH  17  18
ENDBRANCH  11  17
ENDBRANCH   1   8
BRANCH   7  22
HETATM   22  C8  UNL     1      28.344   2.632   5.549  1.00  0.00     0.096 A 
HETATM   23  C9  UNL     1      26.979   2.781   5.619  1.00  0.00     0.036 A 
HETATM   24  C10 UNL     1      26.359   3.661   4.757  1.00  0.00     0.026 A 
HETATM   25  C11 UNL     1      27.070   4.395   3.829  1.00  0.00     0.035 A 
HETATM   26 CL1  UNL     1      26.281   5.518   2.729  1.00  0.00    -0.084 Cl
HETATM   27  C12 UNL     1      28.445   4.249   3.756  1.00  0.00     0.050 A 
HETATM   28  C13 UNL     1      29.065   3.368   4.616  1.00  0.00     0.065 A 
HETATM   29 CL2  UNL     1      30.792   3.168   4.542  1.00  0.00    -0.082 Cl
ENDBRANCH   7  22
BRANCH   4  30
HETATM   30  C4  UNL     1      29.974   0.653   9.777  1.00  0.00     0.190 C 
HETATM   31  C5  UNL     1      29.818  -0.805  10.158  1.00  0.00     0.042 C 
HETATM   32  C6  UNL     1      29.389  -0.660  11.606  1.00  0.00     0.029 C 
HETATM   33  C7  UNL     1      28.557   0.600  11.529  1.00  0.00     0.168 C 
HETATM   34  O2  UNL     1      29.077   1.385  10.537  1.00  0.00    -0.378 OA
ENDBRANCH   4  30
TORSDOF 8
ENDMDL
