MODEL 1
REMARK VINA RESULT: -6.588021877      0.000      0.000
REMARK  0 active torsions:
REMARK  status: ('A' for Active; 'I' for Inactive)
ROOT
HETATM    1  C1  UNL     1      15.073  11.555  -7.548  1.00  0.00     0.036 C 
HETATM    2  C2  UNL     1      15.330  10.564  -8.646  1.00  0.00     0.050 C 
HETATM    3  C3  UNL     1      14.451   9.371  -8.421  1.00  0.00     0.036 C 
HETATM    4  C4  UNL     1      16.813  10.204  -8.623  1.00  0.00     0.031 C 
HETATM    5  C5  UNL     1      17.522  11.374  -9.316  1.00  0.00     0.044 C 
HETATM    6  C6  UNL     1      17.185  11.206 -10.799  1.00  0.00     0.108 C 
HETATM    7  C7  UNL     1      18.297  10.458 -11.446  1.00  0.00     0.068 C 
HETATM    8  C8  UNL     1      18.794  11.380 -12.520  1.00  0.00     0.170 C 
HETATM    9  O1  UNL     1      18.254  12.624 -12.312  1.00  0.00    -0.388 OA
HETATM   10  C9  UNL     1      17.134  12.505 -11.526  1.00  0.00     0.207 C 
HETATM   11  O2  UNL     1      15.949  10.594 -10.893  1.00  0.00    -0.272 OA
HETATM   12  N1  UNL     1      15.104  11.148  -9.976  1.00  0.00    -0.090 NA
ENDROOT
TORSDOF 0
ENDMDL
MODEL 2
REMARK VINA RESULT: -6.303255254      1.537      2.002
REMARK  0 active torsions:
REMARK  status: ('A' for Active; 'I' for Inactive)
ROOT
HETATM    1  C1  UNL     1      13.008  12.449  -7.974  1.00  0.00     0.036 C 
HETATM    2  C2  UNL     1      14.068  11.399  -7.800  1.00  0.00     0.050 C 
HETATM    3  C3  UNL     1      13.800  10.665  -6.522  1.00  0.00     0.036 C 
HETATM    4  C4  UNL     1      15.427  12.094  -7.797  1.00  0.00     0.031 C 
HETATM    5  C5  UNL     1      15.742  12.372  -9.271  1.00  0.00     0.044 C 
HETATM    6  C6  UNL     1      16.094  11.002  -9.857  1.00  0.00     0.108 C 
HETATM    7  C7  UNL     1      17.572  10.847  -9.816  1.00  0.00     0.068 C 
HETATM    8  C8  UNL     1      17.966  10.632 -11.248  1.00  0.00     0.170 C 
HETATM    9  O1  UNL     1      16.894  10.943 -12.047  1.00  0.00    -0.388 OA
HETATM   10  C9  UNL     1      15.744  10.888 -11.300  1.00  0.00     0.207 C 
HETATM   11  O2  UNL     1      15.394  10.040  -9.151  1.00  0.00    -0.272 OA
HETATM   12  N1  UNL     1      14.118  10.476  -8.943  1.00  0.00    -0.090 NA
ENDROOT
TORSDOF 0
ENDMDL
MODEL 3
REMARK VINA RESULT: -6.276993004      1.843      4.332
REMARK  0 active torsions:
REMARK  status: ('A' for Active; 'I' for Inactive)
ROOT
HETATM    1  C1  UNL     1      19.689  11.880 -12.287  1.00  0.00     0.036 C 
HETATM    2  C2  UNL     1      18.342  11.218 -12.307  1.00  0.00     0.050 C 
HETATM    3  C3  UNL     1      18.301  10.267 -13.463  1.00  0.00     0.036 C 
HETATM    4  C4  UNL     1      17.279  12.309 -12.415  1.00  0.00     0.031 C 
HETATM    5  C5  UNL     1      17.139  12.877 -10.998  1.00  0.00     0.044 C 
HETATM    6  C6  UNL     1      16.392  11.792 -10.218  1.00  0.00     0.108 C 
HETATM    7  C7  UNL     1      14.942  12.121 -10.239  1.00  0.00     0.068 C 
HETATM    8  C8  UNL     1      14.565  12.247  -8.792  1.00  0.00     0.170 C 
HETATM    9  O1  UNL     1      15.716  12.302  -8.045  1.00  0.00    -0.388 OA
HETATM   10  C9  UNL     1      16.752  11.773  -8.773  1.00  0.00     0.207 C 
HETATM   11  O2  UNL     1      16.712  10.566 -10.774  1.00  0.00    -0.272 OA
HETATM   12  N1  UNL     1      18.050  10.531 -11.041  1.00  0.00    -0.090 NA
ENDROOT
TORSDOF 0
ENDMDL
MODEL 4
REMARK VINA RESULT: -6.249828819      1.436      4.418
REMARK  0 active torsions:
REMARK  status: ('A' for Active; 'I' for Inactive)
ROOT
HETATM    1  C1  UNL     1      18.316  10.354 -11.501  1.00  0.00     0.036 C 
HETATM    2  C2  UNL     1      17.322  11.447 -11.230  1.00  0.00     0.050 C 
HETATM    3  C3  UNL     1      17.481  12.501 -12.283  1.00  0.00     0.036 C 
HETATM    4  C4  UNL     1      17.581  11.985  -9.825  1.00  0.00     0.031 C 
HETATM    5  C5  UNL     1      16.936  10.967  -8.878  1.00  0.00     0.044 C 
HETATM    6  C6  UNL     1      15.431  11.199  -9.028  1.00  0.00     0.108 C 
HETATM    7  C7  UNL     1      14.995  12.125  -7.948  1.00  0.00     0.068 C 
HETATM    8  C8  UNL     1      13.956  11.353  -7.189  1.00  0.00     0.170 C 
HETATM    9  O1  UNL     1      14.015  10.039  -7.581  1.00  0.00    -0.388 OA
HETATM   10  C9  UNL     1      14.635   9.961  -8.804  1.00  0.00     0.207 C 
HETATM   11  O2  UNL     1      15.191  11.658 -10.310  1.00  0.00    -0.272 OA
HETATM   12  N1  UNL     1      15.944  10.937 -11.191  1.00  0.00    -0.090 NA
ENDROOT
TORSDOF 0
ENDMDL
MODEL 5
REMARK VINA RESULT: -6.239010222      2.732      5.321
REMARK  0 active torsions:
REMARK  status: ('A' for Active; 'I' for Inactive)
ROOT
HETATM    1  C1  UNL     1      15.633  11.194 -10.646  1.00  0.00     0.036 C 
HETATM    2  C2  UNL     1      16.040  11.112  -9.203  1.00  0.00     0.050 C 
HETATM    3  C3  UNL     1      17.523  10.910  -9.142  1.00  0.00     0.036 C 
HETATM    4  C4  UNL     1      15.271   9.962  -8.558  1.00  0.00     0.031 C 
HETATM    5  C5  UNL     1      13.870  10.520  -8.281  1.00  0.00     0.044 C 
HETATM    6  C6  UNL     1      14.059  11.471  -7.096  1.00  0.00     0.108 C 
HETATM    7  C7  UNL     1      13.751  10.723  -5.848  1.00  0.00     0.068 C 
HETATM    8  C8  UNL     1      12.631  11.496  -5.215  1.00  0.00     0.170 C 
HETATM    9  O1  UNL     1      12.142  12.388  -6.136  1.00  0.00    -0.388 OA
HETATM   10  C9  UNL     1      13.089  12.600  -7.106  1.00  0.00     0.207 C 
HETATM   11  O2  UNL     1      15.342  11.984  -7.158  1.00  0.00    -0.272 OA
HETATM   12  N1  UNL     1      15.634  12.308  -8.451  1.00  0.00    -0.090 NA
ENDROOT
TORSDOF 0
ENDMDL
