MODEL 1
REMARK VINA RESULT: -4.971014185      0.000      0.000
REMARK  0 active torsions:
REMARK  status: ('A' for Active; 'I' for Inactive)
ROOT
HETATM    1  C1  UNL     1      16.554  10.354  -7.979  1.00  0.00     0.013 C 
HETATM    2  C2  UNL     1      15.361  11.151  -7.533  1.00  0.00     0.074 C 
HETATM    3  S1  UNL     1      14.567  11.826  -9.043  1.00  0.00    -0.166 SA
HETATM    4  C3  UNL     1      15.511  11.128 -10.427  1.00  0.00     0.124 C 
HETATM    5  C4  UNL     1      16.953  11.455 -10.202  1.00  0.00     0.181 C 
HETATM    6  C5  UNL     1      17.482  11.123  -8.867  1.00  0.00     0.052 C 
HETATM    7  N1  UNL     1      17.117  12.887 -10.486  1.00  0.00    -0.056 N 
ATOM      8  H11 UNL     1      16.698  13.490  -9.778  1.00  0.00     0.279 HD
ATOM      9  H12 UNL     1      16.557  13.210 -11.275  1.00  0.00     0.279 HD
HETATM   10  C6  UNL     1      18.539  13.108 -10.662  1.00  0.00     0.244 C 
HETATM   11  C7  UNL     1      18.939  12.305 -11.904  1.00  0.00     0.104 C 
HETATM   12  S2  UNL     1      18.009  10.760 -11.535  1.00  0.00    -0.128 SA
ENDROOT
TORSDOF 0
ENDMDL
MODEL 2
REMARK VINA RESULT: -4.892995540      1.831      4.135
REMARK  0 active torsions:
REMARK  status: ('A' for Active; 'I' for Inactive)
ROOT
HETATM    1  C1  UNL     1      17.877  11.723  -9.406  1.00  0.00     0.013 C 
HETATM    2  C2  UNL     1      18.096  11.001 -10.705  1.00  0.00     0.074 C 
HETATM    3  S1  UNL     1      16.519  11.074 -11.638  1.00  0.00    -0.166 SA
HETATM    4  C3  UNL     1      15.416  12.101 -10.625  1.00  0.00     0.124 C 
HETATM    5  C4  UNL     1      15.378  11.506  -9.253  1.00  0.00     0.181 C 
HETATM    6  C5  UNL     1      16.690  11.224  -8.643  1.00  0.00     0.052 C 
HETATM    7  N1  UNL     1      14.570  10.282  -9.339  1.00  0.00    -0.056 N 
ATOM      8  H11 UNL     1      15.036   9.523  -9.836  1.00  0.00     0.279 HD
ATOM      9  H12 UNL     1      13.769  10.369  -9.965  1.00  0.00     0.279 HD
HETATM   10  C6  UNL     1      14.202   9.939  -7.979  1.00  0.00     0.244 C 
HETATM   11  C7  UNL     1      13.317  11.087  -7.481  1.00  0.00     0.104 C 
HETATM   12  S2  UNL     1      14.313  12.493  -8.129  1.00  0.00    -0.128 SA
ENDROOT
TORSDOF 0
ENDMDL
MODEL 3
REMARK VINA RESULT: -4.875453735      1.311      4.061
REMARK  0 active torsions:
REMARK  status: ('A' for Active; 'I' for Inactive)
ROOT
HETATM    1  C1  UNL     1      18.627  13.125 -11.771  1.00  0.00     0.013 C 
HETATM    2  C2  UNL     1      19.653  12.172 -12.316  1.00  0.00     0.074 C 
HETATM    3  S1  UNL     1      18.849  10.529 -12.448  1.00  0.00    -0.166 SA
HETATM    4  C3  UNL     1      17.120  10.807 -11.970  1.00  0.00     0.124 C 
HETATM    5  C4  UNL     1      17.122  11.467 -10.629  1.00  0.00     0.181 C 
HETATM    6  C5  UNL     1      17.994  12.649 -10.500  1.00  0.00     0.052 C 
HETATM    7  N1  UNL     1      17.490  10.440  -9.645  1.00  0.00    -0.056 N 
ATOM      8  H11 UNL     1      18.471  10.164  -9.696  1.00  0.00     0.279 HD
ATOM      9  H12 UNL     1      17.091   9.524  -9.849  1.00  0.00     0.279 HD
HETATM   10  C6  UNL     1      17.104  10.960  -8.348  1.00  0.00     0.244 C 
HETATM   11  C7  UNL     1      15.577  11.091  -8.385  1.00  0.00     0.104 C 
HETATM   12  S2  UNL     1      15.413  11.830 -10.063  1.00  0.00    -0.128 SA
ENDROOT
TORSDOF 0
ENDMDL
MODEL 4
REMARK VINA RESULT: -4.866700320      1.206      1.206
REMARK  0 active torsions:
REMARK  status: ('A' for Active; 'I' for Inactive)
ROOT
HETATM    1  C1  UNL     1      16.281   9.397  -7.858  1.00  0.00     0.013 C 
HETATM    2  C2  UNL     1      15.522  10.083  -6.758  1.00  0.00     0.074 C 
HETATM    3  S1  UNL     1      14.508  11.397  -7.537  1.00  0.00    -0.166 SA
HETATM    4  C3  UNL     1      14.780  11.209  -9.322  1.00  0.00     0.124 C 
HETATM    5  C4  UNL     1      16.256  11.245  -9.561  1.00  0.00     0.181 C 
HETATM    6  C5  UNL     1      17.061  10.343  -8.718  1.00  0.00     0.052 C 
HETATM    7  N1  UNL     1      16.685  12.640  -9.389  1.00  0.00    -0.056 N 
ATOM      8  H11 UNL     1      16.666  12.952  -8.418  1.00  0.00     0.279 HD
ATOM      9  H12 UNL     1      16.014  13.317  -9.752  1.00  0.00     0.279 HD
HETATM   10  C6  UNL     1      17.994  12.743 -10.002  1.00  0.00     0.244 C 
HETATM   11  C7  UNL     1      17.783  12.467 -11.495  1.00  0.00     0.104 C 
HETATM   12  S2  UNL     1      16.648  11.026 -11.342  1.00  0.00    -0.128 SA
ENDROOT
TORSDOF 0
ENDMDL
MODEL 5
REMARK VINA RESULT: -4.796106128      2.398      4.838
REMARK  0 active torsions:
REMARK  status: ('A' for Active; 'I' for Inactive)
ROOT
HETATM    1  C1  UNL     1      18.505  15.425 -12.423  1.00  0.00     0.013 C 
HETATM    2  C2  UNL     1      19.711  16.099 -11.835  1.00  0.00     0.074 C 
HETATM    3  S1  UNL     1      20.924  14.783 -11.432  1.00  0.00    -0.166 SA
HETATM    4  C3  UNL     1      20.173  13.245 -12.039  1.00  0.00     0.124 C 
HETATM    5  C4  UNL     1      18.811  13.137 -11.431  1.00  0.00     0.181 C 
HETATM    6  C5  UNL     1      17.957  14.331 -11.560  1.00  0.00     0.052 C 
HETATM    7  N1  UNL     1      18.999  12.782 -10.017  1.00  0.00    -0.056 N 
ATOM      8  H11 UNL     1      19.372  13.546  -9.454  1.00  0.00     0.279 HD
ATOM      9  H12 UNL     1      19.766  12.127  -9.864  1.00  0.00     0.279 HD
HETATM   10  C6  UNL     1      17.720  12.290  -9.546  1.00  0.00     0.244 C 
HETATM   11  C7  UNL     1      17.438  11.014 -10.348  1.00  0.00     0.104 C 
HETATM   12  S2  UNL     1      17.942  11.625 -12.009  1.00  0.00    -0.128 SA
ENDROOT
TORSDOF 0
ENDMDL
