MODEL 1
REMARK VINA RESULT: -7.233058787      0.000      0.000
REMARK  8 active torsions:
REMARK  status: ('A' for Active; 'I' for Inactive)
REMARK    1  A    between atoms: N1_1  and  C1_4 
REMARK    2  A    between atoms: C3_8  and  C4_9 
REMARK    3  A    between atoms: N3_10  and  C5_12 
REMARK    4  A    between atoms: C5_12  and  C6_13 
REMARK    5  A    between atoms: C6_13  and  C7_14 
REMARK    6  A    between atoms: C7_14  and  C8_15 
REMARK    7  A    between atoms: C8_15  and  N4_16 
REMARK    8  A    between atoms: N4_16  and  O1_17 
ROOT
HETATM    1  C1  UNL     1       1.548  16.087  23.617  1.00  0.00     0.678 A 
HETATM    2  N2  UNL     1       0.996  15.661  22.456  1.00  0.00    -0.201 N 
ATOM      3  H2  UNL     1      -0.019  15.652  22.362  1.00  0.00     0.183 HD
HETATM    4  C2  UNL     1       1.742  15.254  21.438  1.00  0.00     0.124 A 
HETATM    5  C3  UNL     1       3.120  15.250  21.518  1.00  0.00     0.063 A 
HETATM    6  C9  UNL     1       3.675  15.688  22.710  1.00  0.00     0.272 A 
HETATM    7  O2  UNL     1       4.923  15.713  22.859  1.00  0.00    -0.267 OA
HETATM    8  N5  UNL     1       2.889  16.093  23.723  1.00  0.00    -0.156 N 
ATOM      9  H5  UNL     1       3.319  16.412  24.591  1.00  0.00     0.187 HD
ENDROOT
BRANCH   5  10
HETATM   10  C4  UNL     1       3.958  14.809  20.415  1.00  0.00     0.101 C 
HETATM   11  N3  UNL     1       3.678  13.799  19.678  1.00  0.00    -0.398 N 
ATOM     12  H3  UNL     1       2.831  13.259  19.851  1.00  0.00     0.158 HD
BRANCH  11  13
HETATM   13  C5  UNL     1       4.595  13.416  18.565  1.00  0.00     0.119 C 
BRANCH  13  14
HETATM   14  C6  UNL     1       3.952  12.387  17.713  1.00  0.00     0.021 C 
BRANCH  14  15
HETATM   15  C7  UNL     1       4.696  11.210  17.275  1.00  0.00     0.020 C 
BRANCH  15  16
HETATM   16  C8  UNL     1       4.054   9.881  17.321  1.00  0.00     0.142 C 
BRANCH  16  17
HETATM   17  N4  UNL     1       4.798   8.761  17.738  1.00  0.00    -0.104 NA
BRANCH  17  18
HETATM   18  O1  UNL     1       4.238   8.196  18.833  1.00  0.00    -0.296 OA
ATOM     19  H1  UNL     1       4.905   7.953  19.464  1.00  0.00     0.238 HD
ENDBRANCH  17  18
ENDBRANCH  16  17
ENDBRANCH  15  16
ENDBRANCH  14  15
ENDBRANCH  13  14
ENDBRANCH  11  13
ENDBRANCH   5  10
BRANCH   1  20
HETATM   20  N1  UNL     1       0.808  16.485  24.612  1.00  0.00    -0.234 N 
ATOM     21  H12 UNL     1       1.071  16.259  25.571  1.00  0.00     0.174 HD
ATOM     22  H11 UNL     1      -0.043  17.026  24.457  1.00  0.00     0.174 HD
ENDBRANCH   1  20
TORSDOF 8
ENDMDL
MODEL 2
REMARK VINA RESULT: -7.185767418      1.711      2.111
REMARK  8 active torsions:
REMARK  status: ('A' for Active; 'I' for Inactive)
REMARK    1  A    between atoms: N1_1  and  C1_4 
REMARK    2  A    between atoms: C3_8  and  C4_9 
REMARK    3  A    between atoms: N3_10  and  C5_12 
REMARK    4  A    between atoms: C5_12  and  C6_13 
REMARK    5  A    between atoms: C6_13  and  C7_14 
REMARK    6  A    between atoms: C7_14  and  C8_15 
REMARK    7  A    between atoms: C8_15  and  N4_16 
REMARK    8  A    between atoms: N4_16  and  O1_17 
ROOT
HETATM    1  C1  UNL     1       3.669  16.109  22.374  1.00  0.00     0.678 A 
HETATM    2  N2  UNL     1       3.722  16.857  21.246  1.00  0.00    -0.201 N 
ATOM      3  H2  UNL     1       3.452  17.840  21.290  1.00  0.00     0.183 HD
HETATM    4  C2  UNL     1       4.115  16.346  20.088  1.00  0.00     0.124 A 
HETATM    5  C3  UNL     1       4.490  15.022  19.982  1.00  0.00     0.063 A 
HETATM    6  C9  UNL     1       4.433  14.264  21.141  1.00  0.00     0.272 A 
HETATM    7  O2  UNL     1       4.759  13.050  21.123  1.00  0.00    -0.267 OA
HETATM    8  N5  UNL     1       4.029  14.815  22.299  1.00  0.00    -0.156 N 
ATOM      9  H5  UNL     1       3.995  14.238  23.140  1.00  0.00     0.187 HD
ENDROOT
BRANCH   5  10
HETATM   10  C4  UNL     1       4.924  14.440  18.723  1.00  0.00     0.101 C 
HETATM   11  N3  UNL     1       4.193  13.658  18.018  1.00  0.00    -0.398 N 
ATOM     12  H3  UNL     1       3.254  13.416  18.333  1.00  0.00     0.158 HD
BRANCH  11  13
HETATM   13  C5  UNL     1       4.718  13.105  16.736  1.00  0.00     0.119 C 
BRANCH  13  14
HETATM   14  C6  UNL     1       5.130  11.693  16.927  1.00  0.00     0.021 C 
BRANCH  14  15
HETATM   15  C7  UNL     1       4.137  10.656  17.189  1.00  0.00     0.020 C 
BRANCH  15  16
HETATM   16  C8  UNL     1       4.472   9.242  16.927  1.00  0.00     0.142 C 
BRANCH  16  17
HETATM   17  N4  UNL     1       5.134   8.487  17.913  1.00  0.00    -0.104 NA
BRANCH  17  18
HETATM   18  O1  UNL     1       4.280   8.143  18.906  1.00  0.00    -0.296 OA
ATOM     19  H1  UNL     1       4.157   8.868  19.508  1.00  0.00     0.238 HD
ENDBRANCH  17  18
ENDBRANCH  16  17
ENDBRANCH  15  16
ENDBRANCH  14  15
ENDBRANCH  13  14
ENDBRANCH  11  13
ENDBRANCH   5  10
BRANCH   1  20
HETATM   20  N1  UNL     1       3.282  16.619  23.508  1.00  0.00    -0.234 N 
ATOM     21  H12 UNL     1       3.961  17.047  24.138  1.00  0.00     0.174 HD
ATOM     22  H11 UNL     1       2.302  16.603  23.789  1.00  0.00     0.174 HD
ENDBRANCH   1  20
TORSDOF 8
ENDMDL
MODEL 3
REMARK VINA RESULT: -7.156748532      2.633      3.101
REMARK  8 active torsions:
REMARK  status: ('A' for Active; 'I' for Inactive)
REMARK    1  A    between atoms: N1_1  and  C1_4 
REMARK    2  A    between atoms: C3_8  and  C4_9 
REMARK    3  A    between atoms: N3_10  and  C5_12 
REMARK    4  A    between atoms: C5_12  and  C6_13 
REMARK    5  A    between atoms: C6_13  and  C7_14 
REMARK    6  A    between atoms: C7_14  and  C8_15 
REMARK    7  A    between atoms: C8_15  and  N4_16 
REMARK    8  A    between atoms: N4_16  and  O1_17 
ROOT
HETATM    1  C1  UNL     1       3.296  17.687  20.625  1.00  0.00     0.678 A 
HETATM    2  N2  UNL     1       3.649  16.489  21.149  1.00  0.00    -0.201 N 
ATOM      3  H2  UNL     1       3.472  16.308  22.136  1.00  0.00     0.183 HD
HETATM    4  C2  UNL     1       4.217  15.546  20.410  1.00  0.00     0.124 A 
HETATM    5  C3  UNL     1       4.475  15.747  19.069  1.00  0.00     0.063 A 
HETATM    6  C9  UNL     1       4.110  16.976  18.542  1.00  0.00     0.272 A 
HETATM    7  O2  UNL     1       4.313  17.233  17.329  1.00  0.00    -0.267 OA
HETATM    8  N5  UNL     1       3.535  17.910  19.320  1.00  0.00    -0.156 N 
ATOM      9  H5  UNL     1       3.275  18.808  18.912  1.00  0.00     0.187 HD
ENDROOT
BRANCH   5  10
HETATM   10  C4  UNL     1       5.097  14.728  18.240  1.00  0.00     0.101 C 
HETATM   11  N3  UNL     1       4.472  14.086  17.324  1.00  0.00    -0.398 N 
ATOM     12  H3  UNL     1       3.487  14.279  17.147  1.00  0.00     0.158 HD
BRANCH  11  13
HETATM   13  C5  UNL     1       5.189  13.056  16.519  1.00  0.00     0.119 C 
BRANCH  13  14
HETATM   14  C6  UNL     1       5.217  11.769  17.255  1.00  0.00     0.021 C 
BRANCH  14  15
HETATM   15  C7  UNL     1       4.059  10.881  17.250  1.00  0.00     0.020 C 
BRANCH  15  16
HETATM   16  C8  UNL     1       4.235   9.451  16.927  1.00  0.00     0.142 C 
BRANCH  16  17
HETATM   17  N4  UNL     1       5.026   8.640  17.763  1.00  0.00    -0.104 NA
BRANCH  17  18
HETATM   18  O1  UNL     1       4.307   8.200  18.821  1.00  0.00    -0.296 OA
ATOM     19  H1  UNL     1       3.410   8.021  18.567  1.00  0.00     0.238 HD
ENDBRANCH  17  18
ENDBRANCH  16  17
ENDBRANCH  15  16
ENDBRANCH  14  15
ENDBRANCH  13  14
ENDBRANCH  11  13
ENDBRANCH   5  10
BRANCH   1  20
HETATM   20  N1  UNL     1       2.737  18.608  21.357  1.00  0.00    -0.234 N 
ATOM     21  H12 UNL     1       1.721  18.665  21.425  1.00  0.00     0.174 HD
ATOM     22  H11 UNL     1       3.297  19.286  21.875  1.00  0.00     0.174 HD
ENDBRANCH   1  20
TORSDOF 8
ENDMDL
MODEL 4
REMARK VINA RESULT: -7.114520174      1.733      1.955
REMARK  8 active torsions:
REMARK  status: ('A' for Active; 'I' for Inactive)
REMARK    1  A    between atoms: N1_1  and  C1_4 
REMARK    2  A    between atoms: C3_8  and  C4_9 
REMARK    3  A    between atoms: N3_10  and  C5_12 
REMARK    4  A    between atoms: C5_12  and  C6_13 
REMARK    5  A    between atoms: C6_13  and  C7_14 
REMARK    6  A    between atoms: C7_14  and  C8_15 
REMARK    7  A    between atoms: C8_15  and  N4_16 
REMARK    8  A    between atoms: N4_16  and  O1_17 
ROOT
HETATM    1  C1  UNL     1       2.921  17.850  21.657  1.00  0.00     0.678 A 
HETATM    2  N2  UNL     1       3.100  18.027  20.326  1.00  0.00    -0.201 N 
ATOM      3  H2  UNL     1       2.775  18.890  19.891  1.00  0.00     0.183 HD
HETATM    4  C2  UNL     1       3.688  17.107  19.574  1.00  0.00     0.124 A 
HETATM    5  C3  UNL     1       4.145  15.924  20.119  1.00  0.00     0.063 A 
HETATM    6  C9  UNL     1       3.957  15.752  21.481  1.00  0.00     0.272 A 
HETATM    7  O2  UNL     1       4.347  14.701  22.049  1.00  0.00    -0.267 OA
HETATM    8  N5  UNL     1       3.356  16.706  22.214  1.00  0.00    -0.156 N 
ATOM      9  H5  UNL     1       3.228  16.559  23.215  1.00  0.00     0.187 HD
ENDROOT
BRANCH   5  10
HETATM   10  C4  UNL     1       4.792  14.901  19.314  1.00  0.00     0.101 C 
HETATM   11  N3  UNL     1       4.214  13.816  18.955  1.00  0.00    -0.398 N 
ATOM     12  H3  UNL     1       3.250  13.634  19.235  1.00  0.00     0.158 HD
BRANCH  11  13
HETATM   13  C5  UNL     1       4.953  12.819  18.128  1.00  0.00     0.119 C 
BRANCH  13  14
HETATM   14  C6  UNL     1       3.992  11.949  17.407  1.00  0.00     0.021 C 
BRANCH  14  15
HETATM   15  C7  UNL     1       4.459  10.802  16.634  1.00  0.00     0.020 C 
BRANCH  15  16
HETATM   16  C8  UNL     1       4.085   9.437  17.053  1.00  0.00     0.142 C 
BRANCH  16  17
HETATM   17  N4  UNL     1       4.959   8.693  17.867  1.00  0.00    -0.104 NA
BRANCH  17  18
HETATM   18  O1  UNL     1       4.285   8.112  18.887  1.00  0.00    -0.296 OA
ATOM     19  H1  UNL     1       3.769   7.379  18.574  1.00  0.00     0.238 HD
ENDBRANCH  17  18
ENDBRANCH  16  17
ENDBRANCH  15  16
ENDBRANCH  14  15
ENDBRANCH  13  14
ENDBRANCH  11  13
ENDBRANCH   5  10
BRANCH   1  20
HETATM   20  N1  UNL     1       2.343  18.760  22.389  1.00  0.00    -0.234 N 
ATOM     21  H12 UNL     1       2.498  18.784  23.397  1.00  0.00     0.174 HD
ATOM     22  H11 UNL     1       1.728  19.461  21.975  1.00  0.00     0.174 HD
ENDBRANCH   1  20
TORSDOF 8
ENDMDL
MODEL 5
REMARK VINA RESULT: -7.066526354      3.008      3.558
REMARK  8 active torsions:
REMARK  status: ('A' for Active; 'I' for Inactive)
REMARK    1  A    between atoms: N1_1  and  C1_4 
REMARK    2  A    between atoms: C3_8  and  C4_9 
REMARK    3  A    between atoms: N3_10  and  C5_12 
REMARK    4  A    between atoms: C5_12  and  C6_13 
REMARK    5  A    between atoms: C6_13  and  C7_14 
REMARK    6  A    between atoms: C7_14  and  C8_15 
REMARK    7  A    between atoms: C8_15  and  N4_16 
REMARK    8  A    between atoms: N4_16  and  O1_17 
ROOT
HETATM    1  C1  UNL     1       3.722  17.143  19.500  1.00  0.00     0.678 A 
HETATM    2  N2  UNL     1       3.561  17.214  18.158  1.00  0.00    -0.201 N 
ATOM      3  H2  UNL     1       3.063  18.010  17.759  1.00  0.00     0.183 HD
HETATM    4  C2  UNL     1       4.034  16.277  17.348  1.00  0.00     0.124 A 
HETATM    5  C3  UNL     1       4.714  15.183  17.843  1.00  0.00     0.063 A 
HETATM    6  C9  UNL     1       4.874  15.118  19.218  1.00  0.00     0.272 A 
HETATM    7  O2  UNL     1       5.483  14.152  19.742  1.00  0.00    -0.267 OA
HETATM    8  N5  UNL     1       4.381  16.087  20.010  1.00  0.00    -0.156 N 
ATOM      9  H5  UNL     1       4.510  16.019  21.019  1.00  0.00     0.187 HD
ENDROOT
BRANCH   5  10
HETATM   10  C4  UNL     1       5.242  14.143  16.975  1.00  0.00     0.101 C 
HETATM   11  N3  UNL     1       4.915  12.908  17.075  1.00  0.00    -0.398 N 
ATOM     12  H3  UNL     1       4.253  12.611  17.792  1.00  0.00     0.158 HD
BRANCH  11  13
HETATM   13  C5  UNL     1       5.504  11.905  16.141  1.00  0.00     0.119 C 
BRANCH  13  14
HETATM   14  C6  UNL     1       4.427  11.232  15.377  1.00  0.00     0.021 C 
BRANCH  14  15
HETATM   15  C7  UNL     1       3.908   9.936  15.804  1.00  0.00     0.020 C 
BRANCH  15  16
HETATM   16  C8  UNL     1       3.842   9.613  17.243  1.00  0.00     0.142 C 
BRANCH  16  17
HETATM   17  N4  UNL     1       4.803   8.756  17.810  1.00  0.00    -0.104 NA
BRANCH  17  18
HETATM   18  O1  UNL     1       4.279   8.074  18.855  1.00  0.00    -0.296 OA
ATOM     19  H1  UNL     1       4.083   7.178  18.607  1.00  0.00     0.238 HD
ENDBRANCH  17  18
ENDBRANCH  16  17
ENDBRANCH  15  16
ENDBRANCH  14  15
ENDBRANCH  13  14
ENDBRANCH  11  13
ENDBRANCH   5  10
BRANCH   1  20
HETATM   20  N1  UNL     1       3.254  18.068  20.288  1.00  0.00    -0.234 N 
ATOM     21  H12 UNL     1       2.951  18.964  19.906  1.00  0.00     0.174 HD
ATOM     22  H11 UNL     1       3.182  17.920  21.295  1.00  0.00     0.174 HD
ENDBRANCH   1  20
TORSDOF 8
ENDMDL
