MODEL 1
REMARK VINA RESULT: -5.310849086      0.000      0.000
REMARK  6 active torsions:
REMARK  status: ('A' for Active; 'I' for Inactive)
REMARK    1  A    between atoms: C2_3  and  N2_4 
REMARK    2  A    between atoms: N2_4  and  C3_5 
REMARK    3  A    between atoms: C3_5  and  C4_6 
REMARK    4  A    between atoms: C4_6  and  O1_7 
REMARK    5  A    between atoms: C6_10  and  O2_11 
REMARK    6  A    between atoms: C7_13  and  O3_14 
ROOT
HETATM    1  N1  UNL     1     -12.405  23.985  37.409  1.00  0.00    -0.196 NA
HETATM    2  C1  UNL     1     -11.855  24.678  38.140  1.00  0.00     0.087 C 
HETATM    3  C2  UNL     1     -11.148  25.569  39.060  1.00  0.00     0.360 C 
ENDROOT
BRANCH   3   4
HETATM    4  N2  UNL     1     -12.156  26.277  39.855  1.00  0.00    -0.048 N 
HETATM    5  C5  UNL     1     -11.555  27.422  40.535  1.00  0.00     0.273 C 
HETATM    6  C6  UNL     1     -11.818  27.242  41.996  1.00  0.00     0.174 C 
HETATM    7  C7  UNL     1     -11.828  25.739  42.130  1.00  0.00     0.174 C 
HETATM    8  C8  UNL     1     -12.616  25.376  40.862  1.00  0.00     0.273 C 
BRANCH   4   9
HETATM    9  C3  UNL     1     -13.156  26.746  38.953  1.00  0.00     0.264 C 
BRANCH   9  10
HETATM   10  C4  UNL     1     -13.038  28.185  38.576  1.00  0.00     0.192 C 
BRANCH  10  11
HETATM   11  O1  UNL     1     -14.128  28.475  37.723  1.00  0.00    -0.399 OA
ATOM     12  H1  UNL     1     -13.763  28.810  36.914  1.00  0.00     0.209 HD
ENDBRANCH  10  11
ENDBRANCH   9  10
ENDBRANCH   4   9
BRANCH   6  13
HETATM   13  O2  UNL     1     -10.932  27.872  42.818  1.00  0.00    -0.391 OA
ATOM     14  H2  UNL     1     -11.093  27.749  43.746  1.00  0.00     0.210 HD
ENDBRANCH   6  13
BRANCH   7  15
HETATM   15  O3  UNL     1     -10.577  25.175  42.101  1.00  0.00    -0.391 OA
ATOM     16  H3  UNL     1     -10.226  25.073  41.224  1.00  0.00     0.210 HD
ENDBRANCH   7  15
ENDBRANCH   3   4
TORSDOF 6
ENDMDL
MODEL 2
REMARK VINA RESULT: -4.704719366      1.820      2.087
REMARK  6 active torsions:
REMARK  status: ('A' for Active; 'I' for Inactive)
REMARK    1  A    between atoms: C2_3  and  N2_4 
REMARK    2  A    between atoms: N2_4  and  C3_5 
REMARK    3  A    between atoms: C3_5  and  C4_6 
REMARK    4  A    between atoms: C4_6  and  O1_7 
REMARK    5  A    between atoms: C6_10  and  O2_11 
REMARK    6  A    between atoms: C7_13  and  O3_14 
ROOT
HETATM    1  N1  UNL     1     -13.873  25.781  38.376  1.00  0.00    -0.196 NA
HETATM    2  C1  UNL     1     -12.936  26.212  38.880  1.00  0.00     0.087 C 
HETATM    3  C2  UNL     1     -11.740  26.769  39.513  1.00  0.00     0.360 C 
ENDROOT
BRANCH   3   4
HETATM    4  N2  UNL     1     -12.129  27.267  40.836  1.00  0.00    -0.048 N 
HETATM    5  C5  UNL     1     -10.952  27.705  41.581  1.00  0.00     0.273 C 
HETATM    6  C6  UNL     1     -10.937  26.929  42.859  1.00  0.00     0.174 C 
HETATM    7  C7  UNL     1     -11.580  25.627  42.444  1.00  0.00     0.174 C 
HETATM    8  C8  UNL     1     -12.705  26.174  41.551  1.00  0.00     0.273 C 
BRANCH   4   9
HETATM    9  C3  UNL     1     -12.992  28.384  40.633  1.00  0.00     0.264 C 
BRANCH   9  10
HETATM   10  C4  UNL     1     -13.406  29.093  41.879  1.00  0.00     0.192 C 
BRANCH  10  11
HETATM   11  O1  UNL     1     -14.182  30.205  41.479  1.00  0.00    -0.399 OA
ATOM     12  H1  UNL     1     -13.775  30.557  40.696  1.00  0.00     0.209 HD
ENDBRANCH  10  11
ENDBRANCH   9  10
ENDBRANCH   4   9
BRANCH   6  13
HETATM   13  O2  UNL     1      -9.707  26.790  43.430  1.00  0.00    -0.391 OA
ATOM     14  H2  UNL     1      -9.162  26.117  43.041  1.00  0.00     0.210 HD
ENDBRANCH   6  13
BRANCH   7  15
HETATM   15  O3  UNL     1     -10.746  24.808  41.725  1.00  0.00    -0.391 OA
ATOM     16  H3  UNL     1     -10.954  24.772  40.799  1.00  0.00     0.210 HD
ENDBRANCH   7  15
ENDBRANCH   3   4
TORSDOF 6
ENDMDL
MODEL 3
REMARK VINA RESULT: -4.701558565      2.037      4.106
REMARK  6 active torsions:
REMARK  status: ('A' for Active; 'I' for Inactive)
REMARK    1  A    between atoms: C2_3  and  N2_4 
REMARK    2  A    between atoms: N2_4  and  C3_5 
REMARK    3  A    between atoms: C3_5  and  C4_6 
REMARK    4  A    between atoms: C4_6  and  O1_7 
REMARK    5  A    between atoms: C6_10  and  O2_11 
REMARK    6  A    between atoms: C7_13  and  O3_14 
ROOT
HETATM    1  N1  UNL     1     -10.061  25.826  43.587  1.00  0.00    -0.196 NA
HETATM    2  C1  UNL     1     -10.602  25.443  42.650  1.00  0.00     0.087 C 
HETATM    3  C2  UNL     1     -11.297  24.947  41.462  1.00  0.00     0.360 C 
ENDROOT
BRANCH   3   4
HETATM    4  N2  UNL     1     -12.125  26.039  40.942  1.00  0.00    -0.048 N 
HETATM    5  C5  UNL     1     -13.275  25.505  40.218  1.00  0.00     0.273 C 
HETATM    6  C6  UNL     1     -13.221  26.080  38.839  1.00  0.00     0.174 C 
HETATM    7  C7  UNL     1     -11.735  26.236  38.622  1.00  0.00     0.174 C 
HETATM    8  C8  UNL     1     -11.332  26.768  40.006  1.00  0.00     0.273 C 
BRANCH   4   9
HETATM    9  C3  UNL     1     -12.590  26.790  42.062  1.00  0.00     0.264 C 
BRANCH   9  10
HETATM   10  C4  UNL     1     -12.500  28.271  41.907  1.00  0.00     0.192 C 
BRANCH  10  11
HETATM   11  O1  UNL     1     -11.236  28.660  42.408  1.00  0.00    -0.399 OA
ATOM     12  H1  UNL     1     -11.392  29.351  43.040  1.00  0.00     0.209 HD
ENDBRANCH  10  11
ENDBRANCH   9  10
ENDBRANCH   4   9
BRANCH   6  13
HETATM   13  O2  UNL     1     -13.851  25.338  37.885  1.00  0.00    -0.391 OA
ATOM     14  H2  UNL     1     -14.365  24.613  38.219  1.00  0.00     0.210 HD
ENDBRANCH   6  13
BRANCH   7  15
HETATM   15  O3  UNL     1     -11.091  25.054  38.352  1.00  0.00    -0.391 OA
ATOM     16  H3  UNL     1     -10.355  24.881  38.927  1.00  0.00     0.210 HD
ENDBRANCH   7  15
ENDBRANCH   3   4
TORSDOF 6
ENDMDL
MODEL 4
REMARK VINA RESULT: -4.112015378      2.466      4.636
REMARK  6 active torsions:
REMARK  status: ('A' for Active; 'I' for Inactive)
REMARK    1  A    between atoms: C2_3  and  N2_4 
REMARK    2  A    between atoms: N2_4  and  C3_5 
REMARK    3  A    between atoms: C3_5  and  C4_6 
REMARK    4  A    between atoms: C4_6  and  O1_7 
REMARK    5  A    between atoms: C6_10  and  O2_11 
REMARK    6  A    between atoms: C7_13  and  O3_14 
ROOT
HETATM    1  N1  UNL     1     -13.235  29.467  41.878  1.00  0.00    -0.196 NA
HETATM    2  C1  UNL     1     -13.084  28.356  42.126  1.00  0.00     0.087 C 
HETATM    3  C2  UNL     1     -12.904  26.937  42.436  1.00  0.00     0.360 C 
ENDROOT
BRANCH   3   4
HETATM    4  N2  UNL     1     -11.639  26.508  41.831  1.00  0.00    -0.048 N 
HETATM    5  C5  UNL     1     -11.509  27.052  40.483  1.00  0.00     0.273 C 
HETATM    6  C6  UNL     1     -11.315  25.887  39.565  1.00  0.00     0.174 C 
HETATM    7  C7  UNL     1     -12.099  24.803  40.265  1.00  0.00     0.174 C 
HETATM    8  C8  UNL     1     -11.682  25.086  41.716  1.00  0.00     0.273 C 
BRANCH   4   9
HETATM    9  C3  UNL     1     -10.585  27.021  42.643  1.00  0.00     0.264 C 
BRANCH   9  10
HETATM   10  C4  UNL     1     -10.404  26.328  43.952  1.00  0.00     0.192 C 
BRANCH  10  11
HETATM   11  O1  UNL     1     -10.518  27.315  44.958  1.00  0.00    -0.399 OA
ATOM     12  H1  UNL     1      -9.949  27.049  45.670  1.00  0.00     0.209 HD
ENDBRANCH  10  11
ENDBRANCH   9  10
ENDBRANCH   4   9
BRANCH   6  13
HETATM   13  O2  UNL     1     -11.694  26.108  38.274  1.00  0.00    -0.391 OA
ATOM     14  H2  UNL     1     -11.790  25.323  37.748  1.00  0.00     0.210 HD
ENDBRANCH   6  13
BRANCH   7  15
HETATM   15  O3  UNL     1     -13.458  24.925  40.118  1.00  0.00    -0.391 OA
ATOM     16  H3  UNL     1     -13.718  25.335  39.302  1.00  0.00     0.210 HD
ENDBRANCH   7  15
ENDBRANCH   3   4
TORSDOF 6
ENDMDL
MODEL 5
REMARK VINA RESULT: -4.011627765      2.192      4.504
REMARK  6 active torsions:
REMARK  status: ('A' for Active; 'I' for Inactive)
REMARK    1  A    between atoms: C2_3  and  N2_4 
REMARK    2  A    between atoms: N2_4  and  C3_5 
REMARK    3  A    between atoms: C3_5  and  C4_6 
REMARK    4  A    between atoms: C4_6  and  O1_7 
REMARK    5  A    between atoms: C6_10  and  O2_11 
REMARK    6  A    between atoms: C7_13  and  O3_14 
ROOT
HETATM    1  N1  UNL     1     -13.332  29.300  42.114  1.00  0.00    -0.196 NA
HETATM    2  C1  UNL     1     -13.164  28.694  41.154  1.00  0.00     0.087 C 
HETATM    3  C2  UNL     1     -12.945  27.932  39.924  1.00  0.00     0.360 C 
ENDROOT
BRANCH   3   4
HETATM    4  N2  UNL     1     -12.056  26.812  40.248  1.00  0.00    -0.048 N 
HETATM    5  C5  UNL     1     -11.184  26.511  39.117  1.00  0.00     0.273 C 
HETATM    6  C6  UNL     1     -11.407  25.073  38.770  1.00  0.00     0.174 C 
HETATM    7  C7  UNL     1     -12.856  24.881  39.150  1.00  0.00     0.174 C 
HETATM    8  C8  UNL     1     -12.878  25.666  40.471  1.00  0.00     0.273 C 
BRANCH   4   9
HETATM    9  C3  UNL     1     -11.255  27.212  41.358  1.00  0.00     0.264 C 
BRANCH   9  10
HETATM   10  C4  UNL     1     -11.093  26.178  42.422  1.00  0.00     0.192 C 
BRANCH  10  11
HETATM   11  O1  UNL     1      -9.882  26.466  43.092  1.00  0.00    -0.399 OA
ATOM     12  H1  UNL     1      -9.693  25.722  43.651  1.00  0.00     0.209 HD
ENDBRANCH  10  11
ENDBRANCH   9  10
ENDBRANCH   4   9
BRANCH   6  13
HETATM   13  O2  UNL     1     -11.118  24.744  37.479  1.00  0.00    -0.391 OA
ATOM     14  H2  UNL     1     -11.680  25.148  36.830  1.00  0.00     0.210 HD
ENDBRANCH   6  13
BRANCH   7  15
HETATM   15  O3  UNL     1     -13.737  25.423  38.249  1.00  0.00    -0.391 OA
ATOM     16  H3  UNL     1     -14.604  25.037  38.285  1.00  0.00     0.210 HD
ENDBRANCH   7  15
ENDBRANCH   3   4
TORSDOF 6
ENDMDL
