MODEL 1
REMARK VINA RESULT: -7.582608172      0.000      0.000
REMARK  4 active torsions:
REMARK  status: ('A' for Active; 'I' for Inactive)
REMARK    1  A    between atoms: C2_2  and  S1_4 
REMARK    2  A    between atoms: S1_4  and  C4_5 
REMARK    3  A    between atoms: C7_11  and  C8_12 
REMARK    4  A    between atoms: N3_21  and  N4_22 
ROOT
HETATM    1  C4  UNL     1     -18.404  36.010  -0.347  1.00  0.00     0.132 A 
HETATM    2  C5  UNL     1     -19.085  37.058  -0.910  1.00  0.00     0.151 A 
HETATM    3  C6  UNL     1     -19.913  37.946  -0.139  1.00  0.00     0.120 C 
HETATM    4  N1  UNL     1     -20.591  38.652   0.484  1.00  0.00    -0.190 NA
HETATM    5  N2  UNL     1     -18.824  37.062  -2.219  1.00  0.00    -0.329 N 
ATOM      6  H2  UNL     1     -19.198  37.735  -2.888  1.00  0.00     0.168 HD
HETATM    7  C7  UNL     1     -17.979  36.030  -2.536  1.00  0.00     0.140 A 
HETATM    8  N3  UNL     1     -17.741  35.412  -1.392  1.00  0.00    -0.236 N 
ENDROOT
BRANCH   1   9
HETATM    9  S1  UNL     1     -18.350  35.487   1.356  1.00  0.00    -0.103 SA
BRANCH   9  10
HETATM   10  C2  UNL     1     -17.349  36.557   2.384  1.00  0.00     0.046 C 
HETATM   11  C1  UNL     1     -16.679  35.705   3.444  1.00  0.00     0.021 C 
HETATM   12  C3  UNL     1     -18.134  37.680   3.028  1.00  0.00     0.021 C 
ENDBRANCH   9  10
ENDBRANCH   1   9
BRANCH   8  13
HETATM   13  N4  UNL     1     -16.914  34.274  -1.216  1.00  0.00    -0.336 N 
ATOM     14  H42 UNL     1     -17.025  33.375  -1.683  1.00  0.00     0.177 HD
ATOM     15  H41 UNL     1     -16.114  34.272  -0.583  1.00  0.00     0.177 HD
ENDBRANCH   8  13
BRANCH   7  16
HETATM   16  C8  UNL     1     -17.503  35.765  -3.902  1.00  0.00     0.033 A 
HETATM   17  C9  UNL     1     -16.204  35.857  -4.306  1.00  0.00     0.042 A 
HETATM   18  C10 UNL     1     -15.804  35.599  -5.601  1.00  0.00     0.056 A 
HETATM   19 CL1  UNL     1     -14.127  35.727  -6.088  1.00  0.00    -0.083 Cl
HETATM   20  C11 UNL     1     -16.728  35.231  -6.547  1.00  0.00     0.057 A 
HETATM   21 CL2  UNL     1     -16.219  34.904  -8.190  1.00  0.00    -0.082 Cl
HETATM   22  C12 UNL     1     -18.054  35.129  -6.163  1.00  0.00     0.050 A 
HETATM   23  C13 UNL     1     -18.441  35.387  -4.876  1.00  0.00     0.049 A 
HETATM   24 CL3  UNL     1     -20.135  35.246  -4.431  1.00  0.00    -0.083 Cl
ENDBRANCH   7  16
TORSDOF 4
ENDMDL
MODEL 2
REMARK VINA RESULT: -7.476428888      2.964      4.270
REMARK  4 active torsions:
REMARK  status: ('A' for Active; 'I' for Inactive)
REMARK    1  A    between atoms: C2_2  and  S1_4 
REMARK    2  A    between atoms: S1_4  and  C4_5 
REMARK    3  A    between atoms: C7_11  and  C8_12 
REMARK    4  A    between atoms: N3_21  and  N4_22 
ROOT
HETATM    1  C4  UNL     1     -18.906  36.143  -0.009  1.00  0.00     0.132 A 
HETATM    2  C5  UNL     1     -17.911  35.744  -0.863  1.00  0.00     0.151 A 
HETATM    3  C6  UNL     1     -16.880  34.821  -0.470  1.00  0.00     0.120 C 
HETATM    4  N1  UNL     1     -16.041  34.088  -0.145  1.00  0.00    -0.190 NA
HETATM    5  N2  UNL     1     -18.105  36.354  -2.034  1.00  0.00    -0.329 N 
ATOM      6  H2  UNL     1     -17.512  36.241  -2.857  1.00  0.00     0.168 HD
HETATM    7  C7  UNL     1     -19.215  37.155  -1.972  1.00  0.00     0.140 A 
HETATM    8  N3  UNL     1     -19.680  37.010  -0.743  1.00  0.00    -0.236 N 
ENDROOT
BRANCH   1   9
HETATM    9  S1  UNL     1     -19.190  35.676   1.688  1.00  0.00    -0.103 SA
BRANCH   9  10
HETATM   10  C2  UNL     1     -18.324  36.722   2.854  1.00  0.00     0.046 C 
HETATM   11  C1  UNL     1     -18.539  38.166   2.447  1.00  0.00     0.021 C 
HETATM   12  C3  UNL     1     -16.844  36.417   2.953  1.00  0.00     0.021 C 
ENDBRANCH   9  10
ENDBRANCH   1   9
BRANCH   8  13
HETATM   13  N4  UNL     1     -20.827  37.647  -0.206  1.00  0.00    -0.336 N 
ATOM     14  H42 UNL     1     -20.868  38.598   0.160  1.00  0.00     0.177 HD
ATOM     15  H41 UNL     1     -21.732  37.182  -0.144  1.00  0.00     0.177 HD
ENDBRANCH   8  13
BRANCH   7  16
HETATM   16  C8  UNL     1     -19.695  37.962  -3.105  1.00  0.00     0.033 A 
HETATM   17  C9  UNL     1     -19.640  39.322  -3.171  1.00  0.00     0.042 A 
HETATM   18  C10 UNL     1     -20.103  40.036  -4.257  1.00  0.00     0.056 A 
HETATM   19 CL1  UNL     1     -20.020  41.784  -4.311  1.00  0.00    -0.083 Cl
HETATM   20  C11 UNL     1     -20.647  39.379  -5.332  1.00  0.00     0.057 A 
HETATM   21 CL2  UNL     1     -21.235  40.287  -6.710  1.00  0.00    -0.082 Cl
HETATM   22  C12 UNL     1     -20.714  37.997  -5.291  1.00  0.00     0.050 A 
HETATM   23  C13 UNL     1     -20.252  37.298  -4.210  1.00  0.00     0.049 A 
HETATM   24 CL3  UNL     1     -20.356  35.543  -4.198  1.00  0.00    -0.083 Cl
ENDBRANCH   7  16
TORSDOF 4
ENDMDL
MODEL 3
REMARK VINA RESULT: -7.470341581      3.735      7.290
REMARK  4 active torsions:
REMARK  status: ('A' for Active; 'I' for Inactive)
REMARK    1  A    between atoms: C2_2  and  S1_4 
REMARK    2  A    between atoms: S1_4  and  C4_5 
REMARK    3  A    between atoms: C7_11  and  C8_12 
REMARK    4  A    between atoms: N3_21  and  N4_22 
ROOT
HETATM    1  C4  UNL     1     -17.323  36.712  -5.609  1.00  0.00     0.132 A 
HETATM    2  C5  UNL     1     -17.930  35.483  -5.615  1.00  0.00     0.151 A 
HETATM    3  C6  UNL     1     -18.320  34.819  -6.829  1.00  0.00     0.120 C 
HETATM    4  N1  UNL     1     -18.648  34.292  -7.810  1.00  0.00    -0.190 NA
HETATM    5  N2  UNL     1     -18.059  35.083  -4.348  1.00  0.00    -0.329 N 
ATOM      6  H2  UNL     1     -18.478  34.201  -4.054  1.00  0.00     0.168 HD
HETATM    7  C7  UNL     1     -17.549  36.030  -3.498  1.00  0.00     0.140 A 
HETATM    8  N3  UNL     1     -17.112  37.000  -4.283  1.00  0.00    -0.236 N 
ENDROOT
BRANCH   1   9
HETATM    9  S1  UNL     1     -16.881  37.756  -6.985  1.00  0.00    -0.103 SA
BRANCH   9  10
HETATM   10  C2  UNL     1     -15.205  37.489  -7.554  1.00  0.00     0.046 C 
HETATM   11  C1  UNL     1     -15.099  38.005  -8.975  1.00  0.00     0.021 C 
HETATM   12  C3  UNL     1     -14.769  36.040  -7.484  1.00  0.00     0.021 C 
ENDBRANCH   9  10
ENDBRANCH   1   9
BRANCH   8  13
HETATM   13  N4  UNL     1     -16.495  38.203  -3.855  1.00  0.00    -0.336 N 
ATOM     14  H42 UNL     1     -16.123  38.934  -4.460  1.00  0.00     0.177 HD
ATOM     15  H41 UNL     1     -16.374  38.435  -2.869  1.00  0.00     0.177 HD
ENDBRANCH   8  13
BRANCH   7  16
HETATM   16  C8  UNL     1     -17.542  35.884  -2.035  1.00  0.00     0.033 A 
HETATM   17  C9  UNL     1     -18.544  36.295  -1.207  1.00  0.00     0.042 A 
HETATM   18  C10 UNL     1     -18.494  36.137   0.163  1.00  0.00     0.056 A 
HETATM   19 CL1  UNL     1     -19.796  36.677   1.200  1.00  0.00    -0.083 Cl
HETATM   20  C11 UNL     1     -17.403  35.543   0.748  1.00  0.00     0.057 A 
HETATM   21 CL2  UNL     1     -17.339  35.343   2.487  1.00  0.00    -0.082 Cl
HETATM   22  C12 UNL     1     -16.371  35.115  -0.071  1.00  0.00     0.050 A 
HETATM   23  C13 UNL     1     -16.431  35.277  -1.428  1.00  0.00     0.049 A 
HETATM   24 CL3  UNL     1     -15.100  34.720  -2.431  1.00  0.00    -0.083 Cl
ENDBRANCH   7  16
TORSDOF 4
ENDMDL
MODEL 4
REMARK VINA RESULT: -7.417813786      3.677      7.295
REMARK  4 active torsions:
REMARK  status: ('A' for Active; 'I' for Inactive)
REMARK    1  A    between atoms: C2_2  and  S1_4 
REMARK    2  A    between atoms: S1_4  and  C4_5 
REMARK    3  A    between atoms: C7_11  and  C8_12 
REMARK    4  A    between atoms: N3_21  and  N4_22 
ROOT
HETATM    1  C4  UNL     1     -17.723  36.000  -5.532  1.00  0.00     0.132 A 
HETATM    2  C5  UNL     1     -16.672  36.838  -5.261  1.00  0.00     0.151 A 
HETATM    3  C6  UNL     1     -15.942  37.521  -6.295  1.00  0.00     0.120 C 
HETATM    4  N1  UNL     1     -15.346  38.059  -7.133  1.00  0.00    -0.190 NA
HETATM    5  N2  UNL     1     -16.502  36.869  -3.938  1.00  0.00    -0.329 N 
ATOM      6  H2  UNL     1     -15.789  37.415  -3.453  1.00  0.00     0.168 HD
HETATM    7  C7  UNL     1     -17.425  36.063  -3.323  1.00  0.00     0.140 A 
HETATM    8  N3  UNL     1     -18.148  35.552  -4.304  1.00  0.00    -0.236 N 
ENDROOT
BRANCH   1   9
HETATM    9  S1  UNL     1     -18.430  35.552  -7.106  1.00  0.00    -0.103 SA
BRANCH   9  10
HETATM   10  C2  UNL     1     -17.783  34.011  -7.749  1.00  0.00     0.046 C 
HETATM   11  C1  UNL     1     -16.313  34.209  -8.063  1.00  0.00     0.021 C 
HETATM   12  C3  UNL     1     -18.522  33.511  -8.972  1.00  0.00     0.021 C 
ENDBRANCH   9  10
ENDBRANCH   1   9
BRANCH   8  13
HETATM   13  N4  UNL     1     -19.233  34.652  -4.158  1.00  0.00    -0.336 N 
ATOM     14  H42 UNL     1     -19.177  33.699  -3.800  1.00  0.00     0.177 HD
ATOM     15  H41 UNL     1     -20.189  34.902  -4.409  1.00  0.00     0.177 HD
ENDBRANCH   8  13
BRANCH   7  16
HETATM   16  C8  UNL     1     -17.498  35.884  -1.865  1.00  0.00     0.033 A 
HETATM   17  C9  UNL     1     -18.503  36.354  -1.072  1.00  0.00     0.042 A 
HETATM   18  C10 UNL     1     -18.529  36.162   0.294  1.00  0.00     0.056 A 
HETATM   19 CL1  UNL     1     -19.833  36.780   1.285  1.00  0.00    -0.083 Cl
HETATM   20  C11 UNL     1     -17.516  35.472   0.912  1.00  0.00     0.057 A 
HETATM   21 CL2  UNL     1     -17.549  35.228   2.646  1.00  0.00    -0.082 Cl
HETATM   22  C12 UNL     1     -16.483  34.983   0.129  1.00  0.00     0.050 A 
HETATM   23  C13 UNL     1     -16.467  35.179  -1.225  1.00  0.00     0.049 A 
HETATM   24 CL3  UNL     1     -15.137  34.541  -2.181  1.00  0.00    -0.083 Cl
ENDBRANCH   7  16
TORSDOF 4
ENDMDL
MODEL 5
REMARK VINA RESULT: -7.393584418      1.565      2.472
REMARK  4 active torsions:
REMARK  status: ('A' for Active; 'I' for Inactive)
REMARK    1  A    between atoms: C2_2  and  S1_4 
REMARK    2  A    between atoms: S1_4  and  C4_5 
REMARK    3  A    between atoms: C7_11  and  C8_12 
REMARK    4  A    between atoms: N3_21  and  N4_22 
ROOT
HETATM    1  C4  UNL     1     -18.459  36.399  -0.683  1.00  0.00     0.132 A 
HETATM    2  C5  UNL     1     -17.260  35.734  -0.666  1.00  0.00     0.151 A 
HETATM    3  C6  UNL     1     -16.654  35.264   0.551  1.00  0.00     0.120 C 
HETATM    4  N1  UNL     1     -16.160  34.899   1.535  1.00  0.00    -0.190 NA
HETATM    5  N2  UNL     1     -16.829  35.633  -1.925  1.00  0.00    -0.329 N 
ATOM      6  H2  UNL     1     -15.960  35.182  -2.210  1.00  0.00     0.168 HD
HETATM    7  C7  UNL     1     -17.723  36.223  -2.780  1.00  0.00     0.140 A 
HETATM    8  N3  UNL     1     -18.695  36.676  -2.007  1.00  0.00    -0.236 N 
ENDROOT
BRANCH   1   9
HETATM    9  S1  UNL     1     -19.522  36.838   0.679  1.00  0.00    -0.103 SA
BRANCH   9  10
HETATM   10  C2  UNL     1     -18.870  38.177   1.672  1.00  0.00     0.046 C 
HETATM   11  C1  UNL     1     -18.214  37.580   2.901  1.00  0.00     0.021 C 
HETATM   12  C3  UNL     1     -19.917  39.194   2.074  1.00  0.00     0.021 C 
ENDBRANCH   9  10
ENDBRANCH   1   9
BRANCH   8  13
HETATM   13  N4  UNL     1     -19.855  37.365  -2.445  1.00  0.00    -0.336 N 
ATOM     14  H42 UNL     1     -20.432  37.987  -1.879  1.00  0.00     0.177 HD
ATOM     15  H41 UNL     1     -20.210  37.287  -3.397  1.00  0.00     0.177 HD
ENDBRANCH   8  13
BRANCH   7  16
HETATM   16  C8  UNL     1     -17.533  36.277  -4.238  1.00  0.00     0.033 A 
HETATM   17  C9  UNL     1     -16.619  37.061  -4.876  1.00  0.00     0.042 A 
HETATM   18  C10 UNL     1     -16.477  37.078  -6.248  1.00  0.00     0.056 A 
HETATM   19 CL1  UNL     1     -15.294  38.098  -7.038  1.00  0.00    -0.083 Cl
HETATM   20  C11 UNL     1     -17.274  36.283  -7.033  1.00  0.00     0.057 A 
HETATM   21 CL2  UNL     1     -17.094  36.305  -8.775  1.00  0.00    -0.082 Cl
HETATM   22  C12 UNL     1     -18.211  35.475  -6.410  1.00  0.00     0.050 A 
HETATM   23  C13 UNL     1     -18.344  35.466  -5.048  1.00  0.00     0.049 A 
HETATM   24 CL3  UNL     1     -19.546  34.425  -4.297  1.00  0.00    -0.083 Cl
ENDBRANCH   7  16
TORSDOF 4
ENDMDL
