MODEL 1
REMARK VINA RESULT: -6.786783417      0.000      0.000
REMARK  8 active torsions:
REMARK  status: ('A' for Active; 'I' for Inactive)
REMARK       I    between atoms: C1_2  and  N2_4 
REMARK    1  A    between atoms: N2_4  and  N3_6 
REMARK    2  A    between atoms: N3_6  and  C2_8 
REMARK    3  A    between atoms: C2_8  and  N4_10 
REMARK    4  A    between atoms: N4_10  and  N5_12 
REMARK    5  A    between atoms: N5_12  and  C3_14 
REMARK    6  A    between atoms: C3_14  and  C4_15 
REMARK    7  A    between atoms: C4_15  and  N6_16 
REMARK    8  A    between atoms: N7_21  and  O2_23 
ROOT
HETATM    1  N5  UNL     1      13.542  11.967  61.629  1.00  0.00    -0.281 N 
ATOM      2  H5  UNL     1      13.399  11.037  62.023  1.00  0.00     0.188 HD
ENDROOT
BRANCH   1   3
HETATM    3  N4  UNL     1      14.154  12.934  62.396  1.00  0.00    -0.273 N 
ATOM      4  H4  UNL     1      13.869  13.038  63.370  1.00  0.00     0.189 HD
BRANCH   3   5
HETATM    5  C2  UNL     1      15.178  13.803  61.882  1.00  0.00     0.205 C 
HETATM    6  S1  UNL     1      16.615  13.230  61.385  1.00  0.00    -0.038 SA
BRANCH   5   7
HETATM    7  N3  UNL     1      14.957  15.211  61.786  1.00  0.00    -0.271 N 
ATOM      8  H3  UNL     1      15.758  15.810  61.583  1.00  0.00     0.189 HD
BRANCH   7   9
HETATM    9  N2  UNL     1      13.717  15.812  61.955  1.00  0.00    -0.252 N 
HETATM   10  C1  UNL     1      12.840  16.125  60.886  1.00  0.00     0.347 C 
HETATM   11  N1  UNL     1      11.570  16.746  61.128  1.00  0.00    -0.038 NA
HETATM   12  O1  UNL     1      13.199  15.848  59.707  1.00  0.00    -0.249 OA
ATOM     13  H2  UNL     1      13.420  16.042  62.903  1.00  0.00     0.191 HD
ENDBRANCH   7   9
ENDBRANCH   5   7
ENDBRANCH   3   5
ENDBRANCH   1   3
BRANCH   1  14
HETATM   14  C3  UNL     1      13.105  12.233  60.304  1.00  0.00     0.155 C 
HETATM   15  N7  UNL     1      12.092  12.999  60.166  1.00  0.00    -0.251 N 
ATOM     16  H7  UNL     1      11.760  13.205  59.224  1.00  0.00     0.196 HD
BRANCH  14  17
HETATM   17  C4  UNL     1      13.854  11.612  59.222  1.00  0.00     0.141 C 
BRANCH  17  18
HETATM   18  N6  UNL     1      13.991  12.236  57.994  1.00  0.00    -0.366 N 
HETATM   19  C5  UNL     1      15.076  13.138  57.838  1.00  0.00     0.128 C 
HETATM   20  C6  UNL     1      15.454  13.129  56.374  1.00  0.00     0.025 C 
HETATM   21  C7  UNL     1      14.808  11.894  55.841  1.00  0.00     0.046 C 
HETATM   22  C8  UNL     1      13.619  11.731  56.780  1.00  0.00     0.063 C 
ENDBRANCH  17  18
ENDBRANCH  14  17
BRANCH  15  23
HETATM   23  O2  UNL     1      11.440  13.550  61.219  1.00  0.00    -0.288 OA
ATOM     24  H2  UNL     1      11.675  14.395  61.585  1.00  0.00     0.244 HD
ENDBRANCH  15  23
ENDBRANCH   1  14
TORSDOF 8
ENDMDL
MODEL 2
REMARK VINA RESULT: -6.646273802      3.119      5.702
REMARK  8 active torsions:
REMARK  status: ('A' for Active; 'I' for Inactive)
REMARK       I    between atoms: C1_2  and  N2_4 
REMARK    1  A    between atoms: N2_4  and  N3_6 
REMARK    2  A    between atoms: N3_6  and  C2_8 
REMARK    3  A    between atoms: C2_8  and  N4_10 
REMARK    4  A    between atoms: N4_10  and  N5_12 
REMARK    5  A    between atoms: N5_12  and  C3_14 
REMARK    6  A    between atoms: C3_14  and  C4_15 
REMARK    7  A    between atoms: C4_15  and  N6_16 
REMARK    8  A    between atoms: N7_21  and  O2_23 
ROOT
HETATM    1  N5  UNL     1      13.273  13.806  58.988  1.00  0.00    -0.281 N 
ATOM      2  H5  UNL     1      13.564  14.714  58.624  1.00  0.00     0.188 HD
ENDROOT
BRANCH   1   3
HETATM    3  N4  UNL     1      12.989  12.788  58.103  1.00  0.00    -0.273 N 
ATOM      4  H4  UNL     1      12.096  12.302  58.188  1.00  0.00     0.189 HD
BRANCH   3   5
HETATM    5  C2  UNL     1      13.898  12.382  57.066  1.00  0.00     0.205 C 
HETATM    6  S1  UNL     1      15.370  13.055  56.907  1.00  0.00    -0.038 SA
BRANCH   5   7
HETATM    7  N3  UNL     1      13.534  11.361  56.137  1.00  0.00    -0.271 N 
ATOM      8  H3  UNL     1      12.563  11.047  56.124  1.00  0.00     0.189 HD
BRANCH   7   9
HETATM    9  N2  UNL     1      14.423  10.771  55.249  1.00  0.00    -0.252 N 
HETATM   10  C1  UNL     1      14.223   9.496  54.661  1.00  0.00     0.347 C 
HETATM   11  N1  UNL     1      15.183   8.943  53.750  1.00  0.00    -0.038 NA
HETATM   12  O1  UNL     1      13.179   8.850  54.957  1.00  0.00    -0.249 OA
ATOM     13  H2  UNL     1      15.271  11.284  55.006  1.00  0.00     0.191 HD
ENDBRANCH   7   9
ENDBRANCH   5   7
ENDBRANCH   3   5
ENDBRANCH   1   3
BRANCH   1  14
HETATM   14  C3  UNL     1      13.171  13.622  60.393  1.00  0.00     0.155 C 
HETATM   15  N7  UNL     1      11.998  13.483  60.879  1.00  0.00    -0.251 N 
ATOM     16  H7  UNL     1      11.899  13.350  61.885  1.00  0.00     0.196 HD
BRANCH  14  17
HETATM   17  C4  UNL     1      14.413  13.605  61.151  1.00  0.00     0.141 C 
BRANCH  17  18
HETATM   18  N6  UNL     1      15.265  12.517  61.105  1.00  0.00    -0.366 N 
HETATM   19  C5  UNL     1      14.751  11.307  60.569  1.00  0.00     0.128 C 
HETATM   20  C6  UNL     1      15.918  10.554  59.971  1.00  0.00     0.025 C 
HETATM   21  C7  UNL     1      16.988  11.586  59.844  1.00  0.00     0.046 C 
HETATM   22  C8  UNL     1      16.624  12.555  60.963  1.00  0.00     0.063 C 
ENDBRANCH  17  18
ENDBRANCH  14  17
BRANCH  15  23
HETATM   23  O2  UNL     1      10.879  13.506  60.114  1.00  0.00    -0.288 OA
ATOM     24  H2  UNL     1      10.412  12.717  59.862  1.00  0.00     0.244 HD
ENDBRANCH  15  23
ENDBRANCH   1  14
TORSDOF 8
ENDMDL
MODEL 3
REMARK VINA RESULT: -6.613351436      2.432      3.786
REMARK  8 active torsions:
REMARK  status: ('A' for Active; 'I' for Inactive)
REMARK       I    between atoms: C1_2  and  N2_4 
REMARK    1  A    between atoms: N2_4  and  N3_6 
REMARK    2  A    between atoms: N3_6  and  C2_8 
REMARK    3  A    between atoms: C2_8  and  N4_10 
REMARK    4  A    between atoms: N4_10  and  N5_12 
REMARK    5  A    between atoms: N5_12  and  C3_14 
REMARK    6  A    between atoms: C3_14  and  C4_15 
REMARK    7  A    between atoms: C4_15  and  N6_16 
REMARK    8  A    between atoms: N7_21  and  O2_23 
ROOT
HETATM    1  N5  UNL     1      13.121  12.282  57.380  1.00  0.00    -0.281 N 
ATOM      2  H5  UNL     1      12.318  12.488  56.786  1.00  0.00     0.188 HD
ENDROOT
BRANCH   1   3
HETATM    3  N4  UNL     1      12.909  11.860  58.675  1.00  0.00    -0.273 N 
ATOM      4  H4  UNL     1      13.124  10.892  58.914  1.00  0.00     0.189 HD
BRANCH   3   5
HETATM    5  C2  UNL     1      12.395  12.726  59.702  1.00  0.00     0.205 C 
HETATM    6  S1  UNL     1      12.695  12.454  61.276  1.00  0.00    -0.038 SA
BRANCH   5   7
HETATM    7  N3  UNL     1      11.603  13.865  59.366  1.00  0.00    -0.271 N 
ATOM      8  H3  UNL     1      11.176  13.897  58.439  1.00  0.00     0.189 HD
BRANCH   7   9
HETATM    9  N2  UNL     1      11.380  14.932  60.226  1.00  0.00    -0.252 N 
HETATM   10  C1  UNL     1      12.272  16.023  60.377  1.00  0.00     0.347 C 
HETATM   11  N1  UNL     1      11.981  17.095  61.284  1.00  0.00    -0.038 NA
HETATM   12  O1  UNL     1      13.335  16.035  59.696  1.00  0.00    -0.249 OA
ATOM     13  H2  UNL     1      10.525  14.930  60.782  1.00  0.00     0.191 HD
ENDBRANCH   7   9
ENDBRANCH   5   7
ENDBRANCH   3   5
ENDBRANCH   1   3
BRANCH   1  14
HETATM   14  C3  UNL     1      14.431  12.439  56.853  1.00  0.00     0.155 C 
HETATM   15  N7  UNL     1      14.712  11.794  55.787  1.00  0.00    -0.251 N 
ATOM     16  H7  UNL     1      15.647  11.890  55.391  1.00  0.00     0.196 HD
BRANCH  14  17
HETATM   17  C4  UNL     1      15.334  13.323  57.576  1.00  0.00     0.141 C 
BRANCH  17  18
HETATM   18  N6  UNL     1      16.166  12.839  58.570  1.00  0.00    -0.366 N 
HETATM   19  C5  UNL     1      16.086  13.455  59.846  1.00  0.00     0.128 C 
HETATM   20  C6  UNL     1      16.470  12.411  60.869  1.00  0.00     0.025 C 
HETATM   21  C7  UNL     1      16.357  11.120  60.129  1.00  0.00     0.046 C 
HETATM   22  C8  UNL     1      16.623  11.556  58.694  1.00  0.00     0.063 C 
ENDBRANCH  17  18
ENDBRANCH  14  17
BRANCH  15  23
HETATM   23  O2  UNL     1      13.821  10.988  55.161  1.00  0.00    -0.288 OA
ATOM     24  H2  UNL     1      13.919  10.719  54.255  1.00  0.00     0.244 HD
ENDBRANCH  15  23
ENDBRANCH   1  14
TORSDOF 8
ENDMDL
MODEL 4
REMARK VINA RESULT: -6.582136444      1.583      2.182
REMARK  8 active torsions:
REMARK  status: ('A' for Active; 'I' for Inactive)
REMARK       I    between atoms: C1_2  and  N2_4 
REMARK    1  A    between atoms: N2_4  and  N3_6 
REMARK    2  A    between atoms: N3_6  and  C2_8 
REMARK    3  A    between atoms: C2_8  and  N4_10 
REMARK    4  A    between atoms: N4_10  and  N5_12 
REMARK    5  A    between atoms: N5_12  and  C3_14 
REMARK    6  A    between atoms: C3_14  and  C4_15 
REMARK    7  A    between atoms: C4_15  and  N6_16 
REMARK    8  A    between atoms: N7_21  and  O2_23 
ROOT
HETATM    1  N5  UNL     1      14.008  13.673  58.487  1.00  0.00    -0.281 N 
ATOM      2  H5  UNL     1      13.441  14.345  57.971  1.00  0.00     0.188 HD
ENDROOT
BRANCH   1   3
HETATM    3  N4  UNL     1      15.211  14.080  59.024  1.00  0.00    -0.273 N 
ATOM      4  H4  UNL     1      15.933  14.430  58.395  1.00  0.00     0.189 HD
BRANCH   3   5
HETATM    5  C2  UNL     1      15.490  14.033  60.434  1.00  0.00     0.205 C 
HETATM    6  S1  UNL     1      16.315  12.801  61.101  1.00  0.00    -0.038 SA
BRANCH   5   7
HETATM    7  N3  UNL     1      15.050  15.081  61.299  1.00  0.00    -0.271 N 
ATOM      8  H3  UNL     1      15.733  15.778  61.595  1.00  0.00     0.189 HD
BRANCH   7   9
HETATM    9  N2  UNL     1      13.746  15.205  61.760  1.00  0.00    -0.252 N 
HETATM   10  C1  UNL     1      12.696  15.789  61.009  1.00  0.00     0.347 C 
HETATM   11  N1  UNL     1      11.369  15.887  61.544  1.00  0.00    -0.038 NA
HETATM   12  O1  UNL     1      12.950  16.227  59.852  1.00  0.00    -0.249 OA
ATOM     13  H2  UNL     1      13.532  14.857  62.694  1.00  0.00     0.191 HD
ENDBRANCH   7   9
ENDBRANCH   5   7
ENDBRANCH   3   5
ENDBRANCH   1   3
BRANCH   1  14
HETATM   14  C3  UNL     1      13.540  12.340  58.636  1.00  0.00     0.155 C 
HETATM   15  N7  UNL     1      12.516  12.161  59.378  1.00  0.00    -0.251 N 
ATOM     16  H7  UNL     1      12.161  11.213  59.500  1.00  0.00     0.196 HD
BRANCH  14  17
HETATM   17  C4  UNL     1      14.269  11.298  57.928  1.00  0.00     0.141 C 
BRANCH  17  18
HETATM   18  N6  UNL     1      13.793  10.773  56.739  1.00  0.00    -0.366 N 
HETATM   19  C5  UNL     1      14.639  10.858  55.603  1.00  0.00     0.128 C 
HETATM   20  C6  UNL     1      14.296   9.690  54.706  1.00  0.00     0.025 C 
HETATM   21  C7  UNL     1      13.534   8.763  55.593  1.00  0.00     0.046 C 
HETATM   22  C8  UNL     1      12.925   9.726  56.604  1.00  0.00     0.063 C 
ENDBRANCH  17  18
ENDBRANCH  14  17
BRANCH  15  23
HETATM   23  O2  UNL     1      11.880  13.178  60.009  1.00  0.00    -0.288 OA
ATOM     24  H2  UNL     1      11.368  13.053  60.800  1.00  0.00     0.244 HD
ENDBRANCH  15  23
ENDBRANCH   1  14
TORSDOF 8
ENDMDL
MODEL 5
REMARK VINA RESULT: -6.557647692      2.413      3.062
REMARK  8 active torsions:
REMARK  status: ('A' for Active; 'I' for Inactive)
REMARK       I    between atoms: C1_2  and  N2_4 
REMARK    1  A    between atoms: N2_4  and  N3_6 
REMARK    2  A    between atoms: N3_6  and  C2_8 
REMARK    3  A    between atoms: C2_8  and  N4_10 
REMARK    4  A    between atoms: N4_10  and  N5_12 
REMARK    5  A    between atoms: N5_12  and  C3_14 
REMARK    6  A    between atoms: C3_14  and  C4_15 
REMARK    7  A    between atoms: C4_15  and  N6_16 
REMARK    8  A    between atoms: N7_21  and  O2_23 
ROOT
HETATM    1  N5  UNL     1      15.523  12.688  58.574  1.00  0.00    -0.281 N 
ATOM      2  H5  UNL     1      15.797  12.910  57.617  1.00  0.00     0.188 HD
ENDROOT
BRANCH   1   3
HETATM    3  N4  UNL     1      15.869  13.552  59.590  1.00  0.00    -0.273 N 
ATOM      4  H4  UNL     1      16.849  13.817  59.693  1.00  0.00     0.189 HD
BRANCH   3   5
HETATM    5  C2  UNL     1      14.908  14.097  60.511  1.00  0.00     0.205 C 
HETATM    6  S1  UNL     1      14.875  13.651  62.074  1.00  0.00    -0.038 SA
BRANCH   5   7
HETATM    7  N3  UNL     1      13.947  15.059  60.076  1.00  0.00    -0.271 N 
ATOM      8  H3  UNL     1      14.113  16.040  60.303  1.00  0.00     0.189 HD
BRANCH   7   9
HETATM    9  N2  UNL     1      12.800  14.737  59.363  1.00  0.00    -0.252 N 
HETATM   10  C1  UNL     1      11.549  14.455  59.967  1.00  0.00     0.347 C 
HETATM   11  N1  UNL     1      10.401  14.129  59.172  1.00  0.00    -0.038 NA
HETATM   12  O1  UNL     1      11.462  14.493  61.226  1.00  0.00    -0.249 OA
ATOM     13  H2  UNL     1      12.861  14.702  58.346  1.00  0.00     0.191 HD
ENDBRANCH   7   9
ENDBRANCH   5   7
ENDBRANCH   3   5
ENDBRANCH   1   3
BRANCH   1  14
HETATM   14  C3  UNL     1      14.795  11.495  58.828  1.00  0.00     0.155 C 
HETATM   15  N7  UNL     1      15.371  10.598  59.531  1.00  0.00    -0.251 N 
ATOM     16  H7  UNL     1      14.868   9.732  59.726  1.00  0.00     0.196 HD
BRANCH  14  17
HETATM   17  C4  UNL     1      13.455  11.404  58.266  1.00  0.00     0.141 C 
BRANCH  17  18
HETATM   18  N6  UNL     1      13.237  10.833  57.024  1.00  0.00    -0.366 N 
HETATM   19  C5  UNL     1      14.156  11.150  55.990  1.00  0.00     0.128 C 
HETATM   20  C6  UNL     1      14.183   9.972  55.043  1.00  0.00     0.025 C 
HETATM   21  C7  UNL     1      13.563   8.863  55.826  1.00  0.00     0.046 C 
HETATM   22  C8  UNL     1      12.648   9.625  56.778  1.00  0.00     0.063 C 
ENDBRANCH  17  18
ENDBRANCH  14  17
BRANCH  15  23
HETATM   23  O2  UNL     1      16.623  10.747  60.029  1.00  0.00    -0.288 OA
ATOM     24  H2  UNL     1      17.026  11.598  60.161  1.00  0.00     0.244 HD
ENDBRANCH  15  23
ENDBRANCH   1  14
TORSDOF 8
ENDMDL
