MODEL 1
REMARK VINA RESULT: -8.611464100      0.000      0.000
REMARK  3 active torsions:
REMARK  status: ('A' for Active; 'I' for Inactive)
REMARK    1  A    between atoms: N1_2  and  C2_5 
REMARK    2  A    between atoms: C2_5  and  C3_6 
REMARK    3  A    between atoms: C3_6  and  C4_7 
ROOT
HETATM    1  C4  UNL     1     -17.774  35.907  -0.510  1.00  0.00     0.038 C 
HETATM    2  C5  UNL     1     -17.450  35.795   0.938  1.00  0.00    -0.007 C 
HETATM    3  N2  UNL     1     -16.470  35.529   1.653  1.00  0.00    -0.405 N 
ATOM      4  H21 UNL     1     -16.249  35.453   2.646  1.00  0.00     0.155 HD
ATOM      5  H22 UNL     1     -15.607  35.252   1.186  1.00  0.00     0.155 HD
HETATM    6  C6  UNL     1     -18.769  36.219   1.652  1.00  0.00    -0.005 C 
HETATM    7  C7  UNL     1     -18.469  36.838   2.974  1.00  0.00     0.021 C 
HETATM    8  C8  UNL     1     -19.533  34.924   1.814  1.00  0.00     0.021 C 
HETATM    9  C9  UNL     1     -19.367  37.157   0.669  1.00  0.00     0.008 C 
HETATM   10  C10 UNL     1     -19.486  38.601   1.114  1.00  0.00     0.033 C 
HETATM   11  C11 UNL     1     -20.251  39.225  -0.041  1.00  0.00    -0.022 C 
HETATM   12  C12 UNL     1     -20.086  38.813  -1.285  1.00  0.00    -0.067 C 
HETATM   13  C13 UNL     1     -20.901  39.500  -2.367  1.00  0.00    -0.024 C 
HETATM   14  C14 UNL     1     -20.383  40.830  -2.751  1.00  0.00     0.019 C 
HETATM   15  C15 UNL     1     -22.337  39.705  -1.856  1.00  0.00     0.019 C 
HETATM   16  C16 UNL     1     -21.069  38.528  -3.535  1.00  0.00     0.013 C 
HETATM   17  C17 UNL     1     -21.247  37.167  -2.938  1.00  0.00     0.002 C 
HETATM   18  C18 UNL     1     -19.982  36.626  -2.325  1.00  0.00     0.014 C 
HETATM   19  C19 UNL     1     -19.145  37.714  -1.684  1.00  0.00    -0.015 C 
HETATM   20  C20 UNL     1     -18.146  38.212  -2.712  1.00  0.00     0.020 C 
HETATM   21  C21 UNL     1     -18.373  37.282  -0.511  1.00  0.00     0.013 C 
ENDROOT
BRANCH   1  22
HETATM   22  C3  UNL     1     -16.621  35.652  -1.383  1.00  0.00     0.038 C 
BRANCH  22  23
HETATM   23  C2  UNL     1     -16.976  34.745  -2.520  1.00  0.00     0.232 C 
BRANCH  23  24
HETATM   24  N1  UNL     1     -16.256  35.103  -3.738  1.00  0.00    -0.079 N 
HETATM   25  C1  UNL     1     -14.839  35.193  -3.458  1.00  0.00     0.266 C 
ATOM     26  H12 UNL     1     -16.619  35.957  -4.162  1.00  0.00     0.276 HD
ATOM     27  H11 UNL     1     -16.456  34.461  -4.506  1.00  0.00     0.276 HD
ENDBRANCH  23  24
ENDBRANCH  22  23
ENDBRANCH   1  22
TORSDOF 3
ENDMDL
MODEL 2
REMARK VINA RESULT: -8.224337282      1.621      2.130
REMARK  3 active torsions:
REMARK  status: ('A' for Active; 'I' for Inactive)
REMARK    1  A    between atoms: N1_2  and  C2_5 
REMARK    2  A    between atoms: C2_5  and  C3_6 
REMARK    3  A    between atoms: C3_6  and  C4_7 
ROOT
HETATM    1  C4  UNL     1     -17.211  35.027  -1.201  1.00  0.00     0.038 C 
HETATM    2  C5  UNL     1     -17.003  35.446   0.212  1.00  0.00    -0.007 C 
HETATM    3  N2  UNL     1     -16.112  35.396   1.073  1.00  0.00    -0.405 N 
ATOM      4  H21 UNL     1     -15.970  35.684   2.042  1.00  0.00     0.155 HD
ATOM      5  H22 UNL     1     -15.254  34.897   0.836  1.00  0.00     0.155 HD
HETATM    6  C6  UNL     1     -18.314  36.208   0.574  1.00  0.00    -0.005 C 
HETATM    7  C7  UNL     1     -18.040  37.256   1.597  1.00  0.00     0.021 C 
HETATM    8  C8  UNL     1     -19.226  35.133   1.120  1.00  0.00     0.021 C 
HETATM    9  C9  UNL     1     -18.734  36.748  -0.744  1.00  0.00     0.008 C 
HETATM   10  C10 UNL     1     -18.722  38.257  -0.880  1.00  0.00     0.033 C 
HETATM   11  C11 UNL     1     -19.331  38.456  -2.257  1.00  0.00    -0.022 C 
HETATM   12  C12 UNL     1     -19.127  37.592  -3.236  1.00  0.00    -0.067 C 
HETATM   13  C13 UNL     1     -19.783  37.880  -4.576  1.00  0.00    -0.024 C 
HETATM   14  C14 UNL     1     -19.094  38.922  -5.366  1.00  0.00     0.019 C 
HETATM   15  C15 UNL     1     -21.219  38.373  -4.333  1.00  0.00     0.019 C 
HETATM   16  C16 UNL     1     -19.976  36.555  -5.313  1.00  0.00     0.013 C 
HETATM   17  C17 UNL     1     -20.345  35.538  -4.278  1.00  0.00     0.002 C 
HETATM   18  C18 UNL     1     -19.194  35.174  -3.377  1.00  0.00     0.014 C 
HETATM   19  C19 UNL     1     -18.288  36.356  -3.099  1.00  0.00    -0.015 C 
HETATM   20  C20 UNL     1     -17.170  36.349  -4.125  1.00  0.00     0.020 C 
HETATM   21  C21 UNL     1     -17.652  36.341  -1.775  1.00  0.00     0.013 C 
ENDROOT
BRANCH   1  22
HETATM   22  C3  UNL     1     -16.035  34.373  -1.791  1.00  0.00     0.038 C 
BRANCH  22  23
HETATM   23  C2  UNL     1     -14.912  35.340  -2.005  1.00  0.00     0.232 C 
BRANCH  23  24
HETATM   24  N1  UNL     1     -13.772  34.702  -2.655  1.00  0.00    -0.079 N 
HETATM   25  C1  UNL     1     -13.849  34.906  -4.085  1.00  0.00     0.266 C 
ATOM     26  H12 UNL     1     -13.693  33.715  -2.411  1.00  0.00     0.276 HD
ATOM     27  H11 UNL     1     -12.882  35.020  -2.269  1.00  0.00     0.276 HD
ENDBRANCH  23  24
ENDBRANCH  22  23
ENDBRANCH   1  22
TORSDOF 3
ENDMDL
MODEL 3
REMARK VINA RESULT: -8.135782093      2.563      5.770
REMARK  3 active torsions:
REMARK  status: ('A' for Active; 'I' for Inactive)
REMARK    1  A    between atoms: N1_2  and  C2_5 
REMARK    2  A    between atoms: C2_5  and  C3_6 
REMARK    3  A    between atoms: C3_6  and  C4_7 
ROOT
HETATM    1  C4  UNL     1     -20.854  38.641  -1.825  1.00  0.00     0.038 C 
HETATM    2  C5  UNL     1     -20.940  40.116  -2.002  1.00  0.00    -0.007 C 
HETATM    3  N2  UNL     1     -21.107  41.127  -1.301  1.00  0.00    -0.405 N 
ATOM      4  H21 UNL     1     -21.167  42.138  -1.423  1.00  0.00     0.155 HD
ATOM      5  H22 UNL     1     -21.292  40.987  -0.308  1.00  0.00     0.155 HD
HETATM    6  C6  UNL     1     -20.658  40.329  -3.519  1.00  0.00    -0.005 C 
HETATM    7  C7  UNL     1     -20.018  41.656  -3.748  1.00  0.00     0.021 C 
HETATM    8  C8  UNL     1     -22.025  40.261  -4.161  1.00  0.00     0.021 C 
HETATM    9  C9  UNL     1     -19.781  39.175  -3.838  1.00  0.00     0.008 C 
HETATM   10  C10 UNL     1     -18.359  39.510  -4.242  1.00  0.00     0.033 C 
HETATM   11  C11 UNL     1     -17.809  38.148  -4.628  1.00  0.00    -0.022 C 
HETATM   12  C12 UNL     1     -18.196  37.045  -4.011  1.00  0.00    -0.067 C 
HETATM   13  C13 UNL     1     -17.589  35.732  -4.475  1.00  0.00    -0.024 C 
HETATM   14  C14 UNL     1     -16.212  35.506  -3.990  1.00  0.00     0.019 C 
HETATM   15  C15 UNL     1     -17.536  35.721  -6.012  1.00  0.00     0.019 C 
HETATM   16  C16 UNL     1     -18.567  34.605  -4.140  1.00  0.00     0.013 C 
HETATM   17  C17 UNL     1     -19.942  35.146  -4.375  1.00  0.00     0.002 C 
HETATM   18  C18 UNL     1     -20.355  36.166  -3.346  1.00  0.00     0.014 C 
HETATM   19  C19 UNL     1     -19.189  37.020  -2.888  1.00  0.00    -0.015 C 
HETATM   20  C20 UNL     1     -18.587  36.375  -1.653  1.00  0.00     0.020 C 
HETATM   21  C21 UNL     1     -19.547  38.396  -2.520  1.00  0.00     0.013 C 
ENDROOT
BRANCH   1  22
HETATM   22  C3  UNL     1     -20.983  38.216  -0.425  1.00  0.00     0.038 C 
BRANCH  22  23
HETATM   23  C2  UNL     1     -19.757  38.543   0.371  1.00  0.00     0.232 C 
BRANCH  23  24
HETATM   24  N1  UNL     1     -20.092  38.934   1.736  1.00  0.00    -0.079 N 
HETATM   25  C1  UNL     1     -19.151  38.337   2.659  1.00  0.00     0.266 C 
ATOM     26  H12 UNL     1     -21.058  38.710   1.974  1.00  0.00     0.276 HD
ATOM     27  H11 UNL     1     -20.145  39.948   1.843  1.00  0.00     0.276 HD
ENDBRANCH  23  24
ENDBRANCH  22  23
ENDBRANCH   1  22
TORSDOF 3
ENDMDL
MODEL 4
REMARK VINA RESULT: -7.935219433      2.038      5.609
REMARK  3 active torsions:
REMARK  status: ('A' for Active; 'I' for Inactive)
REMARK    1  A    between atoms: N1_2  and  C2_5 
REMARK    2  A    between atoms: C2_5  and  C3_6 
REMARK    3  A    between atoms: C3_6  and  C4_7 
ROOT
HETATM    1  C4  UNL     1     -18.906  37.453  -2.332  1.00  0.00     0.038 C 
HETATM    2  C5  UNL     1     -18.128  36.989  -3.512  1.00  0.00    -0.007 C 
HETATM    3  N2  UNL     1     -17.704  37.449  -4.584  1.00  0.00    -0.405 N 
ATOM      4  H21 UNL     1     -17.170  37.130  -5.393  1.00  0.00     0.155 HD
ATOM      5  H22 UNL     1     -17.960  38.407  -4.820  1.00  0.00     0.155 HD
HETATM    6  C6  UNL     1     -17.736  35.524  -3.151  1.00  0.00    -0.005 C 
HETATM    7  C7  UNL     1     -16.446  35.156  -3.800  1.00  0.00     0.021 C 
HETATM    8  C8  UNL     1     -18.879  34.694  -3.689  1.00  0.00     0.021 C 
HETATM    9  C9  UNL     1     -17.670  35.576  -1.668  1.00  0.00     0.008 C 
HETATM   10  C10 UNL     1     -16.303  35.352  -1.054  1.00  0.00     0.033 C 
HETATM   11  C11 UNL     1     -16.623  35.326   0.430  1.00  0.00    -0.022 C 
HETATM   12  C12 UNL     1     -17.587  36.069   0.945  1.00  0.00    -0.067 C 
HETATM   13  C13 UNL     1     -17.830  35.966   2.441  1.00  0.00    -0.024 C 
HETATM   14  C14 UNL     1     -16.843  36.702   3.258  1.00  0.00     0.019 C 
HETATM   15  C15 UNL     1     -17.753  34.489   2.860  1.00  0.00     0.019 C 
HETATM   16  C16 UNL     1     -19.285  36.345   2.719  1.00  0.00     0.013 C 
HETATM   17  C17 UNL     1     -20.096  35.792   1.590  1.00  0.00     0.002 C 
HETATM   18  C18 UNL     1     -19.876  36.528   0.294  1.00  0.00     0.014 C 
HETATM   19  C19 UNL     1     -18.444  37.000   0.140  1.00  0.00    -0.015 C 
HETATM   20  C20 UNL     1     -18.351  38.415   0.679  1.00  0.00     0.020 C 
HETATM   21  C21 UNL     1     -17.958  37.038  -1.245  1.00  0.00     0.013 C 
ENDROOT
BRANCH   1  22
HETATM   22  C3  UNL     1     -19.292  38.868  -2.411  1.00  0.00     0.038 C 
BRANCH  22  23
HETATM   23  C2  UNL     1     -20.779  39.041  -2.389  1.00  0.00     0.232 C 
BRANCH  23  24
HETATM   24  N1  UNL     1     -21.174  40.195  -1.589  1.00  0.00    -0.079 N 
HETATM   25  C1  UNL     1     -21.653  39.753  -0.297  1.00  0.00     0.266 C 
ATOM     26  H12 UNL     1     -21.855  40.782  -2.071  1.00  0.00     0.276 HD
ATOM     27  H11 UNL     1     -20.422  40.880  -1.506  1.00  0.00     0.276 HD
ENDBRANCH  23  24
ENDBRANCH  22  23
ENDBRANCH   1  22
TORSDOF 3
ENDMDL
MODEL 5
REMARK VINA RESULT: -7.800040388      2.306      4.759
REMARK  3 active torsions:
REMARK  status: ('A' for Active; 'I' for Inactive)
REMARK    1  A    between atoms: N1_2  and  C2_5 
REMARK    2  A    between atoms: C2_5  and  C3_6 
REMARK    3  A    between atoms: C3_6  and  C4_7 
ROOT
HETATM    1  C4  UNL     1     -19.609  37.227  -0.450  1.00  0.00     0.038 C 
HETATM    2  C5  UNL     1     -19.433  36.402   0.775  1.00  0.00    -0.007 C 
HETATM    3  N2  UNL     1     -20.126  35.962   1.707  1.00  0.00    -0.405 N 
ATOM      4  H21 UNL     1     -20.004  35.396   2.546  1.00  0.00     0.155 HD
ATOM      5  H22 UNL     1     -21.106  36.241   1.738  1.00  0.00     0.155 HD
HETATM    6  C6  UNL     1     -17.934  35.975   0.728  1.00  0.00    -0.005 C 
HETATM    7  C7  UNL     1     -17.748  34.657   1.398  1.00  0.00     0.021 C 
HETATM    8  C8  UNL     1     -17.214  37.076   1.473  1.00  0.00     0.021 C 
HETATM    9  C9  UNL     1     -17.663  35.953  -0.731  1.00  0.00     0.008 C 
HETATM   10  C10 UNL     1     -17.344  34.597  -1.329  1.00  0.00     0.033 C 
HETATM   11  C11 UNL     1     -16.985  34.958  -2.760  1.00  0.00    -0.022 C 
HETATM   12  C12 UNL     1     -17.575  35.959  -3.391  1.00  0.00    -0.067 C 
HETATM   13  C13 UNL     1     -17.142  36.241  -4.819  1.00  0.00    -0.024 C 
HETATM   14  C14 UNL     1     -17.705  35.301  -5.810  1.00  0.00     0.019 C 
HETATM   15  C15 UNL     1     -15.611  36.131  -4.909  1.00  0.00     0.019 C 
HETATM   16  C16 UNL     1     -17.416  37.715  -5.123  1.00  0.00     0.013 C 
HETATM   17  C17 UNL     1     -17.104  38.476  -3.873  1.00  0.00     0.002 C 
HETATM   18  C18 UNL     1     -18.110  38.242  -2.777  1.00  0.00     0.014 C 
HETATM   19  C19 UNL     1     -18.639  36.822  -2.778  1.00  0.00    -0.015 C 
HETATM   20  C20 UNL     1     -19.904  36.787  -3.616  1.00  0.00     0.020 C 
HETATM   21  C21 UNL     1     -18.990  36.298  -1.452  1.00  0.00     0.013 C 
ENDROOT
BRANCH   1  22
HETATM   22  C3  UNL     1     -20.998  37.654  -0.667  1.00  0.00     0.038 C 
BRANCH  22  23
HETATM   23  C2  UNL     1     -21.196  39.097  -0.321  1.00  0.00     0.232 C 
BRANCH  23  24
HETATM   24  N1  UNL     1     -21.884  39.816  -1.388  1.00  0.00    -0.079 N 
HETATM   25  C1  UNL     1     -20.923  40.557  -2.176  1.00  0.00     0.266 C 
ATOM     26  H12 UNL     1     -22.630  40.413  -1.030  1.00  0.00     0.276 HD
ATOM     27  H11 UNL     1     -22.455  39.195  -1.963  1.00  0.00     0.276 HD
ENDBRANCH  23  24
ENDBRANCH  22  23
ENDBRANCH   1  22
TORSDOF 3
ENDMDL
