MODEL 1
REMARK VINA RESULT: -8.500883569      0.000      0.000
REMARK  7 active torsions:
REMARK  status: ('A' for Active; 'I' for Inactive)
REMARK    1  A    between atoms: C2_2  and  O1_3 
REMARK    2  A    between atoms: O1_3  and  C3_4 
REMARK    3  A    between atoms: C3_4  and  C4_6 
REMARK    4  A    between atoms: C7_11  and  C8_12 
REMARK    5  A    between atoms: C8_12  and  O4_14 
REMARK    6  A    between atoms: O4_14  and  C9_15 
REMARK    7  A    between atoms: C11_17  and  C12_18 
ROOT
HETATM    1  C4  UNL     1       4.083  -0.068  23.346  1.00  0.00     0.122 A 
HETATM    2  N1  UNL     1       3.772   0.044  24.687  1.00  0.00    -0.353 N 
ATOM      3  H1  UNL     1       4.134  -0.557  25.428  1.00  0.00     0.166 HD
HETATM    4  C5  UNL     1       2.931   1.057  24.866  1.00  0.00     0.023 A 
HETATM    5  C6  UNL     1       2.326   1.554  26.140  1.00  0.00     0.069 C 
HETATM    6  C7  UNL     1       2.648   1.658  23.650  1.00  0.00     0.076 A 
HETATM    7  C11 UNL     1       3.383   0.927  22.706  1.00  0.00     0.043 A 
ENDROOT
BRANCH   7   8
HETATM    8  C12 UNL     1       3.233   1.136  21.266  1.00  0.00     0.064 A 
HETATM    9  C13 UNL     1       4.183   1.451  20.324  1.00  0.00     0.070 A 
HETATM   10  C14 UNL     1       3.634   1.429  19.036  1.00  0.00     0.096 A 
HETATM   11 BR1  UNL     1       4.522   1.793  17.387  1.00  0.00    -0.030 Br
HETATM   12  N2  UNL     1       2.368   1.102  19.221  1.00  0.00    -0.293 N 
HETATM   13  N3  UNL     1       2.115   0.926  20.516  1.00  0.00    -0.299 N 
ATOM     14  H2  UNL     1       1.680   0.998  18.476  1.00  0.00     0.187 HD
ATOM     15  H3  UNL     1       1.205   0.668  20.896  1.00  0.00     0.187 HD
ENDBRANCH   7   8
BRANCH   1  16
HETATM   16  C3  UNL     1       5.022  -1.035  22.811  1.00  0.00     0.311 C 
HETATM   17  O2  UNL     1       6.128  -0.841  22.304  1.00  0.00    -0.258 OA
BRANCH  16  18
HETATM   18  O1  UNL     1       4.658  -2.402  22.855  1.00  0.00    -0.317 OA
BRANCH  18  19
HETATM   19  C2  UNL     1       4.138  -3.057  21.685  1.00  0.00     0.175 C 
HETATM   20  C1  UNL     1       4.533  -4.532  21.709  1.00  0.00     0.034 C 
ENDBRANCH  18  19
ENDBRANCH  16  18
ENDBRANCH   1  16
BRANCH   6  21
HETATM   21  C8  UNL     1       1.755   2.770  23.407  1.00  0.00     0.296 C 
HETATM   22  O3  UNL     1       1.467   3.219  22.257  1.00  0.00    -0.259 OA
BRANCH  21  23
HETATM   23  O4  UNL     1       1.137   3.435  24.473  1.00  0.00    -0.318 OA
BRANCH  23  24
HETATM   24  C9  UNL     1       0.271   4.549  24.228  1.00  0.00     0.174 C 
HETATM   25  C10 UNL     1      -1.123   4.044  24.063  1.00  0.00     0.034 C 
ENDBRANCH  23  24
ENDBRANCH  21  23
ENDBRANCH   6  21
TORSDOF 7
ENDMDL
MODEL 2
REMARK VINA RESULT: -8.327405105      1.003      1.904
REMARK  7 active torsions:
REMARK  status: ('A' for Active; 'I' for Inactive)
REMARK    1  A    between atoms: C2_2  and  O1_3 
REMARK    2  A    between atoms: O1_3  and  C3_4 
REMARK    3  A    between atoms: C3_4  and  C4_6 
REMARK    4  A    between atoms: C7_11  and  C8_12 
REMARK    5  A    between atoms: C8_12  and  O4_14 
REMARK    6  A    between atoms: O4_14  and  C9_15 
REMARK    7  A    between atoms: C11_17  and  C12_18 
ROOT
HETATM    1  C4  UNL     1       4.254  -0.132  23.142  1.00  0.00     0.122 A 
HETATM    2  N1  UNL     1       3.973  -0.059  24.492  1.00  0.00    -0.353 N 
ATOM      3  H1  UNL     1       4.370  -0.664  25.210  1.00  0.00     0.166 HD
HETATM    4  C5  UNL     1       3.104   0.923  24.713  1.00  0.00     0.023 A 
HETATM    5  C6  UNL     1       2.515   1.373  26.011  1.00  0.00     0.069 C 
HETATM    6  C7  UNL     1       2.773   1.540  23.517  1.00  0.00     0.076 A 
HETATM    7  C11 UNL     1       3.508   0.853  22.541  1.00  0.00     0.043 A 
ENDROOT
BRANCH   7   8
HETATM    8  C12 UNL     1       3.315   1.088  21.109  1.00  0.00     0.064 A 
HETATM    9  C13 UNL     1       4.233   1.448  20.151  1.00  0.00     0.070 A 
HETATM   10  C14 UNL     1       3.653   1.438  18.876  1.00  0.00     0.096 A 
HETATM   11 BR1  UNL     1       4.490   1.860  17.215  1.00  0.00    -0.030 Br
HETATM   12  N2  UNL     1       2.401   1.073  19.086  1.00  0.00    -0.293 N 
HETATM   13  N3  UNL     1       2.186   0.863  20.382  1.00  0.00    -0.299 N 
ATOM     14  H2  UNL     1       1.698   0.966  18.356  1.00  0.00     0.187 HD
ATOM     15  H3  UNL     1       1.292   0.573  20.779  1.00  0.00     0.187 HD
ENDBRANCH   7   8
BRANCH   1  16
HETATM   16  C3  UNL     1       5.209  -1.057  22.563  1.00  0.00     0.311 C 
HETATM   17  O2  UNL     1       5.169  -2.288  22.523  1.00  0.00    -0.258 OA
BRANCH  16  18
HETATM   18  O1  UNL     1       6.363  -0.514  21.948  1.00  0.00    -0.317 OA
BRANCH  18  19
HETATM   19  C2  UNL     1       7.103   0.540  22.587  1.00  0.00     0.175 C 
HETATM   20  C1  UNL     1       7.687   1.469  21.526  1.00  0.00     0.034 C 
ENDBRANCH  18  19
ENDBRANCH  16  18
ENDBRANCH   1  16
BRANCH   6  21
HETATM   21  C8  UNL     1       1.840   2.628  23.320  1.00  0.00     0.296 C 
HETATM   22  O3  UNL     1       1.569   3.144  22.194  1.00  0.00    -0.259 OA
BRANCH  21  23
HETATM   23  O4  UNL     1       1.160   3.190  24.407  1.00  0.00    -0.318 OA
BRANCH  23  24
HETATM   24  C9  UNL     1       0.385   4.383  24.238  1.00  0.00     0.174 C 
HETATM   25  C10 UNL     1      -1.040   4.001  24.017  1.00  0.00     0.034 C 
ENDBRANCH  23  24
ENDBRANCH  21  23
ENDBRANCH   6  21
TORSDOF 7
ENDMDL
MODEL 3
REMARK VINA RESULT: -7.811541680      1.897      2.840
REMARK  7 active torsions:
REMARK  status: ('A' for Active; 'I' for Inactive)
REMARK    1  A    between atoms: C2_2  and  O1_3 
REMARK    2  A    between atoms: O1_3  and  C3_4 
REMARK    3  A    between atoms: C3_4  and  C4_6 
REMARK    4  A    between atoms: C7_11  and  C8_12 
REMARK    5  A    between atoms: C8_12  and  O4_14 
REMARK    6  A    between atoms: O4_14  and  C9_15 
REMARK    7  A    between atoms: C11_17  and  C12_18 
ROOT
HETATM    1  C4  UNL     1       5.385  -0.023  22.129  1.00  0.00     0.122 A 
HETATM    2  N1  UNL     1       5.013  -0.097  23.457  1.00  0.00    -0.353 N 
ATOM      3  H1  UNL     1       5.524  -0.597  24.184  1.00  0.00     0.166 HD
HETATM    4  C5  UNL     1       3.887   0.583  23.643  1.00  0.00     0.023 A 
HETATM    5  C6  UNL     1       3.115   0.784  24.908  1.00  0.00     0.069 C 
HETATM    6  C7  UNL     1       3.465   1.137  22.444  1.00  0.00     0.076 A 
HETATM    7  C11 UNL     1       4.425   0.736  21.504  1.00  0.00     0.043 A 
ENDROOT
BRANCH   7   8
HETATM    8  C12 UNL     1       4.260   0.974  20.070  1.00  0.00     0.064 A 
HETATM    9  C13 UNL     1       4.064   0.073  19.051  1.00  0.00     0.070 A 
HETATM   10  C14 UNL     1       3.823   0.734  17.839  1.00  0.00     0.096 A 
HETATM   11 BR1  UNL     1       3.493  -0.050  16.132  1.00  0.00    -0.030 Br
HETATM   12  N2  UNL     1       3.878   2.017  18.148  1.00  0.00    -0.293 N 
HETATM   13  N3  UNL     1       4.131   2.177  19.444  1.00  0.00    -0.299 N 
ATOM     14  H2  UNL     1       3.744   2.780  17.484  1.00  0.00     0.187 HD
ATOM     15  H3  UNL     1       4.217   3.081  19.908  1.00  0.00     0.187 HD
ENDBRANCH   7   8
BRANCH   1  16
HETATM   16  C3  UNL     1       6.600  -0.607  21.594  1.00  0.00     0.311 C 
HETATM   17  O2  UNL     1       6.912  -1.796  21.501  1.00  0.00    -0.258 OA
BRANCH  16  18
HETATM   18  O1  UNL     1       7.593   0.272  21.100  1.00  0.00    -0.317 OA
BRANCH  18  19
HETATM   19  C2  UNL     1       7.966   1.445  21.844  1.00  0.00     0.175 C 
HETATM   20  C1  UNL     1       7.655   2.693  21.022  1.00  0.00     0.034 C 
ENDBRANCH  18  19
ENDBRANCH  16  18
ENDBRANCH   1  16
BRANCH   6  21
HETATM   21  C8  UNL     1       2.272   1.921  22.211  1.00  0.00     0.296 C 
HETATM   22  O3  UNL     1       1.489   1.758  21.228  1.00  0.00    -0.259 OA
BRANCH  21  23
HETATM   23  O4  UNL     1       1.905   2.942  23.096  1.00  0.00    -0.318 OA
BRANCH  23  24
HETATM   24  C9  UNL     1       0.565   3.447  23.104  1.00  0.00     0.174 C 
HETATM   25  C10 UNL     1       0.351   4.215  24.365  1.00  0.00     0.034 C 
ENDBRANCH  23  24
ENDBRANCH  21  23
ENDBRANCH   6  21
TORSDOF 7
ENDMDL
MODEL 4
REMARK VINA RESULT: -7.756431665      3.089      6.328
REMARK  7 active torsions:
REMARK  status: ('A' for Active; 'I' for Inactive)
REMARK    1  A    between atoms: C2_2  and  O1_3 
REMARK    2  A    between atoms: O1_3  and  C3_4 
REMARK    3  A    between atoms: C3_4  and  C4_6 
REMARK    4  A    between atoms: C7_11  and  C8_12 
REMARK    5  A    between atoms: C8_12  and  O4_14 
REMARK    6  A    between atoms: O4_14  and  C9_15 
REMARK    7  A    between atoms: C11_17  and  C12_18 
ROOT
HETATM    1  C4  UNL     1       3.184   1.274  20.327  1.00  0.00     0.122 A 
HETATM    2  N1  UNL     1       2.388   1.127  19.208  1.00  0.00    -0.353 N 
ATOM      3  H1  UNL     1       1.380   1.281  19.180  1.00  0.00     0.166 HD
HETATM    4  C5  UNL     1       3.135   0.753  18.175  1.00  0.00     0.023 A 
HETATM    5  C6  UNL     1       2.712   0.478  16.768  1.00  0.00     0.069 C 
HETATM    6  C7  UNL     1       4.460   0.636  18.567  1.00  0.00     0.076 A 
HETATM    7  C11 UNL     1       4.463   0.966  19.929  1.00  0.00     0.043 A 
ENDROOT
BRANCH   7   8
HETATM    8  C12 UNL     1       5.651   0.804  20.769  1.00  0.00     0.064 A 
HETATM    9  C13 UNL     1       6.689   1.677  20.991  1.00  0.00     0.070 A 
HETATM   10  C14 UNL     1       7.558   1.179  21.970  1.00  0.00     0.096 A 
HETATM   11 BR1  UNL     1       9.146   1.996  22.641  1.00  0.00    -0.030 Br
HETATM   12  N2  UNL     1       7.031   0.020  22.321  1.00  0.00    -0.293 N 
HETATM   13  N3  UNL     1       5.918  -0.216  21.631  1.00  0.00    -0.299 N 
ATOM     14  H2  UNL     1       7.423  -0.608  23.022  1.00  0.00     0.187 HD
ATOM     15  H3  UNL     1       5.341  -1.050  21.735  1.00  0.00     0.187 HD
ENDBRANCH   7   8
BRANCH   1  16
HETATM   16  C3  UNL     1       2.697   1.729  21.615  1.00  0.00     0.311 C 
HETATM   17  O2  UNL     1       1.927   2.657  21.867  1.00  0.00    -0.258 OA
BRANCH  16  18
HETATM   18  O1  UNL     1       3.141   1.041  22.769  1.00  0.00    -0.317 OA
BRANCH  18  19
HETATM   19  C2  UNL     1       2.710   1.454  24.077  1.00  0.00     0.175 C 
HETATM   20  C1  UNL     1       3.420   0.615  25.137  1.00  0.00     0.034 C 
ENDBRANCH  18  19
ENDBRANCH  16  18
ENDBRANCH   1  16
BRANCH   6  21
HETATM   21  C8  UNL     1       5.582   0.224  17.753  1.00  0.00     0.296 C 
HETATM   22  O3  UNL     1       5.867  -0.982  17.485  1.00  0.00    -0.259 OA
BRANCH  21  23
HETATM   23  O4  UNL     1       6.447   1.173  17.196  1.00  0.00    -0.318 OA
BRANCH  23  24
HETATM   24  C9  UNL     1       5.949   2.165  16.292  1.00  0.00     0.174 C 
HETATM   25  C10 UNL     1       5.977   3.492  16.974  1.00  0.00     0.034 C 
ENDBRANCH  23  24
ENDBRANCH  21  23
ENDBRANCH   6  21
TORSDOF 7
ENDMDL
MODEL 5
REMARK VINA RESULT: -7.744675150      3.906      6.840
REMARK  7 active torsions:
REMARK  status: ('A' for Active; 'I' for Inactive)
REMARK    1  A    between atoms: C2_2  and  O1_3 
REMARK    2  A    between atoms: O1_3  and  C3_4 
REMARK    3  A    between atoms: C3_4  and  C4_6 
REMARK    4  A    between atoms: C7_11  and  C8_12 
REMARK    5  A    between atoms: C8_12  and  O4_14 
REMARK    6  A    between atoms: O4_14  and  C9_15 
REMARK    7  A    between atoms: C11_17  and  C12_18 
ROOT
HETATM    1  C4  UNL     1       4.944  -0.109  17.620  1.00  0.00     0.122 A 
HETATM    2  N1  UNL     1       5.919  -0.938  17.099  1.00  0.00    -0.353 N 
ATOM      3  H1  UNL     1       5.947  -1.282  16.139  1.00  0.00     0.166 HD
HETATM    4  C5  UNL     1       6.814  -1.219  18.040  1.00  0.00     0.023 A 
HETATM    5  C6  UNL     1       8.039  -2.071  17.939  1.00  0.00     0.069 C 
HETATM    6  C7  UNL     1       6.469  -0.589  19.225  1.00  0.00     0.076 A 
HETATM    7  C11 UNL     1       5.284   0.102  18.935  1.00  0.00     0.043 A 
ENDROOT
BRANCH   7   8
HETATM    8  C12 UNL     1       4.494   0.768  19.971  1.00  0.00     0.064 A 
HETATM    9  C13 UNL     1       4.203   0.355  21.249  1.00  0.00     0.070 A 
HETATM   10  C14 UNL     1       3.526   1.358  21.956  1.00  0.00     0.096 A 
HETATM   11 BR1  UNL     1       2.896   1.291  23.755  1.00  0.00    -0.030 Br
HETATM   12  N2  UNL     1       3.422   2.354  21.095  1.00  0.00    -0.293 N 
HETATM   13  N3  UNL     1       3.982   2.029  19.932  1.00  0.00    -0.299 N 
ATOM     14  H2  UNL     1       2.975   3.249  21.294  1.00  0.00     0.187 HD
ATOM     15  H3  UNL     1       4.021   2.644  19.119  1.00  0.00     0.187 HD
ENDBRANCH   7   8
BRANCH   1  16
HETATM   16  C3  UNL     1       3.846   0.437  16.846  1.00  0.00     0.311 C 
HETATM   17  O2  UNL     1       2.894  -0.151  16.331  1.00  0.00    -0.258 OA
BRANCH  16  18
HETATM   18  O1  UNL     1       3.827   1.835  16.625  1.00  0.00    -0.317 OA
BRANCH  18  19
HETATM   19  C2  UNL     1       4.973   2.503  16.073  1.00  0.00     0.175 C 
HETATM   20  C1  UNL     1       5.540   3.479  17.101  1.00  0.00     0.034 C 
ENDBRANCH  18  19
ENDBRANCH  16  18
ENDBRANCH   1  16
BRANCH   6  21
HETATM   21  C8  UNL     1       7.162  -0.663  20.493  1.00  0.00     0.296 C 
HETATM   22  O3  UNL     1       6.994  -1.584  21.347  1.00  0.00    -0.259 OA
BRANCH  21  23
HETATM   23  O4  UNL     1       8.092   0.318  20.857  1.00  0.00    -0.318 OA
BRANCH  23  24
HETATM   24  C9  UNL     1       7.717   1.377  21.745  1.00  0.00     0.174 C 
HETATM   25  C10 UNL     1       7.537   2.627  20.949  1.00  0.00     0.034 C 
ENDBRANCH  23  24
ENDBRANCH  21  23
ENDBRANCH   6  21
TORSDOF 7
ENDMDL
