MODEL 1
REMARK VINA RESULT: -5.144251948      0.000      0.000
REMARK  1 active torsions:
REMARK  status: ('A' for Active; 'I' for Inactive)
REMARK    1  A    between atoms: C4_4  and  C5_5 
ROOT
HETATM    1  C1  UNL     1      14.401  25.604  10.469  1.00  0.00     0.011 C 
HETATM    2  C2  UNL     1      15.386  24.511  10.198  1.00  0.00    -0.005 A 
HETATM    3  C3  UNL     1      14.857  23.386   9.329  1.00  0.00     0.019 A 
HETATM    4  C4  UNL     1      15.971  24.267   8.874  1.00  0.00     0.079 A 
ENDROOT
BRANCH   4   5
HETATM    5  C5  UNL     1      17.305  23.608   8.826  1.00  0.00     0.235 C 
HETATM    6  N1  UNL     1      18.489  24.283   8.427  1.00  0.00    -0.062 NA
HETATM    7  O1  UNL     1      17.392  22.398   9.151  1.00  0.00    -0.276 OA
ENDBRANCH   4   5
TORSDOF 1
ENDMDL
MODEL 2
REMARK VINA RESULT: -5.035393097      3.224      3.780
REMARK  1 active torsions:
REMARK  status: ('A' for Active; 'I' for Inactive)
REMARK    1  A    between atoms: C4_4  and  C5_5 
ROOT
HETATM    1  C1  UNL     1      16.198  24.453   8.354  1.00  0.00     0.011 C 
HETATM    2  C2  UNL     1      15.002  24.398   9.251  1.00  0.00    -0.005 A 
HETATM    3  C3  UNL     1      14.532  22.997   9.590  1.00  0.00     0.019 A 
HETATM    4  C4  UNL     1      15.058  23.919  10.637  1.00  0.00     0.079 A 
ENDROOT
BRANCH   4   5
HETATM    5  C5  UNL     1      14.031  24.437  11.582  1.00  0.00     0.235 C 
HETATM    6  N1  UNL     1      14.351  24.956  12.866  1.00  0.00    -0.062 NA
HETATM    7  O1  UNL     1      12.826  24.416  11.234  1.00  0.00    -0.276 OA
ENDBRANCH   4   5
TORSDOF 1
ENDMDL
MODEL 3
REMARK VINA RESULT: -5.031764040      3.403      3.942
REMARK  1 active torsions:
REMARK  status: ('A' for Active; 'I' for Inactive)
REMARK    1  A    between atoms: C4_4  and  C5_5 
ROOT
HETATM    1  C1  UNL     1      15.931  24.502   8.475  1.00  0.00     0.011 C 
HETATM    2  C2  UNL     1      14.806  24.433   9.458  1.00  0.00    -0.005 A 
HETATM    3  C3  UNL     1      14.392  23.027   9.845  1.00  0.00     0.019 A 
HETATM    4  C4  UNL     1      14.974  23.971  10.841  1.00  0.00     0.079 A 
ENDROOT
BRANCH   4   5
HETATM    5  C5  UNL     1      14.009  24.479  11.854  1.00  0.00     0.235 C 
HETATM    6  N1  UNL     1      12.613  24.586  11.610  1.00  0.00    -0.062 NA
HETATM    7  O1  UNL     1      14.444  24.831  12.978  1.00  0.00    -0.276 OA
ENDBRANCH   4   5
TORSDOF 1
ENDMDL
MODEL 4
REMARK VINA RESULT: -4.907684368      3.776      4.500
REMARK  1 active torsions:
REMARK  status: ('A' for Active; 'I' for Inactive)
REMARK    1  A    between atoms: C4_4  and  C5_5 
ROOT
HETATM    1  C1  UNL     1      15.305  24.510   8.756  1.00  0.00     0.011 C 
HETATM    2  C2  UNL     1      14.600  24.375  10.069  1.00  0.00    -0.005 A 
HETATM    3  C3  UNL     1      15.466  24.656  11.281  1.00  0.00     0.019 A 
HETATM    4  C4  UNL     1      14.298  25.518  10.939  1.00  0.00     0.079 A 
ENDROOT
BRANCH   4   5
HETATM    5  C5  UNL     1      13.137  25.386  11.863  1.00  0.00     0.235 C 
HETATM    6  N1  UNL     1      12.948  26.226  12.994  1.00  0.00    -0.062 NA
HETATM    7  O1  UNL     1      12.284  24.495  11.636  1.00  0.00    -0.276 OA
ENDBRANCH   4   5
TORSDOF 1
ENDMDL
MODEL 5
REMARK VINA RESULT: -4.812440873      1.223      1.463
REMARK  1 active torsions:
REMARK  status: ('A' for Active; 'I' for Inactive)
REMARK    1  A    between atoms: C4_4  and  C5_5 
ROOT
HETATM    1  C1  UNL     1      14.096  26.389  11.502  1.00  0.00     0.011 C 
HETATM    2  C2  UNL     1      14.817  25.151  11.073  1.00  0.00    -0.005 A 
HETATM    3  C3  UNL     1      13.914  23.989  10.707  1.00  0.00     0.019 A 
HETATM    4  C4  UNL     1      14.793  24.643   9.696  1.00  0.00     0.079 A 
ENDROOT
BRANCH   4   5
HETATM    5  C5  UNL     1      15.949  23.818   9.250  1.00  0.00     0.235 C 
HETATM    6  N1  UNL     1      17.119  24.374   8.665  1.00  0.00    -0.062 NA
HETATM    7  O1  UNL     1      15.893  22.573   9.395  1.00  0.00    -0.276 OA
ENDBRANCH   4   5
TORSDOF 1
ENDMDL
