MODEL 1
REMARK VINA RESULT: -5.896093755      0.000      0.000
REMARK  5 active torsions:
REMARK  status: ('A' for Active; 'I' for Inactive)
REMARK    1  A    between atoms: N1_1  and  C1_4 
REMARK    2  A    between atoms: C2_10  and  C3_11 
REMARK    3  A    between atoms: C3_11  and  N4_12 
REMARK    4  A    between atoms: C3_11  and  N5_16 
REMARK    5  A    between atoms: N5_16  and  C4_18 
ROOT
HETATM    1  C1  UNL     1     -42.309   2.851   5.380  1.00  0.00     0.149 A 
HETATM    2  N2  UNL     1     -41.669   3.998   5.665  1.00  0.00    -0.224 N 
ATOM      3  H2  UNL     1     -42.045   4.943   5.580  1.00  0.00     0.198 HD
HETATM    4  O1  UNL     1     -40.460   3.666   6.076  1.00  0.00    -0.155 OA
HETATM    5  N3  UNL     1     -40.313   2.384   6.064  1.00  0.00    -0.238 N 
ATOM      6  H3  UNL     1     -39.467   1.886   6.339  1.00  0.00     0.196 HD
HETATM    7  C2  UNL     1     -41.467   1.798   5.625  1.00  0.00     0.129 A 
ENDROOT
BRANCH   7   8
HETATM    8  C3  UNL     1     -41.755   0.375   5.454  1.00  0.00     0.340 C 
BRANCH   8   9
HETATM    9  N4  UNL     1     -42.753  -0.154   6.354  1.00  0.00    -0.052 N 
ATOM     10  H43 UNL     1     -42.375  -0.947   6.873  1.00  0.00     0.277 HD
ATOM     11  H42 UNL     1     -42.916   0.498   7.122  1.00  0.00     0.277 HD
ATOM     12  H41 UNL     1     -43.636  -0.409   5.912  1.00  0.00     0.277 HD
ENDBRANCH   8   9
BRANCH   8  13
HETATM   13  N5  UNL     1     -40.534  -0.367   5.718  1.00  0.00    -0.336 N 
ATOM     14  H5  UNL     1     -39.621   0.038   5.514  1.00  0.00     0.164 HD
BRANCH  13  15
HETATM   15  C4  UNL     1     -40.647  -1.665   6.265  1.00  0.00     0.350 C 
HETATM   16  O2  UNL     1     -41.119  -2.598   5.568  1.00  0.00    -0.284 OA
ENDBRANCH  13  15
ENDBRANCH   8  13
ENDBRANCH   7   8
BRANCH   1  17
HETATM   17  N1  UNL     1     -43.515   2.782   4.948  1.00  0.00    -0.382 N 
ATOM     18  H12 UNL     1     -44.102   3.564   4.656  1.00  0.00     0.157 HD
ATOM     19  H11 UNL     1     -44.042   1.915   4.845  1.00  0.00     0.157 HD
ENDBRANCH   1  17
TORSDOF 5
ENDMDL
MODEL 2
REMARK VINA RESULT: -5.863778773      1.555      4.624
REMARK  5 active torsions:
REMARK  status: ('A' for Active; 'I' for Inactive)
REMARK    1  A    between atoms: N1_1  and  C1_4 
REMARK    2  A    between atoms: C2_10  and  C3_11 
REMARK    3  A    between atoms: C3_11  and  N4_12 
REMARK    4  A    between atoms: C3_11  and  N5_16 
REMARK    5  A    between atoms: N5_16  and  C4_18 
ROOT
HETATM    1  C1  UNL     1     -41.235  -0.268   5.977  1.00  0.00     0.149 A 
HETATM    2  N2  UNL     1     -42.019  -1.132   6.644  1.00  0.00    -0.224 N 
ATOM      3  H2  UNL     1     -41.783  -2.089   6.907  1.00  0.00     0.198 HD
HETATM    4  O1  UNL     1     -43.151  -0.503   6.893  1.00  0.00    -0.155 OA
HETATM    5  N3  UNL     1     -43.116   0.698   6.421  1.00  0.00    -0.238 N 
ATOM      6  H3  UNL     1     -43.872   1.379   6.489  1.00  0.00     0.196 HD
HETATM    7  C2  UNL     1     -41.909   0.915   5.818  1.00  0.00     0.129 A 
ENDROOT
BRANCH   7   8
HETATM    8  C3  UNL     1     -41.430   2.125   5.153  1.00  0.00     0.340 C 
BRANCH   8   9
HETATM    9  N4  UNL     1     -40.590   2.972   5.967  1.00  0.00    -0.052 N 
ATOM     10  H43 UNL     1     -40.526   3.904   5.559  1.00  0.00     0.277 HD
ATOM     11  H42 UNL     1     -41.059   3.195   6.845  1.00  0.00     0.277 HD
ATOM     12  H41 UNL     1     -39.657   2.600   6.150  1.00  0.00     0.277 HD
ENDBRANCH   8   9
BRANCH   8  13
HETATM   13  N5  UNL     1     -42.586   2.928   4.790  1.00  0.00    -0.336 N 
ATOM     14  H5  UNL     1     -43.284   2.574   4.136  1.00  0.00     0.164 HD
BRANCH  13  15
HETATM   15  C4  UNL     1     -42.717   4.209   5.369  1.00  0.00     0.350 C 
HETATM   16  O2  UNL     1     -42.199   5.206   4.805  1.00  0.00    -0.284 OA
ENDBRANCH  13  15
ENDBRANCH   8  13
ENDBRANCH   7   8
BRANCH   1  17
HETATM   17  N1  UNL     1     -40.049  -0.534   5.565  1.00  0.00    -0.382 N 
ATOM     18  H12 UNL     1     -39.794  -1.202   4.837  1.00  0.00     0.157 HD
ATOM     19  H11 UNL     1     -39.201  -0.098   5.927  1.00  0.00     0.157 HD
ENDBRANCH   1  17
TORSDOF 5
ENDMDL
MODEL 3
REMARK VINA RESULT: -5.813431163      1.547      4.508
REMARK  5 active torsions:
REMARK  status: ('A' for Active; 'I' for Inactive)
REMARK    1  A    between atoms: N1_1  and  C1_4 
REMARK    2  A    between atoms: C2_10  and  C3_11 
REMARK    3  A    between atoms: C3_11  and  N4_12 
REMARK    4  A    between atoms: C3_11  and  N5_16 
REMARK    5  A    between atoms: N5_16  and  C4_18 
ROOT
HETATM    1  C1  UNL     1     -40.582  -1.251   5.675  1.00  0.00     0.149 A 
HETATM    2  N2  UNL     1     -40.223  -1.985   4.607  1.00  0.00    -0.224 N 
ATOM      3  H2  UNL     1     -39.805  -2.915   4.621  1.00  0.00     0.198 HD
HETATM    4  O1  UNL     1     -40.516  -1.269   3.539  1.00  0.00    -0.155 OA
HETATM    5  N3  UNL     1     -41.036  -0.138   3.879  1.00  0.00    -0.238 N 
ATOM      6  H3  UNL     1     -41.345   0.586   3.231  1.00  0.00     0.196 HD
HETATM    7  C2  UNL     1     -41.107  -0.061   5.242  1.00  0.00     0.129 A 
ENDROOT
BRANCH   7   8
HETATM    8  C3  UNL     1     -41.624   1.031   6.065  1.00  0.00     0.340 C 
BRANCH   8   9
HETATM    9  N4  UNL     1     -43.007   1.369   5.824  1.00  0.00    -0.052 N 
ATOM     10  H43 UNL     1     -43.073   2.283   5.375  1.00  0.00     0.277 HD
ATOM     11  H42 UNL     1     -43.390   0.780   5.084  1.00  0.00     0.277 HD
ATOM     12  H41 UNL     1     -43.606   1.335   6.649  1.00  0.00     0.277 HD
ENDBRANCH   8   9
BRANCH   8  13
HETATM   13  N5  UNL     1     -40.854   2.225   5.764  1.00  0.00    -0.336 N 
ATOM     14  H5  UNL     1     -39.964   2.164   5.269  1.00  0.00     0.164 HD
BRANCH  13  15
HETATM   15  C4  UNL     1     -41.371   3.474   6.175  1.00  0.00     0.350 C 
HETATM   16  O2  UNL     1     -41.674   4.338   5.314  1.00  0.00    -0.284 OA
ENDBRANCH  13  15
ENDBRANCH   8  13
ENDBRANCH   7   8
BRANCH   1  17
HETATM   17  N1  UNL     1     -40.444  -1.629   6.893  1.00  0.00    -0.382 N 
ATOM     18  H12 UNL     1     -40.757  -1.128   7.725  1.00  0.00     0.157 HD
ATOM     19  H11 UNL     1     -39.990  -2.496   7.180  1.00  0.00     0.157 HD
ENDBRANCH   1  17
TORSDOF 5
ENDMDL
MODEL 4
REMARK VINA RESULT: -5.712018089      1.299      2.004
REMARK  5 active torsions:
REMARK  status: ('A' for Active; 'I' for Inactive)
REMARK    1  A    between atoms: N1_1  and  C1_4 
REMARK    2  A    between atoms: C2_10  and  C3_11 
REMARK    3  A    between atoms: C3_11  and  N4_12 
REMARK    4  A    between atoms: C3_11  and  N5_16 
REMARK    5  A    between atoms: N5_16  and  C4_18 
ROOT
HETATM    1  C1  UNL     1     -41.259   2.902   6.089  1.00  0.00     0.149 A 
HETATM    2  N2  UNL     1     -42.229   3.806   6.312  1.00  0.00    -0.224 N 
ATOM      3  H2  UNL     1     -42.102   4.800   6.503  1.00  0.00     0.198 HD
HETATM    4  O1  UNL     1     -43.375   3.159   6.236  1.00  0.00    -0.155 OA
HETATM    5  N3  UNL     1     -43.176   1.910   5.980  1.00  0.00    -0.238 N 
ATOM      6  H3  UNL     1     -43.906   1.206   5.873  1.00  0.00     0.196 HD
HETATM    7  C2  UNL     1     -41.833   1.677   5.872  1.00  0.00     0.129 A 
ENDROOT
BRANCH   7   8
HETATM    8  C3  UNL     1     -41.149   0.416   5.589  1.00  0.00     0.340 C 
BRANCH   8   9
HETATM    9  N4  UNL     1     -41.071   0.071   4.189  1.00  0.00    -0.052 N 
ATOM     10  H43 UNL     1     -41.923   0.357   3.706  1.00  0.00     0.277 HD
ATOM     11  H42 UNL     1     -40.391   0.667   3.716  1.00  0.00     0.277 HD
ATOM     12  H41 UNL     1     -40.870  -0.912   4.001  1.00  0.00     0.277 HD
ENDBRANCH   8   9
BRANCH   8  13
HETATM   13  N5  UNL     1     -41.893  -0.654   6.231  1.00  0.00    -0.336 N 
ATOM     14  H5  UNL     1     -42.864  -0.521   6.511  1.00  0.00     0.164 HD
BRANCH  13  15
HETATM   15  C4  UNL     1     -41.234  -1.884   6.455  1.00  0.00     0.350 C 
HETATM   16  O2  UNL     1     -41.118  -2.711   5.516  1.00  0.00    -0.284 OA
ENDBRANCH  13  15
ENDBRANCH   8  13
ENDBRANCH   7   8
BRANCH   1  17
HETATM   17  N1  UNL     1     -40.004   3.171   6.087  1.00  0.00    -0.382 N 
ATOM     18  H12 UNL     1     -39.562   4.012   6.459  1.00  0.00     0.157 HD
ATOM     19  H11 UNL     1     -39.285   2.560   5.701  1.00  0.00     0.157 HD
ENDBRANCH   1  17
TORSDOF 5
ENDMDL
MODEL 5
REMARK VINA RESULT: -5.671983735      1.681      4.569
REMARK  5 active torsions:
REMARK  status: ('A' for Active; 'I' for Inactive)
REMARK    1  A    between atoms: N1_1  and  C1_4 
REMARK    2  A    between atoms: C2_10  and  C3_11 
REMARK    3  A    between atoms: C3_11  and  N4_12 
REMARK    4  A    between atoms: C3_11  and  N5_16 
REMARK    5  A    between atoms: N5_16  and  C4_18 
ROOT
HETATM    1  C1  UNL     1     -40.626  -1.247   4.904  1.00  0.00     0.149 A 
HETATM    2  N2  UNL     1     -40.619  -2.431   5.541  1.00  0.00    -0.224 N 
ATOM      3  H2  UNL     1     -40.150  -3.284   5.235  1.00  0.00     0.198 HD
HETATM    4  O1  UNL     1     -41.337  -2.277   6.636  1.00  0.00    -0.155 OA
HETATM    5  N3  UNL     1     -41.788  -1.071   6.718  1.00  0.00    -0.238 N 
ATOM      6  H3  UNL     1     -42.367  -0.709   7.475  1.00  0.00     0.196 HD
HETATM    7  C2  UNL     1     -41.366  -0.353   5.633  1.00  0.00     0.129 A 
ENDROOT
BRANCH   7   8
HETATM    8  C3  UNL     1     -41.633   1.048   5.311  1.00  0.00     0.340 C 
BRANCH   8   9
HETATM    9  N4  UNL     1     -40.655   1.982   5.816  1.00  0.00    -0.052 N 
ATOM     10  H43 UNL     1     -40.759   2.886   5.355  1.00  0.00     0.277 HD
ATOM     11  H42 UNL     1     -40.881   2.246   6.775  1.00  0.00     0.277 HD
ATOM     12  H41 UNL     1     -39.687   1.663   5.756  1.00  0.00     0.277 HD
ENDBRANCH   8   9
BRANCH   8  13
HETATM   13  N5  UNL     1     -42.900   1.416   5.919  1.00  0.00    -0.336 N 
ATOM     14  H5  UNL     1     -43.318   0.839   6.649  1.00  0.00     0.164 HD
BRANCH  13  15
HETATM   15  C4  UNL     1     -43.536   2.596   5.472  1.00  0.00     0.350 C 
HETATM   16  O2  UNL     1     -43.280   3.049   4.329  1.00  0.00    -0.284 OA
ENDBRANCH  13  15
ENDBRANCH   8  13
ENDBRANCH   7   8
BRANCH   1  17
HETATM   17  N1  UNL     1     -40.028  -1.018   3.793  1.00  0.00    -0.382 N 
ATOM     18  H12 UNL     1     -39.371  -1.637   3.317  1.00  0.00     0.157 HD
ATOM     19  H11 UNL     1     -40.143  -0.168   3.241  1.00  0.00     0.157 HD
ENDBRANCH   1  17
TORSDOF 5
ENDMDL
