MODEL 1
REMARK VINA RESULT: -7.542129302      0.000      0.000
REMARK  11 active torsions:
REMARK  status: ('A' for Active; 'I' for Inactive)
REMARK    1  A    between atoms: N1_1  and  C1_4 
REMARK    2  A    between atoms: N5_15  and  C5_16 
REMARK    3  A    between atoms: C5_16  and  C6_17 
REMARK    4  A    between atoms: C6_17  and  O1_18 
REMARK    5  A    between atoms: C6_17  and  C7_20 
REMARK    6  A    between atoms: C7_20  and  O2_21 
REMARK    7  A    between atoms: C7_20  and  C8_23 
REMARK    8  A    between atoms: C8_23  and  O3_24 
REMARK    9  A    between atoms: C8_23  and  C9_26 
REMARK   10  A    between atoms: C8_23  and  N7_31 
REMARK   11  A    between atoms: C9_26  and  N6_27 
ROOT
HETATM    1  C6  UNL     1      23.819 -15.041  46.529  1.00  0.00     0.170 C 
ENDROOT
BRANCH   1   2
HETATM    2  C5  UNL     1      25.029 -14.673  47.354  1.00  0.00     0.166 C 
BRANCH   2   3
HETATM    3  N5  UNL     1      25.288 -15.730  48.331  1.00  0.00    -0.324 N 
HETATM    4  C4  UNL     1      26.286 -16.652  48.184  1.00  0.00     0.185 A 
HETATM    5  N4  UNL     1      26.242 -17.483  49.236  1.00  0.00    -0.346 N 
HETATM    6  C3  UNL     1      25.239 -17.104  50.039  1.00  0.00     0.123 A 
ATOM      7  H4  UNL     1      26.868 -18.272  49.397  1.00  0.00     0.167 HD
HETATM    8  C2  UNL     1      24.730 -17.567  51.239  1.00  0.00     0.145 A 
HETATM    9  C12 UNL     1      24.640 -15.999  49.465  1.00  0.00     0.155 A 
HETATM   10  N2  UNL     1      23.682 -16.946  51.816  1.00  0.00    -0.175 N 
HETATM   11  N3  UNL     1      25.259 -18.588  51.800  1.00  0.00    -0.383 N 
HETATM   12  C1  UNL     1      23.102 -15.876  51.261  1.00  0.00     0.679 A 
ATOM     13  H2  UNL     1      23.321 -17.303  52.700  1.00  0.00     0.186 HD
HETATM   14  N10 UNL     1      23.611 -15.431  50.084  1.00  0.00    -0.174 N 
ATOM     15  H10 UNL     1      23.178 -14.615  49.650  1.00  0.00     0.186 HD
ATOM     16  H32 UNL     1      24.883 -18.929  52.685  1.00  0.00     0.157 HD
ATOM     17  H31 UNL     1      26.052 -19.057  51.364  1.00  0.00     0.157 HD
BRANCH  12  18
HETATM   18  N1  UNL     1      22.095 -15.298  51.839  1.00  0.00    -0.234 N 
ATOM     19  H12 UNL     1      21.764 -15.580  52.762  1.00  0.00     0.174 HD
ATOM     20  H11 UNL     1      21.600 -14.534  51.377  1.00  0.00     0.174 HD
ENDBRANCH  12  18
ENDBRANCH   2   3
ENDBRANCH   1   2
BRANCH   1  21
HETATM   21  O1  UNL     1      23.032 -13.856  46.502  1.00  0.00    -0.391 OA
ATOM     22  H1  UNL     1      23.004 -13.609  45.585  1.00  0.00     0.210 HD
ENDBRANCH   1  21
BRANCH   1  23
HETATM   23  C7  UNL     1      24.150 -15.317  45.098  1.00  0.00     0.207 C 
BRANCH  23  24
HETATM   24  O2  UNL     1      25.535 -15.181  44.947  1.00  0.00    -0.388 OA
ATOM     25  H2  UNL     1      25.691 -14.472  44.334  1.00  0.00     0.210 HD
ENDBRANCH  23  24
BRANCH  23  26
HETATM   26  C8  UNL     1      23.747 -16.622  44.538  1.00  0.00     0.208 C 
BRANCH  26  27
HETATM   27  O3  UNL     1      22.599 -17.112  45.125  1.00  0.00    -0.365 OA
ATOM     28  H3  UNL     1      22.171 -17.767  44.587  1.00  0.00     0.212 HD
ENDBRANCH  26  27
BRANCH  26  29
HETATM   29  C9  UNL     1      24.864 -17.611  44.918  1.00  0.00     0.295 C 
BRANCH  29  30
HETATM   30  N6  UNL     1      24.375 -18.636  45.787  1.00  0.00    -0.075 N 
ATOM     31  H63 UNL     1      23.747 -18.258  46.496  1.00  0.00     0.274 HD
ATOM     32  H62 UNL     1      23.718 -19.251  45.308  1.00  0.00     0.274 HD
ATOM     33  H61 UNL     1      25.142 -19.162  46.207  1.00  0.00     0.274 HD
ENDBRANCH  29  30
ENDBRANCH  26  29
BRANCH  26  34
HETATM   34  N7  UNL     1      23.611 -16.597  43.067  1.00  0.00    -0.209 N 
HETATM   35  N8  UNL     1      24.581 -16.934  42.296  1.00  0.00    -0.274 N 
HETATM   36  C10 UNL     1      24.434 -16.905  40.987  1.00  0.00     0.178 A 
ATOM     37  H8  UNL     1      25.471 -17.226  42.700  1.00  0.00     0.189 HD
HETATM   38  N9  UNL     1      25.431 -17.255  40.013  1.00  0.00    -0.073 NA
HETATM   39  S1  UNL     1      22.822 -16.368  40.834  1.00  0.00     0.007 SA
HETATM   40  C11 UNL     1      22.464 -16.222  42.497  1.00  0.00     0.310 A 
HETATM   41  O4  UNL     1      21.382 -15.850  43.080  1.00  0.00    -0.258 OA
ENDBRANCH  26  34
ENDBRANCH  23  26
ENDBRANCH   1  23
TORSDOF 11
ENDMDL
MODEL 2
REMARK VINA RESULT: -7.431621473      3.305      4.953
REMARK  11 active torsions:
REMARK  status: ('A' for Active; 'I' for Inactive)
REMARK    1  A    between atoms: N1_1  and  C1_4 
REMARK    2  A    between atoms: N5_15  and  C5_16 
REMARK    3  A    between atoms: C5_16  and  C6_17 
REMARK    4  A    between atoms: C6_17  and  O1_18 
REMARK    5  A    between atoms: C6_17  and  C7_20 
REMARK    6  A    between atoms: C7_20  and  O2_21 
REMARK    7  A    between atoms: C7_20  and  C8_23 
REMARK    8  A    between atoms: C8_23  and  O3_24 
REMARK    9  A    between atoms: C8_23  and  C9_26 
REMARK   10  A    between atoms: C8_23  and  N7_31 
REMARK   11  A    between atoms: C9_26  and  N6_27 
ROOT
HETATM    1  C6  UNL     1      26.000 -15.150  43.469  1.00  0.00     0.170 C 
ENDROOT
BRANCH   1   2
HETATM    2  C5  UNL     1      27.252 -14.722  44.199  1.00  0.00     0.166 C 
BRANCH   2   3
HETATM    3  N5  UNL     1      27.195 -15.205  45.578  1.00  0.00    -0.324 N 
HETATM    4  C4  UNL     1      26.409 -14.631  46.537  1.00  0.00     0.185 A 
HETATM    5  N4  UNL     1      26.601 -15.295  47.686  1.00  0.00    -0.346 N 
HETATM    6  C3  UNL     1      27.491 -16.274  47.470  1.00  0.00     0.123 A 
ATOM      7  H4  UNL     1      26.146 -15.090  48.575  1.00  0.00     0.167 HD
HETATM    8  C2  UNL     1      28.061 -17.257  48.258  1.00  0.00     0.145 A 
HETATM    9  C12 UNL     1      27.863 -16.213  46.140  1.00  0.00     0.155 A 
HETATM   10  N2  UNL     1      28.949 -18.120  47.729  1.00  0.00    -0.175 N 
HETATM   11  N3  UNL     1      27.740 -17.344  49.493  1.00  0.00    -0.383 N 
HETATM   12  C1  UNL     1      29.309 -18.063  46.441  1.00  0.00     0.679 A 
ATOM     13  H2  UNL     1      29.359 -18.838  48.326  1.00  0.00     0.186 HD
HETATM   14  N10 UNL     1      28.744 -17.094  45.678  1.00  0.00    -0.174 N 
ATOM     15  H10 UNL     1      29.009 -17.039  44.694  1.00  0.00     0.186 HD
ATOM     16  H32 UNL     1      28.161 -18.069  50.074  1.00  0.00     0.157 HD
ATOM     17  H31 UNL     1      27.067 -16.691  49.894  1.00  0.00     0.157 HD
BRANCH  12  18
HETATM   18  N1  UNL     1      30.168 -18.908  45.958  1.00  0.00    -0.234 N 
ATOM     19  H12 UNL     1      29.953 -19.901  45.859  1.00  0.00     0.174 HD
ATOM     20  H11 UNL     1      31.092 -18.595  45.660  1.00  0.00     0.174 HD
ENDBRANCH  12  18
ENDBRANCH   2   3
ENDBRANCH   1   2
BRANCH   1  21
HETATM   21  O1  UNL     1      25.628 -14.011  42.702  1.00  0.00    -0.391 OA
ATOM     22  H1  UNL     1      25.166 -14.369  41.953  1.00  0.00     0.210 HD
ENDBRANCH   1  21
BRANCH   1  23
HETATM   23  C7  UNL     1      26.249 -16.228  42.465  1.00  0.00     0.207 C 
BRANCH  23  24
HETATM   24  O2  UNL     1      27.521 -16.757  42.714  1.00  0.00    -0.388 OA
ATOM     25  H2  UNL     1      28.103 -16.031  42.909  1.00  0.00     0.210 HD
ENDBRANCH  23  24
BRANCH  23  26
HETATM   26  C8  UNL     1      25.286 -17.344  42.401  1.00  0.00     0.208 C 
BRANCH  26  27
HETATM   27  O3  UNL     1      25.896 -18.547  42.110  1.00  0.00    -0.365 OA
ATOM     28  H3  UNL     1      25.271 -19.217  41.861  1.00  0.00     0.212 HD
ENDBRANCH  26  27
BRANCH  26  29
HETATM   29  C9  UNL     1      24.365 -17.044  41.204  1.00  0.00     0.295 C 
BRANCH  29  30
HETATM   30  N6  UNL     1      25.114 -16.910  39.994  1.00  0.00    -0.075 N 
ATOM     31  H63 UNL     1      25.629 -17.763  39.776  1.00  0.00     0.274 HD
ATOM     32  H62 UNL     1      24.504 -16.883  39.177  1.00  0.00     0.274 HD
ATOM     33  H61 UNL     1      25.731 -16.099  40.028  1.00  0.00     0.274 HD
ENDBRANCH  29  30
ENDBRANCH  26  29
BRANCH  26  34
HETATM   34  N7  UNL     1      24.460 -17.460  43.621  1.00  0.00    -0.209 N 
HETATM   35  N8  UNL     1      23.273 -16.973  43.679  1.00  0.00    -0.274 N 
HETATM   36  C10 UNL     1      22.556 -17.091  44.778  1.00  0.00     0.178 A 
ATOM     37  H8  UNL     1      22.883 -16.491  42.868  1.00  0.00     0.189 HD
HETATM   38  N9  UNL     1      21.222 -16.596  44.978  1.00  0.00    -0.073 NA
HETATM   39  S1  UNL     1      23.625 -17.945  45.796  1.00  0.00     0.007 SA
HETATM   40  C11 UNL     1      24.931 -18.082  44.704  1.00  0.00     0.310 A 
HETATM   41  O4  UNL     1      26.080 -18.634  44.854  1.00  0.00    -0.258 OA
ENDBRANCH  26  34
ENDBRANCH  23  26
ENDBRANCH   1  23
TORSDOF 11
ENDMDL
MODEL 3
REMARK VINA RESULT: -7.275718186      3.374      5.019
REMARK  11 active torsions:
REMARK  status: ('A' for Active; 'I' for Inactive)
REMARK    1  A    between atoms: N1_1  and  C1_4 
REMARK    2  A    between atoms: N5_15  and  C5_16 
REMARK    3  A    between atoms: C5_16  and  C6_17 
REMARK    4  A    between atoms: C6_17  and  O1_18 
REMARK    5  A    between atoms: C6_17  and  C7_20 
REMARK    6  A    between atoms: C7_20  and  O2_21 
REMARK    7  A    between atoms: C7_20  and  C8_23 
REMARK    8  A    between atoms: C8_23  and  O3_24 
REMARK    9  A    between atoms: C8_23  and  C9_26 
REMARK   10  A    between atoms: C8_23  and  N7_31 
REMARK   11  A    between atoms: C9_26  and  N6_27 
ROOT
HETATM    1  C6  UNL     1      23.528 -14.443  45.270  1.00  0.00     0.170 C 
ENDROOT
BRANCH   1   2
HETATM    2  C5  UNL     1      24.866 -13.789  45.015  1.00  0.00     0.166 C 
BRANCH   2   3
HETATM    3  N5  UNL     1      25.935 -14.720  45.374  1.00  0.00    -0.324 N 
HETATM    4  C4  UNL     1      25.903 -15.494  46.500  1.00  0.00     0.185 A 
HETATM    5  N4  UNL     1      27.033 -16.215  46.542  1.00  0.00    -0.346 N 
HETATM    6  C3  UNL     1      27.774 -15.911  45.467  1.00  0.00     0.123 A 
ATOM      7  H4  UNL     1      27.286 -16.883  47.269  1.00  0.00     0.167 HD
HETATM    8  C2  UNL     1      29.002 -16.329  44.986  1.00  0.00     0.145 A 
HETATM    9  C12 UNL     1      27.078 -14.968  44.734  1.00  0.00     0.155 A 
HETATM   10  N2  UNL     1      29.489 -15.821  43.837  1.00  0.00    -0.175 N 
HETATM   11  N3  UNL     1      29.674 -17.201  45.638  1.00  0.00    -0.383 N 
HETATM   12  C1  UNL     1      28.816 -14.909  43.127  1.00  0.00     0.679 A 
ATOM     13  H2  UNL     1      30.396 -16.142  43.500  1.00  0.00     0.186 HD
HETATM   14  N10 UNL     1      27.612 -14.507  43.608  1.00  0.00    -0.174 N 
ATOM     15  H10 UNL     1      27.088 -13.812  43.076  1.00  0.00     0.186 HD
ATOM     16  H32 UNL     1      30.579 -17.508  45.284  1.00  0.00     0.157 HD
ATOM     17  H31 UNL     1      29.305 -17.585  46.508  1.00  0.00     0.157 HD
BRANCH  12  18
HETATM   18  N1  UNL     1      29.309 -14.437  42.023  1.00  0.00    -0.234 N 
ATOM     19  H12 UNL     1      29.033 -14.797  41.109  1.00  0.00     0.174 HD
ATOM     20  H11 UNL     1      29.995 -13.683  42.042  1.00  0.00     0.174 HD
ENDBRANCH  12  18
ENDBRANCH   2   3
ENDBRANCH   1   2
BRANCH   1  21
HETATM   21  O1  UNL     1      22.803 -13.487  46.033  1.00  0.00    -0.391 OA
ATOM     22  H1  UNL     1      22.162 -14.000  46.511  1.00  0.00     0.210 HD
ENDBRANCH   1  21
BRANCH   1  23
HETATM   23  C7  UNL     1      22.725 -14.636  44.025  1.00  0.00     0.207 C 
BRANCH  23  24
HETATM   24  O2  UNL     1      23.310 -13.860  43.017  1.00  0.00    -0.388 OA
ATOM     25  H2  UNL     1      24.055 -13.408  43.395  1.00  0.00     0.210 HD
ENDBRANCH  23  24
BRANCH  23  26
HETATM   26  C8  UNL     1      22.561 -16.011  43.518  1.00  0.00     0.208 C 
BRANCH  26  27
HETATM   27  O3  UNL     1      21.298 -16.233  43.007  1.00  0.00    -0.365 OA
ATOM     28  H3  UNL     1      20.740 -16.700  43.617  1.00  0.00     0.212 HD
ENDBRANCH  26  27
BRANCH  26  29
HETATM   29  C9  UNL     1      22.682 -16.935  44.743  1.00  0.00     0.295 C 
BRANCH  29  30
HETATM   30  N6  UNL     1      21.432 -17.060  45.425  1.00  0.00    -0.075 N 
ATOM     31  H63 UNL     1      20.703 -17.416  44.808  1.00  0.00     0.274 HD
ATOM     32  H62 UNL     1      21.450 -17.822  46.102  1.00  0.00     0.274 HD
ATOM     33  H61 UNL     1      21.158 -16.179  45.860  1.00  0.00     0.274 HD
ENDBRANCH  29  30
ENDBRANCH  26  29
BRANCH  26  34
HETATM   34  N7  UNL     1      23.596 -16.386  42.532  1.00  0.00    -0.209 N 
HETATM   35  N8  UNL     1      24.746 -16.825  42.899  1.00  0.00    -0.274 N 
HETATM   36  C10 UNL     1      25.652 -17.155  42.001  1.00  0.00     0.178 A 
ATOM     37  H8  UNL     1      24.960 -16.919  43.892  1.00  0.00     0.189 HD
HETATM   38  N9  UNL     1      26.971 -17.656  42.270  1.00  0.00    -0.073 NA
HETATM   39  S1  UNL     1      24.827 -16.825  40.544  1.00  0.00     0.007 SA
HETATM   40  C11 UNL     1      23.358 -16.280  41.223  1.00  0.00     0.310 A 
HETATM   41  O4  UNL     1      22.285 -15.868  40.651  1.00  0.00    -0.258 OA
ENDBRANCH  26  34
ENDBRANCH  23  26
ENDBRANCH   1  23
TORSDOF 11
ENDMDL
MODEL 4
REMARK VINA RESULT: -7.239120458      1.198      2.286
REMARK  11 active torsions:
REMARK  status: ('A' for Active; 'I' for Inactive)
REMARK    1  A    between atoms: N1_1  and  C1_4 
REMARK    2  A    between atoms: N5_15  and  C5_16 
REMARK    3  A    between atoms: C5_16  and  C6_17 
REMARK    4  A    between atoms: C6_17  and  O1_18 
REMARK    5  A    between atoms: C6_17  and  C7_20 
REMARK    6  A    between atoms: C7_20  and  O2_21 
REMARK    7  A    between atoms: C7_20  and  C8_23 
REMARK    8  A    between atoms: C8_23  and  O3_24 
REMARK    9  A    between atoms: C8_23  and  C9_26 
REMARK   10  A    between atoms: C8_23  and  N7_31 
REMARK   11  A    between atoms: C9_26  and  N6_27 
ROOT
HETATM    1  C6  UNL     1      25.649 -15.748  46.089  1.00  0.00     0.170 C 
ENDROOT
BRANCH   1   2
HETATM    2  C5  UNL     1      25.909 -16.605  47.305  1.00  0.00     0.166 C 
BRANCH   2   3
HETATM    3  N5  UNL     1      24.984 -16.225  48.372  1.00  0.00    -0.324 N 
HETATM    4  C4  UNL     1      24.073 -15.215  48.243  1.00  0.00     0.185 A 
HETATM    5  N4  UNL     1      23.398 -15.114  49.397  1.00  0.00    -0.346 N 
HETATM    6  C3  UNL     1      23.863 -16.040  50.247  1.00  0.00     0.123 A 
ATOM      7  H4  UNL     1      22.653 -14.445  49.595  1.00  0.00     0.167 HD
HETATM    8  C2  UNL     1      23.558 -16.404  51.546  1.00  0.00     0.145 A 
HETATM    9  C12 UNL     1      24.863 -16.738  49.597  1.00  0.00     0.155 A 
HETATM   10  N2  UNL     1      24.225 -17.411  52.142  1.00  0.00    -0.175 N 
HETATM   11  N3  UNL     1      22.639 -15.780  52.180  1.00  0.00    -0.383 N 
HETATM   12  C1  UNL     1      25.193 -18.088  51.513  1.00  0.00     0.679 A 
ATOM     13  H2  UNL     1      23.986 -17.665  53.101  1.00  0.00     0.186 HD
HETATM   14  N10 UNL     1      25.483 -17.722  50.239  1.00  0.00    -0.174 N 
ATOM     15  H10 UNL     1      26.218 -18.230  49.747  1.00  0.00     0.186 HD
ATOM     16  H32 UNL     1      22.414 -16.049  53.138  1.00  0.00     0.157 HD
ATOM     17  H31 UNL     1      22.133 -15.018  51.728  1.00  0.00     0.157 HD
BRANCH  12  18
HETATM   18  N1  UNL     1      25.819 -19.055  52.112  1.00  0.00    -0.234 N 
ATOM     19  H12 UNL     1      25.576 -19.354  53.056  1.00  0.00     0.174 HD
ATOM     20  H11 UNL     1      26.581 -19.546  51.645  1.00  0.00     0.174 HD
ENDBRANCH  12  18
ENDBRANCH   2   3
ENDBRANCH   1   2
BRANCH   1  21
HETATM   21  O1  UNL     1      26.922 -15.212  45.750  1.00  0.00    -0.391 OA
ATOM     22  H1  UNL     1      26.749 -14.302  45.539  1.00  0.00     0.210 HD
ENDBRANCH   1  21
BRANCH   1  23
HETATM   23  C7  UNL     1      25.232 -16.541  44.893  1.00  0.00     0.207 C 
BRANCH  23  24
HETATM   24  O2  UNL     1      25.493 -17.889  45.164  1.00  0.00    -0.388 OA
ATOM     25  H2  UNL     1      26.050 -18.221  44.469  1.00  0.00     0.210 HD
ENDBRANCH  23  24
BRANCH  23  26
HETATM   26  C8  UNL     1      23.833 -16.420  44.440  1.00  0.00     0.208 C 
BRANCH  26  27
HETATM   27  O3  UNL     1      23.221 -15.283  44.928  1.00  0.00    -0.365 OA
ATOM     28  H3  UNL     1      22.485 -15.012  44.392  1.00  0.00     0.212 HD
ENDBRANCH  26  27
BRANCH  26  29
HETATM   29  C9  UNL     1      23.077 -17.603  45.071  1.00  0.00     0.295 C 
BRANCH  29  30
HETATM   30  N6  UNL     1      21.853 -17.176  45.674  1.00  0.00    -0.075 N 
ATOM     31  H63 UNL     1      21.965 -16.283  46.154  1.00  0.00     0.274 HD
ATOM     32  H62 UNL     1      21.170 -16.892  44.972  1.00  0.00     0.274 HD
ATOM     33  H61 UNL     1      21.477 -17.891  46.295  1.00  0.00     0.274 HD
ENDBRANCH  29  30
ENDBRANCH  26  29
BRANCH  26  34
HETATM   34  N7  UNL     1      23.698 -16.496  42.970  1.00  0.00    -0.209 N 
HETATM   35  N8  UNL     1      24.672 -16.872  42.223  1.00  0.00    -0.274 N 
HETATM   36  C10 UNL     1      24.525 -16.933  40.916  1.00  0.00     0.178 A 
ATOM     37  H8  UNL     1      25.565 -17.125  42.646  1.00  0.00     0.189 HD
HETATM   38  N9  UNL     1      25.526 -17.336  39.967  1.00  0.00    -0.073 NA
HETATM   39  S1  UNL     1      22.907 -16.428  40.728  1.00  0.00     0.007 SA
HETATM   40  C11 UNL     1      22.546 -16.174  42.377  1.00  0.00     0.310 A 
HETATM   41  O4  UNL     1      21.459 -15.778  42.935  1.00  0.00    -0.258 OA
ENDBRANCH  26  34
ENDBRANCH  23  26
ENDBRANCH   1  23
TORSDOF 11
ENDMDL
MODEL 5
REMARK VINA RESULT: -7.227756071      2.415      5.961
REMARK  11 active torsions:
REMARK  status: ('A' for Active; 'I' for Inactive)
REMARK    1  A    between atoms: N1_1  and  C1_4 
REMARK    2  A    between atoms: N5_15  and  C5_16 
REMARK    3  A    between atoms: C5_16  and  C6_17 
REMARK    4  A    between atoms: C6_17  and  O1_18 
REMARK    5  A    between atoms: C6_17  and  C7_20 
REMARK    6  A    between atoms: C7_20  and  O2_21 
REMARK    7  A    between atoms: C7_20  and  C8_23 
REMARK    8  A    between atoms: C8_23  and  O3_24 
REMARK    9  A    between atoms: C8_23  and  C9_26 
REMARK   10  A    between atoms: C8_23  and  N7_31 
REMARK   11  A    between atoms: C9_26  and  N6_27 
ROOT
HETATM    1  C6  UNL     1      26.515 -14.338  45.992  1.00  0.00     0.170 C 
ENDROOT
BRANCH   1   2
HETATM    2  C5  UNL     1      26.919 -14.519  44.548  1.00  0.00     0.166 C 
BRANCH   2   3
HETATM    3  N5  UNL     1      26.711 -15.914  44.160  1.00  0.00    -0.324 N 
HETATM    4  C4  UNL     1      27.413 -16.951  44.707  1.00  0.00     0.185 A 
HETATM    5  N4  UNL     1      26.998 -18.087  44.126  1.00  0.00    -0.346 N 
HETATM    6  C3  UNL     1      26.051 -17.785  43.227  1.00  0.00     0.123 A 
ATOM      7  H4  UNL     1      27.344 -19.023  44.334  1.00  0.00     0.167 HD
HETATM    8  C2  UNL     1      25.275 -18.523  42.350  1.00  0.00     0.145 A 
HETATM    9  C12 UNL     1      25.873 -16.415  43.251  1.00  0.00     0.155 A 
HETATM   10  N2  UNL     1      24.380 -17.907  41.554  1.00  0.00    -0.175 N 
HETATM   11  N3  UNL     1      25.411 -19.794  42.300  1.00  0.00    -0.383 N 
HETATM   12  C1  UNL     1      24.207 -16.581  41.578  1.00  0.00     0.679 A 
ATOM     13  H2  UNL     1      23.818 -18.469  40.914  1.00  0.00     0.186 HD
HETATM   14  N10 UNL     1      24.973 -15.868  42.441  1.00  0.00    -0.174 N 
ATOM     15  H10 UNL     1      24.852 -14.855  42.470  1.00  0.00     0.186 HD
ATOM     16  H32 UNL     1      24.840 -20.337  41.654  1.00  0.00     0.157 HD
ATOM     17  H31 UNL     1      26.089 -20.260  42.903  1.00  0.00     0.157 HD
BRANCH  12  18
HETATM   18  N1  UNL     1      23.337 -16.014  40.799  1.00  0.00    -0.234 N 
ATOM     19  H12 UNL     1      22.776 -16.548  40.136  1.00  0.00     0.174 HD
ATOM     20  H11 UNL     1      23.191 -15.006  40.832  1.00  0.00     0.174 HD
ENDBRANCH  12  18
ENDBRANCH   2   3
ENDBRANCH   1   2
BRANCH   1  21
HETATM   21  O1  UNL     1      27.404 -13.344  46.489  1.00  0.00    -0.391 OA
ATOM     22  H1  UNL     1      26.930 -12.936  47.203  1.00  0.00     0.210 HD
ENDBRANCH   1  21
BRANCH   1  23
HETATM   23  C7  UNL     1      25.151 -13.749  46.149  1.00  0.00     0.207 C 
BRANCH  23  24
HETATM   24  O2  UNL     1      24.614 -13.572  44.868  1.00  0.00    -0.388 OA
ATOM     25  H2  UNL     1      23.725 -13.252  44.969  1.00  0.00     0.210 HD
ENDBRANCH  23  24
BRANCH  23  26
HETATM   26  C8  UNL     1      24.171 -14.491  46.965  1.00  0.00     0.208 C 
BRANCH  26  27
HETATM   27  O3  UNL     1      23.075 -13.721  47.294  1.00  0.00    -0.365 OA
ATOM     28  H3  UNL     1      22.571 -14.097  48.006  1.00  0.00     0.212 HD
ENDBRANCH  26  27
BRANCH  26  29
HETATM   29  C9  UNL     1      24.876 -14.802  48.298  1.00  0.00     0.295 C 
BRANCH  29  30
HETATM   30  N6  UNL     1      23.930 -15.048  49.341  1.00  0.00    -0.075 N 
ATOM     31  H63 UNL     1      22.972 -14.909  49.017  1.00  0.00     0.274 HD
ATOM     32  H62 UNL     1      23.875 -16.040  49.570  1.00  0.00     0.274 HD
ATOM     33  H61 UNL     1      24.132 -14.483  50.165  1.00  0.00     0.274 HD
ENDBRANCH  29  30
ENDBRANCH  26  29
BRANCH  26  34
HETATM   34  N7  UNL     1      23.748 -15.762  46.340  1.00  0.00    -0.209 N 
HETATM   35  N8  UNL     1      24.351 -16.868  46.589  1.00  0.00    -0.274 N 
HETATM   36  C10 UNL     1      23.953 -17.987  46.021  1.00  0.00     0.178 A 
ATOM     37  H8  UNL     1      25.143 -16.879  47.232  1.00  0.00     0.189 HD
HETATM   38  N9  UNL     1      24.534 -19.288  46.210  1.00  0.00    -0.073 NA
HETATM   39  S1  UNL     1      22.643 -17.445  45.073  1.00  0.00     0.007 SA
HETATM   40  C11 UNL     1      22.716 -15.792  45.494  1.00  0.00     0.310 A 
HETATM   41  O4  UNL     1      21.984 -14.808  45.113  1.00  0.00    -0.258 OA
ENDBRANCH  26  34
ENDBRANCH  23  26
ENDBRANCH   1  23
TORSDOF 11
ENDMDL
