MODEL 1
REMARK VINA RESULT: -5.395421826      0.000      0.000
REMARK  2 active torsions:
REMARK  status: ('A' for Active; 'I' for Inactive)
REMARK    1  A    between atoms: N1_2  and  N2_4 
REMARK    2  A    between atoms: C2_6  and  C3_7 
ROOT
HETATM    1  C3  UNL     1     -23.035   7.723 -13.618  1.00  0.00     0.247 C 
HETATM    2  N3  UNL     1     -21.865   8.333 -13.038  1.00  0.00    -0.065 N 
ATOM      3  H31 UNL     1     -21.014   8.140 -13.567  1.00  0.00     0.278 HD
ATOM      4  H32 UNL     1     -21.581   7.894 -12.162  1.00  0.00     0.278 HD
HETATM    5  C4  UNL     1     -22.130   9.742 -12.899  1.00  0.00     0.235 C 
HETATM    6  C5  UNL     1     -23.401  10.016 -13.678  1.00  0.00     0.054 C 
HETATM    7  C6  UNL     1     -24.171   8.723 -13.368  1.00  0.00     0.080 C 
HETATM    8  C7  UNL     1     -25.322   8.516 -14.291  1.00  0.00     0.034 C 
HETATM    9  C8  UNL     1     -24.522   8.747 -11.965  1.00  0.00     0.071 C 
HETATM   10  N4  UNL     1     -24.802   8.788 -10.845  1.00  0.00    -0.196 NA
ENDROOT
BRANCH   1  11
HETATM   11  C2  UNL     1     -23.330   6.394 -13.105  1.00  0.00     0.114 C 
HETATM   12  N2  UNL     1     -22.435   5.523 -12.873  1.00  0.00    -0.318 N 
ATOM     13  H2  UNL     1     -21.461   5.766 -13.056  1.00  0.00     0.185 HD
BRANCH  12  14
HETATM   14  N1  UNL     1     -22.724   4.248 -12.379  1.00  0.00    -0.341 N 
HETATM   15  C1  UNL     1     -23.781   3.991 -11.418  1.00  0.00     0.167 C 
ATOM     16  H1  UNL     1     -22.166   3.460 -12.709  1.00  0.00     0.179 HD
ENDBRANCH  12  14
ENDBRANCH   1  11
TORSDOF 2
ENDMDL
MODEL 2
REMARK VINA RESULT: -5.113494922      6.886      9.121
REMARK  2 active torsions:
REMARK  status: ('A' for Active; 'I' for Inactive)
REMARK    1  A    between atoms: N1_2  and  N2_4 
REMARK    2  A    between atoms: C2_6  and  C3_7 
ROOT
HETATM    1  C3  UNL     1     -26.368  12.660  -7.653  1.00  0.00     0.247 C 
HETATM    2  N3  UNL     1     -26.410  12.752  -6.215  1.00  0.00    -0.065 N 
ATOM      3  H31 UNL     1     -27.342  12.584  -5.834  1.00  0.00     0.278 HD
ATOM      4  H32 UNL     1     -26.296  13.707  -5.875  1.00  0.00     0.278 HD
HETATM    5  C4  UNL     1     -25.419  11.848  -5.689  1.00  0.00     0.235 C 
HETATM    6  C5  UNL     1     -24.965  10.990  -6.853  1.00  0.00     0.054 C 
HETATM    7  C6  UNL     1     -25.001  12.042  -7.972  1.00  0.00     0.080 C 
HETATM    8  C7  UNL     1     -24.959  11.426  -9.328  1.00  0.00     0.034 C 
HETATM    9  C8  UNL     1     -23.944  12.995  -7.712  1.00  0.00     0.071 C 
HETATM   10  N4  UNL     1     -23.089  13.741  -7.494  1.00  0.00    -0.196 NA
ENDROOT
BRANCH   1  11
HETATM   11  C2  UNL     1     -26.590  13.924  -8.337  1.00  0.00     0.114 C 
HETATM   12  N2  UNL     1     -27.003  14.971  -7.748  1.00  0.00    -0.318 N 
ATOM     13  H2  UNL     1     -27.188  14.924  -6.746  1.00  0.00     0.185 HD
BRANCH  12  14
HETATM   14  N1  UNL     1     -27.214  16.183  -8.411  1.00  0.00    -0.341 N 
HETATM   15  C1  UNL     1     -26.464  16.585  -9.587  1.00  0.00     0.167 C 
ATOM     16  H1  UNL     1     -27.929  16.816  -8.051  1.00  0.00     0.179 HD
ENDBRANCH  12  14
ENDBRANCH   1  11
TORSDOF 2
ENDMDL
MODEL 3
REMARK VINA RESULT: -5.015527513      1.741      2.301
REMARK  2 active torsions:
REMARK  status: ('A' for Active; 'I' for Inactive)
REMARK    1  A    between atoms: N1_2  and  N2_4 
REMARK    2  A    between atoms: C2_6  and  C3_7 
ROOT
HETATM    1  C3  UNL     1     -24.216   7.633 -13.841  1.00  0.00     0.247 C 
HETATM    2  N3  UNL     1     -24.129   8.279 -15.126  1.00  0.00    -0.065 N 
ATOM      3  H31 UNL     1     -24.719   7.839 -15.833  1.00  0.00     0.278 HD
ATOM      4  H32 UNL     1     -23.231   8.128 -15.587  1.00  0.00     0.278 HD
HETATM    5  C4  UNL     1     -24.431   9.675 -14.936  1.00  0.00     0.235 C 
HETATM    6  C5  UNL     1     -24.985   9.803 -13.530  1.00  0.00     0.054 C 
HETATM    7  C6  UNL     1     -24.102   8.768 -12.815  1.00  0.00     0.080 C 
HETATM    8  C7  UNL     1     -24.646   8.386 -11.483  1.00  0.00     0.034 C 
HETATM    9  C8  UNL     1     -22.753   9.288 -12.787  1.00  0.00     0.071 C 
HETATM   10  N4  UNL     1     -21.682   9.723 -12.765  1.00  0.00    -0.196 NA
ENDROOT
BRANCH   1  11
HETATM   11  C2  UNL     1     -23.229   6.584 -13.634  1.00  0.00     0.114 C 
HETATM   12  N2  UNL     1     -23.528   5.418 -13.230  1.00  0.00    -0.318 N 
ATOM     13  H2  UNL     1     -24.506   5.204 -13.040  1.00  0.00     0.185 HD
BRANCH  12  14
HETATM   14  N1  UNL     1     -22.574   4.414 -13.034  1.00  0.00    -0.341 N 
HETATM   15  C1  UNL     1     -21.225   4.488 -13.563  1.00  0.00     0.167 C 
ATOM     16  H1  UNL     1     -22.839   3.591 -12.493  1.00  0.00     0.179 HD
ENDBRANCH  12  14
ENDBRANCH   1  11
TORSDOF 2
ENDMDL
MODEL 4
REMARK VINA RESULT: -5.013539145      6.799      8.396
REMARK  2 active torsions:
REMARK  status: ('A' for Active; 'I' for Inactive)
REMARK    1  A    between atoms: N1_2  and  N2_4 
REMARK    2  A    between atoms: C2_6  and  C3_7 
ROOT
HETATM    1  C3  UNL     1     -26.398  13.379  -7.988  1.00  0.00     0.247 C 
HETATM    2  N3  UNL     1     -26.078  12.282  -8.866  1.00  0.00    -0.065 N 
ATOM      3  H31 UNL     1     -26.900  11.750  -9.154  1.00  0.00     0.278 HD
ATOM      4  H32 UNL     1     -25.588  11.523  -8.390  1.00  0.00     0.278 HD
HETATM    5  C4  UNL     1     -25.336  12.814  -9.980  1.00  0.00     0.235 C 
HETATM    6  C5  UNL     1     -25.461  14.322  -9.893  1.00  0.00     0.054 C 
HETATM    7  C6  UNL     1     -25.413  14.493  -8.366  1.00  0.00     0.080 C 
HETATM    8  C7  UNL     1     -25.884  15.838  -7.933  1.00  0.00     0.034 C 
HETATM    9  C8  UNL     1     -24.077  14.153  -7.930  1.00  0.00     0.071 C 
HETATM   10  N4  UNL     1     -23.002  13.888  -7.599  1.00  0.00    -0.196 NA
ENDROOT
BRANCH   1  11
HETATM   11  C2  UNL     1     -26.354  13.043  -6.574  1.00  0.00     0.114 C 
HETATM   12  N2  UNL     1     -26.096  11.876  -6.144  1.00  0.00    -0.318 N 
ATOM     13  H2  UNL     1     -25.911  11.137  -6.822  1.00  0.00     0.185 HD
BRANCH  12  14
HETATM   14  N1  UNL     1     -26.055  11.559  -4.783  1.00  0.00    -0.341 N 
HETATM   15  C1  UNL     1     -25.086  10.641  -4.211  1.00  0.00     0.167 C 
ATOM     16  H1  UNL     1     -26.738  11.993  -4.162  1.00  0.00     0.179 HD
ENDBRANCH  12  14
ENDBRANCH   1  11
TORSDOF 2
ENDMDL
MODEL 5
REMARK VINA RESULT: -4.995477379      2.535      4.748
REMARK  2 active torsions:
REMARK  status: ('A' for Active; 'I' for Inactive)
REMARK    1  A    between atoms: N1_2  and  N2_4 
REMARK    2  A    between atoms: C2_6  and  C3_7 
ROOT
HETATM    1  C3  UNL     1     -23.687   8.902 -14.364  1.00  0.00     0.247 C 
HETATM    2  N3  UNL     1     -24.405   7.670 -14.583  1.00  0.00    -0.065 N 
ATOM      3  H31 UNL     1     -24.409   7.382 -15.562  1.00  0.00     0.278 HD
ATOM      4  H32 UNL     1     -25.413   7.773 -14.468  1.00  0.00     0.278 HD
HETATM    5  C4  UNL     1     -23.840   6.675 -13.708  1.00  0.00     0.235 C 
HETATM    6  C5  UNL     1     -22.563   7.271 -13.151  1.00  0.00     0.054 C 
HETATM    7  C6  UNL     1     -23.012   8.732 -12.998  1.00  0.00     0.080 C 
HETATM    8  C7  UNL     1     -21.862   9.661 -12.814  1.00  0.00     0.034 C 
HETATM    9  C8  UNL     1     -23.997   8.779 -11.939  1.00  0.00     0.071 C 
HETATM   10  N4  UNL     1     -24.775   8.799 -11.085  1.00  0.00    -0.196 NA
ENDROOT
BRANCH   1  11
HETATM   11  C2  UNL     1     -24.517  10.094 -14.440  1.00  0.00     0.114 C 
HETATM   12  N2  UNL     1     -24.215  11.109 -15.143  1.00  0.00    -0.318 N 
ATOM     13  H2  UNL     1     -23.348  11.088 -15.680  1.00  0.00     0.185 HD
BRANCH  12  14
HETATM   14  N1  UNL     1     -25.016  12.252 -15.211  1.00  0.00    -0.341 N 
HETATM   15  C1  UNL     1     -26.096  12.521 -14.279  1.00  0.00     0.167 C 
ATOM     16  H1  UNL     1     -24.834  12.930 -15.952  1.00  0.00     0.179 HD
ENDBRANCH  12  14
ENDBRANCH   1  11
TORSDOF 2
ENDMDL
