MODEL 1
REMARK VINA RESULT: -5.069832322      0.000      0.000
REMARK  2 active torsions:
REMARK  status: ('A' for Active; 'I' for Inactive)
REMARK    1  A    between atoms: N1_2  and  C2_5 
REMARK    2  A    between atoms: C2_5  and  C3_6 
ROOT
HETATM    1  C3  UNL     1     -23.183 -16.144  21.721  1.00  0.00     0.106 C 
HETATM    2  C4  UNL     1     -21.957 -16.846  22.300  1.00  0.00     0.027 C 
HETATM    3  C5  UNL     1     -21.426 -16.412  23.600  1.00  0.00     0.002 C 
HETATM    4  C6  UNL     1     -21.937 -17.196  24.850  1.00  0.00     0.000 C 
HETATM    5  C7  UNL     1     -23.312 -17.393  24.476  1.00  0.00     0.000 C 
HETATM    6  C8  UNL     1     -24.503 -17.920  25.075  1.00  0.00     0.005 C 
HETATM    7  C9  UNL     1     -25.519 -17.821  23.902  1.00  0.00     0.044 C 
HETATM    8  C10 UNL     1     -25.281 -16.682  22.943  1.00  0.00     0.056 C 
HETATM    9  N2  UNL     1     -24.402 -16.827  21.872  1.00  0.00    -0.396 N 
ATOM     10  H2  UNL     1     -24.665 -17.483  21.137  1.00  0.00     0.159 HD
ENDROOT
BRANCH   1  11
HETATM   11  C2  UNL     1     -22.994 -16.119  20.184  1.00  0.00     0.256 C 
BRANCH  11  12
HETATM   12  N1  UNL     1     -21.654 -16.109  19.833  1.00  0.00    -0.077 N 
HETATM   13  C1  UNL     1     -21.407 -15.735  18.484  1.00  0.00     0.267 C 
ATOM     14  H12 UNL     1     -21.225 -17.012  20.037  1.00  0.00     0.276 HD
ATOM     15  H11 UNL     1     -21.123 -15.516  20.471  1.00  0.00     0.276 HD
ENDBRANCH  11  12
ENDBRANCH   1  11
TORSDOF 2
ENDMDL
MODEL 2
REMARK VINA RESULT: -5.036808989      1.591      3.644
REMARK  2 active torsions:
REMARK  status: ('A' for Active; 'I' for Inactive)
REMARK    1  A    between atoms: N1_2  and  C2_5 
REMARK    2  A    between atoms: C2_5  and  C3_6 
ROOT
HETATM    1  C3  UNL     1     -24.787 -17.592  21.768  1.00  0.00     0.106 C 
HETATM    2  C4  UNL     1     -25.351 -17.250  23.145  1.00  0.00     0.027 C 
HETATM    3  C5  UNL     1     -25.021 -18.108  24.291  1.00  0.00     0.002 C 
HETATM    4  C6  UNL     1     -23.797 -17.665  25.153  1.00  0.00     0.000 C 
HETATM    5  C7  UNL     1     -22.917 -17.195  24.117  1.00  0.00     0.000 C 
HETATM    6  C8  UNL     1     -21.570 -16.719  24.011  1.00  0.00     0.005 C 
HETATM    7  C9  UNL     1     -21.483 -16.342  22.506  1.00  0.00     0.044 C 
HETATM    8  C10 UNL     1     -22.343 -17.172  21.587  1.00  0.00     0.056 C 
HETATM    9  N2  UNL     1     -23.675 -16.834  21.362  1.00  0.00    -0.396 N 
ATOM     10  H2  UNL     1     -23.859 -15.964  20.863  1.00  0.00     0.159 HD
ENDROOT
BRANCH   1  11
HETATM   11  C2  UNL     1     -25.869 -17.192  20.734  1.00  0.00     0.256 C 
BRANCH  11  12
HETATM   12  N1  UNL     1     -26.887 -16.456  21.318  1.00  0.00    -0.077 N 
HETATM   13  C1  UNL     1     -27.322 -15.346  20.544  1.00  0.00     0.267 C 
ATOM     14  H12 UNL     1     -26.618 -16.154  22.255  1.00  0.00     0.276 HD
ATOM     15  H11 UNL     1     -27.676 -17.061  21.550  1.00  0.00     0.276 HD
ENDBRANCH  11  12
ENDBRANCH   1  11
TORSDOF 2
ENDMDL
MODEL 3
REMARK VINA RESULT: -4.998757651      2.460      3.951
REMARK  2 active torsions:
REMARK  status: ('A' for Active; 'I' for Inactive)
REMARK    1  A    between atoms: N1_2  and  C2_5 
REMARK    2  A    between atoms: C2_5  and  C3_6 
ROOT
HETATM    1  C3  UNL     1     -25.936 -15.665  22.425  1.00  0.00     0.106 C 
HETATM    2  C4  UNL     1     -24.663 -15.224  21.706  1.00  0.00     0.027 C 
HETATM    3  C5  UNL     1     -23.648 -14.461  22.444  1.00  0.00     0.002 C 
HETATM    4  C6  UNL     1     -22.490 -15.291  23.083  1.00  0.00     0.000 C 
HETATM    5  C7  UNL     1     -23.226 -16.446  23.526  1.00  0.00     0.000 C 
HETATM    6  C8  UNL     1     -22.968 -17.633  24.286  1.00  0.00     0.005 C 
HETATM    7  C9  UNL     1     -24.332 -18.373  24.191  1.00  0.00     0.044 C 
HETATM    8  C10 UNL     1     -25.540 -17.478  24.080  1.00  0.00     0.056 C 
HETATM    9  N2  UNL     1     -25.965 -17.008  22.840  1.00  0.00    -0.396 N 
ATOM     10  H2  UNL     1     -26.326 -17.695  22.178  1.00  0.00     0.159 HD
ENDROOT
BRANCH   1  11
HETATM   11  C2  UNL     1     -27.078 -15.607  21.380  1.00  0.00     0.256 C 
BRANCH  11  12
HETATM   12  N1  UNL     1     -28.321 -15.765  21.971  1.00  0.00    -0.077 N 
HETATM   13  C1  UNL     1     -29.362 -15.027  21.345  1.00  0.00     0.267 C 
ATOM     14  H12 UNL     1     -28.274 -15.543  22.965  1.00  0.00     0.276 HD
ATOM     15  H11 UNL     1     -28.567 -16.754  22.025  1.00  0.00     0.276 HD
ENDBRANCH  11  12
ENDBRANCH   1  11
TORSDOF 2
ENDMDL
MODEL 4
REMARK VINA RESULT: -4.960454185      1.750      3.488
REMARK  2 active torsions:
REMARK  status: ('A' for Active; 'I' for Inactive)
REMARK    1  A    between atoms: N1_2  and  C2_5 
REMARK    2  A    between atoms: C2_5  and  C3_6 
ROOT
HETATM    1  C3  UNL     1     -24.854 -17.481  21.786  1.00  0.00     0.106 C 
HETATM    2  C4  UNL     1     -25.373 -17.141  23.182  1.00  0.00     0.027 C 
HETATM    3  C5  UNL     1     -25.042 -18.026  24.307  1.00  0.00     0.002 C 
HETATM    4  C6  UNL     1     -23.784 -17.634  25.144  1.00  0.00     0.000 C 
HETATM    5  C7  UNL     1     -22.915 -17.177  24.092  1.00  0.00     0.000 C 
HETATM    6  C8  UNL     1     -21.556 -16.743  23.960  1.00  0.00     0.005 C 
HETATM    7  C9  UNL     1     -21.494 -16.347  22.458  1.00  0.00     0.044 C 
HETATM    8  C10 UNL     1     -22.402 -17.137  21.550  1.00  0.00     0.056 C 
HETATM    9  N2  UNL     1     -23.728 -16.753  21.363  1.00  0.00    -0.396 N 
ATOM     10  H2  UNL     1     -23.897 -15.871  20.880  1.00  0.00     0.159 HD
ENDROOT
BRANCH   1  11
HETATM   11  C2  UNL     1     -25.947 -17.032  20.785  1.00  0.00     0.256 C 
BRANCH  11  12
HETATM   12  N1  UNL     1     -26.486 -18.108  20.099  1.00  0.00    -0.077 N 
HETATM   13  C1  UNL     1     -26.161 -18.138  18.715  1.00  0.00     0.267 C 
ATOM     14  H12 UNL     1     -27.497 -18.144  20.229  1.00  0.00     0.276 HD
ATOM     15  H11 UNL     1     -26.221 -18.985  20.547  1.00  0.00     0.276 HD
ENDBRANCH  11  12
ENDBRANCH   1  11
TORSDOF 2
ENDMDL
MODEL 5
REMARK VINA RESULT: -4.947353996      1.964      2.825
REMARK  2 active torsions:
REMARK  status: ('A' for Active; 'I' for Inactive)
REMARK    1  A    between atoms: N1_2  and  C2_5 
REMARK    2  A    between atoms: C2_5  and  C3_6 
ROOT
HETATM    1  C3  UNL     1     -24.586 -17.091  21.283  1.00  0.00     0.106 C 
HETATM    2  C4  UNL     1     -23.081 -17.333  21.182  1.00  0.00     0.027 C 
HETATM    3  C5  UNL     1     -22.155 -16.348  21.757  1.00  0.00     0.002 C 
HETATM    4  C6  UNL     1     -21.670 -16.627  23.214  1.00  0.00     0.000 C 
HETATM    5  C7  UNL     1     -22.886 -17.139  23.788  1.00  0.00     0.000 C 
HETATM    6  C8  UNL     1     -23.356 -17.537  25.082  1.00  0.00     0.005 C 
HETATM    7  C9  UNL     1     -24.786 -18.053  24.756  1.00  0.00     0.044 C 
HETATM    8  C10 UNL     1     -25.462 -17.372  23.594  1.00  0.00     0.056 C 
HETATM    9  N2  UNL     1     -25.250 -17.814  22.290  1.00  0.00    -0.396 N 
ATOM     10  H2  UNL     1     -25.606 -18.738  22.045  1.00  0.00     0.159 HD
ENDROOT
BRANCH   1  11
HETATM   11  C2  UNL     1     -25.214 -17.658  19.986  1.00  0.00     0.256 C 
BRANCH  11  12
HETATM   12  N1  UNL     1     -26.452 -18.232  20.225  1.00  0.00    -0.077 N 
HETATM   13  C1  UNL     1     -27.355 -18.148  19.130  1.00  0.00     0.267 C 
ATOM     14  H12 UNL     1     -26.872 -17.835  21.066  1.00  0.00     0.276 HD
ATOM     15  H11 UNL     1     -26.343 -19.201  20.525  1.00  0.00     0.276 HD
ENDBRANCH  11  12
ENDBRANCH   1  11
TORSDOF 2
ENDMDL
