MODEL 1
REMARK VINA RESULT: -7.498407000      0.000      0.000
REMARK  14 active torsions:
REMARK  status: ('A' for Active; 'I' for Inactive)
REMARK    1  A    between atoms: S1_2  and  C2_3 
REMARK    2  A    between atoms: C2_3  and  C3_4 
REMARK    3  A    between atoms: C3_4  and  C4_5 
REMARK    4  A    between atoms: C4_5  and  O1_7 
REMARK    5  A    between atoms: C4_5  and  N1_9 
REMARK       I    between atoms: N1_9  and  C6_11 
REMARK    6  A    between atoms: C6_11  and  C7_13 
REMARK    7  A    between atoms: C7_13  and  C8_14 
REMARK    8  A    between atoms: C8_14  and  C9_15 
REMARK    9  A    between atoms: C9_15  and  C10_16 
REMARK   10  A    between atoms: C10_16  and  C11_17 
REMARK   11  A    between atoms: C11_17  and  C12_18 
REMARK   12  A    between atoms: C12_18  and  C13_19 
REMARK   13  A    between atoms: C13_19  and  C14_20 
REMARK   14  A    between atoms: C15_21  and  O3_22 
ROOT
HETATM    1  C14 UNL     1      -3.212 -14.963  10.271  1.00  0.00    -0.047 C 
HETATM    2  C15 UNL     1      -3.298 -13.499  10.348  1.00  0.00     0.147 C 
HETATM    3  C16 UNL     1      -4.695 -12.934   9.952  1.00  0.00     0.037 C 
HETATM    4  C17 UNL     1      -5.588 -13.571  10.956  1.00  0.00     0.017 C 
HETATM    5  C18 UNL     1      -5.749 -15.062  10.669  1.00  0.00    -0.009 C 
HETATM    6  C19 UNL     1      -6.569 -15.572  11.849  1.00  0.00     0.021 C 
HETATM    7  C20 UNL     1      -6.644 -15.260   9.497  1.00  0.00    -0.040 A 
HETATM    8  C21 UNL     1      -7.361 -14.232   8.913  1.00  0.00     0.052 A 
HETATM    9  C22 UNL     1      -8.197 -14.482   7.845  1.00  0.00     0.134 A 
HETATM   10  F1  UNL     1      -8.908 -13.473   7.265  1.00  0.00    -0.205 F 
HETATM   11  C23 UNL     1      -8.301 -15.770   7.378  1.00  0.00     0.050 A 
HETATM   12 BR1  UNL     1      -9.458 -16.134   5.897  1.00  0.00    -0.048 Br
HETATM   13  C24 UNL     1      -7.579 -16.795   7.969  1.00  0.00     0.030 A 
HETATM   14  C25 UNL     1      -6.754 -16.551   9.020  1.00  0.00    -0.050 A 
HETATM   15  C26 UNL     1      -5.942 -17.597   9.660  1.00  0.00     0.040 C 
HETATM   16  C27 UNL     1      -4.530 -16.976   9.660  1.00  0.00     0.015 C 
HETATM   17  C28 UNL     1      -4.458 -15.760  10.549  1.00  0.00     0.030 C 
ENDROOT
BRANCH   1  18
HETATM   18  C13 UNL     1      -2.398 -15.488   9.161  1.00  0.00     0.002 C 
BRANCH  18  19
HETATM   19  C12 UNL     1      -1.952 -14.644   8.039  1.00  0.00    -0.026 C 
BRANCH  19  20
HETATM   20  C11 UNL     1      -2.232 -14.947   6.631  1.00  0.00     0.027 C 
BRANCH  20  21
HETATM   21  C10 UNL     1      -2.970 -16.249   6.390  1.00  0.00     0.004 C 
BRANCH  21  22
HETATM   22  C9  UNL     1      -4.427 -15.965   6.160  1.00  0.00     0.001 C 
BRANCH  22  23
HETATM   23  C8  UNL     1      -4.691 -15.681   4.719  1.00  0.00     0.009 C 
BRANCH  23  24
HETATM   24  C7  UNL     1      -5.970 -16.398   4.289  1.00  0.00     0.103 C 
BRANCH  24  25
HETATM   25  C6  UNL     1      -6.731 -15.535   3.379  1.00  0.00     0.219 C 
HETATM   26  N1  UNL     1      -7.466 -16.060   2.270  1.00  0.00    -0.330 N 
ATOM     27  H1  UNL     1      -7.467 -17.066   2.100  1.00  0.00     0.165 HD
HETATM   28  O2  UNL     1      -6.745 -14.296   3.569  1.00  0.00    -0.274 OA
BRANCH  26  29
HETATM   29  C4  UNL     1      -8.209 -15.192   1.386  1.00  0.00     0.130 C 
HETATM   30  C5  UNL     1      -9.688 -15.173   1.738  1.00  0.00     0.070 C 
BRANCH  29  31
HETATM   31  C3  UNL     1      -8.090 -15.669  -0.025  1.00  0.00     0.071 C 
BRANCH  31  32
HETATM   32  C2  UNL     1      -7.457 -17.036  -0.143  1.00  0.00     0.078 C 
BRANCH  32  33
HETATM   33  S1  UNL     1      -8.146 -17.819  -1.629  1.00  0.00    -0.173 SA
HETATM   34  C1  UNL     1      -8.432 -16.628  -2.952  1.00  0.00     0.089 C 
ENDBRANCH  32  33
ENDBRANCH  31  32
ENDBRANCH  29  31
BRANCH  29  35
HETATM   35  O1  UNL     1      -7.693 -13.899   1.447  1.00  0.00    -0.371 OA
ATOM     36  H1  UNL     1      -7.252 -13.799   2.281  1.00  0.00     0.212 HD
ENDBRANCH  29  35
ENDBRANCH  26  29
ENDBRANCH  24  25
ENDBRANCH  23  24
ENDBRANCH  22  23
ENDBRANCH  21  22
ENDBRANCH  20  21
ENDBRANCH  19  20
ENDBRANCH  18  19
ENDBRANCH   1  18
BRANCH   2  37
HETATM   37  O3  UNL     1      -3.119 -13.021  11.674  1.00  0.00    -0.391 OA
ATOM     38  H3  UNL     1      -2.729 -12.155  11.693  1.00  0.00     0.210 HD
ENDBRANCH   2  37
TORSDOF 14
ENDMDL
MODEL 2
REMARK VINA RESULT: -7.375447496      4.268      6.620
REMARK  14 active torsions:
REMARK  status: ('A' for Active; 'I' for Inactive)
REMARK    1  A    between atoms: S1_2  and  C2_3 
REMARK    2  A    between atoms: C2_3  and  C3_4 
REMARK    3  A    between atoms: C3_4  and  C4_5 
REMARK    4  A    between atoms: C4_5  and  O1_7 
REMARK    5  A    between atoms: C4_5  and  N1_9 
REMARK       I    between atoms: N1_9  and  C6_11 
REMARK    6  A    between atoms: C6_11  and  C7_13 
REMARK    7  A    between atoms: C7_13  and  C8_14 
REMARK    8  A    between atoms: C8_14  and  C9_15 
REMARK    9  A    between atoms: C9_15  and  C10_16 
REMARK   10  A    between atoms: C10_16  and  C11_17 
REMARK   11  A    between atoms: C11_17  and  C12_18 
REMARK   12  A    between atoms: C12_18  and  C13_19 
REMARK   13  A    between atoms: C13_19  and  C14_20 
REMARK   14  A    between atoms: C15_21  and  O3_22 
ROOT
HETATM    1  C14 UNL     1      -6.400 -16.868  10.606  1.00  0.00    -0.047 C 
HETATM    2  C15 UNL     1      -5.405 -15.800  10.441  1.00  0.00     0.147 C 
HETATM    3  C16 UNL     1      -5.568 -14.996   9.116  1.00  0.00     0.037 C 
HETATM    4  C17 UNL     1      -6.935 -14.429   9.258  1.00  0.00     0.017 C 
HETATM    5  C18 UNL     1      -7.992 -15.521   9.106  1.00  0.00    -0.009 C 
HETATM    6  C19 UNL     1      -9.302 -14.802   9.408  1.00  0.00     0.021 C 
HETATM    7  C20 UNL     1      -8.117 -15.910   7.675  1.00  0.00    -0.040 A 
HETATM    8  C21 UNL     1      -7.499 -15.221   6.648  1.00  0.00     0.052 A 
HETATM    9  C22 UNL     1      -7.675 -15.612   5.338  1.00  0.00     0.134 A 
HETATM   10  F1  UNL     1      -7.068 -14.936   4.320  1.00  0.00    -0.205 F 
HETATM   11  C23 UNL     1      -8.477 -16.698   5.077  1.00  0.00     0.050 A 
HETATM   12 BR1  UNL     1      -8.732 -17.254   3.263  1.00  0.00    -0.048 Br
HETATM   13  C24 UNL     1      -9.093 -17.383   6.112  1.00  0.00     0.030 A 
HETATM   14  C25 UNL     1      -8.920 -17.000   7.404  1.00  0.00    -0.050 A 
HETATM   15  C26 UNL     1      -9.525 -17.714   8.538  1.00  0.00     0.040 C 
HETATM   16  C27 UNL     1      -8.318 -17.956   9.467  1.00  0.00     0.015 C 
HETATM   17  C28 UNL     1      -7.765 -16.662  10.008  1.00  0.00     0.030 C 
ENDROOT
BRANCH   1  18
HETATM   18  C13 UNL     1      -5.880 -18.239  10.461  1.00  0.00     0.002 C 
BRANCH  18  19
HETATM   19  C12 UNL     1      -4.646 -18.543   9.715  1.00  0.00    -0.026 C 
BRANCH  19  20
HETATM   20  C11 UNL     1      -4.632 -19.111   8.363  1.00  0.00     0.027 C 
BRANCH  20  21
HETATM   21  C10 UNL     1      -5.525 -18.405   7.361  1.00  0.00     0.004 C 
BRANCH  21  22
HETATM   22  C9  UNL     1      -4.747 -18.125   6.106  1.00  0.00     0.001 C 
BRANCH  22  23
HETATM   23  C8  UNL     1      -4.312 -16.699   6.058  1.00  0.00     0.009 C 
BRANCH  23  24
HETATM   24  C7  UNL     1      -2.849 -16.632   5.626  1.00  0.00     0.103 C 
BRANCH  24  25
HETATM   25  C6  UNL     1      -2.049 -16.029   6.698  1.00  0.00     0.219 C 
HETATM   26  N1  UNL     1      -2.252 -16.358   8.075  1.00  0.00    -0.330 N 
ATOM     27  H1  UNL     1      -2.974 -17.033   8.328  1.00  0.00     0.165 HD
HETATM   28  O2  UNL     1      -1.156 -15.197   6.410  1.00  0.00    -0.274 OA
BRANCH  26  29
HETATM   29  C4  UNL     1      -1.453 -15.752   9.115  1.00  0.00     0.130 C 
HETATM   30  C5  UNL     1      -1.739 -16.376  10.470  1.00  0.00     0.070 C 
BRANCH  29  31
HETATM   31  C3  UNL     1      -1.764 -14.293   9.218  1.00  0.00     0.071 C 
BRANCH  31  32
HETATM   32  C2  UNL     1      -0.608 -13.471   9.739  1.00  0.00     0.078 C 
BRANCH  32  33
HETATM   33  S1  UNL     1      -1.268 -12.374  11.026  1.00  0.00    -0.173 SA
HETATM   34  C1  UNL     1      -3.068 -12.285  10.983  1.00  0.00     0.089 C 
ENDBRANCH  32  33
ENDBRANCH  31  32
ENDBRANCH  29  31
BRANCH  29  35
HETATM   35  O1  UNL     1      -0.100 -15.881   8.810  1.00  0.00    -0.371 OA
ATOM     36  H1  UNL     1       0.332 -16.271   9.561  1.00  0.00     0.212 HD
ENDBRANCH  29  35
ENDBRANCH  26  29
ENDBRANCH  24  25
ENDBRANCH  23  24
ENDBRANCH  22  23
ENDBRANCH  21  22
ENDBRANCH  20  21
ENDBRANCH  19  20
ENDBRANCH  18  19
ENDBRANCH   1  18
BRANCH   2  37
HETATM   37  O3  UNL     1      -5.522 -14.800  11.444  1.00  0.00    -0.391 OA
ATOM     38  H3  UNL     1      -6.240 -14.204  11.272  1.00  0.00     0.210 HD
ENDBRANCH   2  37
TORSDOF 14
ENDMDL
MODEL 3
REMARK VINA RESULT: -7.259512931      2.307      4.121
REMARK  14 active torsions:
REMARK  status: ('A' for Active; 'I' for Inactive)
REMARK    1  A    between atoms: S1_2  and  C2_3 
REMARK    2  A    between atoms: C2_3  and  C3_4 
REMARK    3  A    between atoms: C3_4  and  C4_5 
REMARK    4  A    between atoms: C4_5  and  O1_7 
REMARK    5  A    between atoms: C4_5  and  N1_9 
REMARK       I    between atoms: N1_9  and  C6_11 
REMARK    6  A    between atoms: C6_11  and  C7_13 
REMARK    7  A    between atoms: C7_13  and  C8_14 
REMARK    8  A    between atoms: C8_14  and  C9_15 
REMARK    9  A    between atoms: C9_15  and  C10_16 
REMARK   10  A    between atoms: C10_16  and  C11_17 
REMARK   11  A    between atoms: C11_17  and  C12_18 
REMARK   12  A    between atoms: C12_18  and  C13_19 
REMARK   13  A    between atoms: C13_19  and  C14_20 
REMARK   14  A    between atoms: C15_21  and  O3_22 
ROOT
HETATM    1  C14 UNL     1      -5.923 -15.842  10.829  1.00  0.00    -0.047 C 
HETATM    2  C15 UNL     1      -6.509 -17.184  10.715  1.00  0.00     0.147 C 
HETATM    3  C16 UNL     1      -5.845 -18.064   9.615  1.00  0.00     0.037 C 
HETATM    4  C17 UNL     1      -4.435 -18.139  10.081  1.00  0.00     0.017 C 
HETATM    5  C18 UNL     1      -3.730 -16.798   9.892  1.00  0.00    -0.009 C 
HETATM    6  C19 UNL     1      -2.364 -17.013  10.534  1.00  0.00     0.021 C 
HETATM    7  C20 UNL     1      -3.421 -16.586   8.453  1.00  0.00    -0.040 A 
HETATM    8  C21 UNL     1      -3.582 -17.567   7.492  1.00  0.00     0.052 A 
HETATM    9  C22 UNL     1      -3.252 -17.320   6.177  1.00  0.00     0.134 A 
HETATM   10  F1  UNL     1      -3.408 -18.285   5.225  1.00  0.00    -0.205 F 
HETATM   11  C23 UNL     1      -2.760 -16.080   5.843  1.00  0.00     0.050 A 
HETATM   12 BR1  UNL     1      -2.296 -15.721   4.021  1.00  0.00    -0.048 Br
HETATM   13  C24 UNL     1      -2.601 -15.101   6.812  1.00  0.00     0.030 A 
HETATM   14  C25 UNL     1      -2.927 -15.343   8.108  1.00  0.00    -0.050 A 
HETATM   15  C26 UNL     1      -2.808 -14.327   9.165  1.00  0.00     0.040 C 
HETATM   16  C27 UNL     1      -4.203 -14.361   9.824  1.00  0.00     0.015 C 
HETATM   17  C28 UNL     1      -4.462 -15.679  10.509  1.00  0.00     0.030 C 
ENDROOT
BRANCH   1  18
HETATM   18  C13 UNL     1      -6.772 -14.741  10.340  1.00  0.00     0.002 C 
BRANCH  18  19
HETATM   19  C12 UNL     1      -7.876 -14.956   9.389  1.00  0.00    -0.026 C 
BRANCH  19  20
HETATM   20  C11 UNL     1      -7.945 -14.326   8.066  1.00  0.00     0.027 C 
BRANCH  20  21
HETATM   21  C10 UNL     1      -8.109 -15.287   6.905  1.00  0.00     0.004 C 
BRANCH  21  22
HETATM   22  C9  UNL     1      -6.778 -15.897   6.567  1.00  0.00     0.001 C 
BRANCH  22  23
HETATM   23  C8  UNL     1      -6.899 -16.824   5.403  1.00  0.00     0.009 C 
BRANCH  23  24
HETATM   24  C7  UNL     1      -5.996 -16.335   4.273  1.00  0.00     0.103 C 
BRANCH  24  25
HETATM   25  C6  UNL     1      -6.757 -15.444   3.390  1.00  0.00     0.219 C 
HETATM   26  N1  UNL     1      -7.490 -15.933   2.264  1.00  0.00    -0.330 N 
ATOM     27  H1  UNL     1      -7.489 -16.933   2.062  1.00  0.00     0.165 HD
HETATM   28  O2  UNL     1      -6.771 -14.211   3.620  1.00  0.00    -0.274 OA
BRANCH  26  29
HETATM   29  C4  UNL     1      -8.232 -15.037   1.407  1.00  0.00     0.130 C 
HETATM   30  C5  UNL     1      -9.727 -15.140   1.658  1.00  0.00     0.070 C 
BRANCH  29  31
HETATM   31  C3  UNL     1      -7.993 -15.381  -0.028  1.00  0.00     0.071 C 
BRANCH  31  32
HETATM   32  C2  UNL     1      -8.904 -16.472  -0.541  1.00  0.00     0.078 C 
BRANCH  32  33
HETATM   33  S1  UNL     1      -7.842 -17.803  -1.171  1.00  0.00    -0.173 SA
HETATM   34  C1  UNL     1      -7.054 -18.729   0.160  1.00  0.00     0.089 C 
ENDBRANCH  32  33
ENDBRANCH  31  32
ENDBRANCH  29  31
BRANCH  29  35
HETATM   35  O1  UNL     1      -7.807 -13.726   1.610  1.00  0.00    -0.371 OA
ATOM     36  H1  UNL     1      -7.785 -13.292   0.766  1.00  0.00     0.212 HD
ENDBRANCH  29  35
ENDBRANCH  26  29
ENDBRANCH  24  25
ENDBRANCH  23  24
ENDBRANCH  22  23
ENDBRANCH  21  22
ENDBRANCH  20  21
ENDBRANCH  19  20
ENDBRANCH  18  19
ENDBRANCH   1  18
BRANCH   2  37
HETATM   37  O3  UNL     1      -6.326 -17.950  11.898  1.00  0.00    -0.391 OA
ATOM     38  H3  UNL     1      -7.043 -17.839  12.511  1.00  0.00     0.210 HD
ENDBRANCH   2  37
TORSDOF 14
ENDMDL
MODEL 4
REMARK VINA RESULT: -7.183905476      0.801      1.032
REMARK  14 active torsions:
REMARK  status: ('A' for Active; 'I' for Inactive)
REMARK    1  A    between atoms: S1_2  and  C2_3 
REMARK    2  A    between atoms: C2_3  and  C3_4 
REMARK    3  A    between atoms: C3_4  and  C4_5 
REMARK    4  A    between atoms: C4_5  and  O1_7 
REMARK    5  A    between atoms: C4_5  and  N1_9 
REMARK       I    between atoms: N1_9  and  C6_11 
REMARK    6  A    between atoms: C6_11  and  C7_13 
REMARK    7  A    between atoms: C7_13  and  C8_14 
REMARK    8  A    between atoms: C8_14  and  C9_15 
REMARK    9  A    between atoms: C9_15  and  C10_16 
REMARK   10  A    between atoms: C10_16  and  C11_17 
REMARK   11  A    between atoms: C11_17  and  C12_18 
REMARK   12  A    between atoms: C12_18  and  C13_19 
REMARK   13  A    between atoms: C13_19  and  C14_20 
REMARK   14  A    between atoms: C15_21  and  O3_22 
ROOT
HETATM    1  C14 UNL     1      -3.465 -15.510  10.295  1.00  0.00    -0.047 C 
HETATM    2  C15 UNL     1      -3.343 -14.047  10.233  1.00  0.00     0.147 C 
HETATM    3  C16 UNL     1      -4.660 -13.329   9.810  1.00  0.00     0.037 C 
HETATM    4  C17 UNL     1      -5.600 -13.737  10.887  1.00  0.00     0.017 C 
HETATM    5  C18 UNL     1      -5.977 -15.210  10.747  1.00  0.00    -0.009 C 
HETATM    6  C19 UNL     1      -6.822 -15.487  11.986  1.00  0.00     0.021 C 
HETATM    7  C20 UNL     1      -6.928 -15.386   9.616  1.00  0.00    -0.040 A 
HETATM    8  C21 UNL     1      -7.512 -14.325   8.949  1.00  0.00     0.052 A 
HETATM    9  C22 UNL     1      -8.408 -14.551   7.926  1.00  0.00     0.134 A 
HETATM   10  F1  UNL     1      -8.989 -13.509   7.264  1.00  0.00    -0.205 F 
HETATM   11  C23 UNL     1      -8.706 -15.849   7.586  1.00  0.00     0.050 A 
HETATM   12 BR1  UNL     1      -9.949 -16.180   6.168  1.00  0.00    -0.048 Br
HETATM   13  C24 UNL     1      -8.116 -16.907   8.260  1.00  0.00     0.030 A 
HETATM   14  C25 UNL     1      -7.232 -16.687   9.267  1.00  0.00    -0.050 A 
HETATM   15  C26 UNL     1      -6.555 -17.774   9.989  1.00  0.00     0.040 C 
HETATM   16  C27 UNL     1      -5.070 -17.363   9.904  1.00  0.00     0.015 C 
HETATM   17  C28 UNL     1      -4.800 -16.093  10.671  1.00  0.00     0.030 C 
ENDROOT
BRANCH   1  18
HETATM   18  C13 UNL     1      -2.768 -16.245   9.225  1.00  0.00     0.002 C 
BRANCH  18  19
HETATM   19  C12 UNL     1      -2.292 -15.590   7.995  1.00  0.00    -0.026 C 
BRANCH  19  20
HETATM   20  C11 UNL     1      -2.976 -15.693   6.701  1.00  0.00     0.027 C 
BRANCH  20  21
HETATM   21  C10 UNL     1      -4.484 -15.830   6.782  1.00  0.00     0.004 C 
BRANCH  21  22
HETATM   22  C9  UNL     1      -4.885 -17.215   6.357  1.00  0.00     0.001 C 
BRANCH  22  23
HETATM   23  C8  UNL     1      -6.031 -17.166   5.403  1.00  0.00     0.009 C 
BRANCH  23  24
HETATM   24  C7  UNL     1      -5.546 -16.621   4.061  1.00  0.00     0.103 C 
BRANCH  24  25
HETATM   25  C6  UNL     1      -6.597 -15.788   3.463  1.00  0.00     0.219 C 
HETATM   26  N1  UNL     1      -7.067 -15.999   2.130  1.00  0.00    -0.330 N 
ATOM     27  H1  UNL     1      -6.665 -16.750   1.569  1.00  0.00     0.165 HD
HETATM   28  O2  UNL     1      -7.105 -14.859   4.135  1.00  0.00    -0.274 OA
BRANCH  26  29
HETATM   29  C4  UNL     1      -8.102 -15.166   1.561  1.00  0.00     0.130 C 
HETATM   30  C5  UNL     1      -9.458 -15.466   2.179  1.00  0.00     0.070 C 
BRANCH  29  31
HETATM   31  C3  UNL     1      -8.214 -15.414   0.091  1.00  0.00     0.071 C 
BRANCH  31  32
HETATM   32  C2  UNL     1      -9.073 -16.611  -0.250  1.00  0.00     0.078 C 
BRANCH  32  33
HETATM   33  S1  UNL     1      -7.994 -17.833  -1.047  1.00  0.00    -0.173 SA
HETATM   34  C1  UNL     1      -7.341 -19.032   0.131  1.00  0.00     0.089 C 
ENDBRANCH  32  33
ENDBRANCH  31  32
ENDBRANCH  29  31
BRANCH  29  35
HETATM   35  O1  UNL     1      -7.786 -13.822   1.746  1.00  0.00    -0.371 OA
ATOM     36  H1  UNL     1      -7.102 -13.595   1.128  1.00  0.00     0.212 HD
ENDBRANCH  29  35
ENDBRANCH  26  29
ENDBRANCH  24  25
ENDBRANCH  23  24
ENDBRANCH  22  23
ENDBRANCH  21  22
ENDBRANCH  20  21
ENDBRANCH  19  20
ENDBRANCH  18  19
ENDBRANCH   1  18
BRANCH   2  37
HETATM   37  O3  UNL     1      -3.057 -13.480  11.503  1.00  0.00    -0.391 OA
ATOM     38  H3  UNL     1      -2.815 -14.139  12.143  1.00  0.00     0.210 HD
ENDBRANCH   2  37
TORSDOF 14
ENDMDL
MODEL 5
REMARK VINA RESULT: -7.030954984      4.410      6.260
REMARK  14 active torsions:
REMARK  status: ('A' for Active; 'I' for Inactive)
REMARK    1  A    between atoms: S1_2  and  C2_3 
REMARK    2  A    between atoms: C2_3  and  C3_4 
REMARK    3  A    between atoms: C3_4  and  C4_5 
REMARK    4  A    between atoms: C4_5  and  O1_7 
REMARK    5  A    between atoms: C4_5  and  N1_9 
REMARK       I    between atoms: N1_9  and  C6_11 
REMARK    6  A    between atoms: C6_11  and  C7_13 
REMARK    7  A    between atoms: C7_13  and  C8_14 
REMARK    8  A    between atoms: C8_14  and  C9_15 
REMARK    9  A    between atoms: C9_15  and  C10_16 
REMARK   10  A    between atoms: C10_16  and  C11_17 
REMARK   11  A    between atoms: C11_17  and  C12_18 
REMARK   12  A    between atoms: C12_18  and  C13_19 
REMARK   13  A    between atoms: C13_19  and  C14_20 
REMARK   14  A    between atoms: C15_21  and  O3_22 
ROOT
HETATM    1  C14 UNL     1      -3.397 -14.997  10.297  1.00  0.00    -0.047 C 
HETATM    2  C15 UNL     1      -3.464 -13.530  10.345  1.00  0.00     0.147 C 
HETATM    3  C16 UNL     1      -4.865 -12.957   9.976  1.00  0.00     0.037 C 
HETATM    4  C17 UNL     1      -5.737 -13.562  11.018  1.00  0.00     0.017 C 
HETATM    5  C18 UNL     1      -5.923 -15.056  10.767  1.00  0.00    -0.009 C 
HETATM    6  C19 UNL     1      -6.715 -15.531  11.980  1.00  0.00     0.021 C 
HETATM    7  C20 UNL     1      -6.853 -15.267   9.625  1.00  0.00    -0.040 A 
HETATM    8  C21 UNL     1      -7.574 -14.243   9.039  1.00  0.00     0.052 A 
HETATM    9  C22 UNL     1      -8.442 -14.504   8.001  1.00  0.00     0.134 A 
HETATM   10  F1  UNL     1      -9.156 -13.498   7.419  1.00  0.00    -0.205 F 
HETATM   11  C23 UNL     1      -8.574 -15.800   7.563  1.00  0.00     0.050 A 
HETATM   12 BR1  UNL     1      -9.777 -16.180   6.123  1.00  0.00    -0.048 Br
HETATM   13  C24 UNL     1      -7.848 -16.822   8.156  1.00  0.00     0.030 A 
HETATM   14  C25 UNL     1      -6.991 -16.566   9.178  1.00  0.00    -0.050 A 
HETATM   15  C26 UNL     1      -6.174 -17.609   9.817  1.00  0.00     0.040 C 
HETATM   16  C27 UNL     1      -4.755 -17.006   9.765  1.00  0.00     0.015 C 
HETATM   17  C28 UNL     1      -4.644 -15.773  10.626  1.00  0.00     0.030 C 
ENDROOT
BRANCH   1  18
HETATM   18  C13 UNL     1      -2.621 -15.555   9.175  1.00  0.00     0.002 C 
BRANCH  18  19
HETATM   19  C12 UNL     1      -2.531 -14.887   7.865  1.00  0.00    -0.026 C 
BRANCH  19  20
HETATM   20  C11 UNL     1      -1.870 -15.476   6.696  1.00  0.00     0.027 C 
BRANCH  20  21
HETATM   21  C10 UNL     1      -2.795 -16.176   5.720  1.00  0.00     0.004 C 
BRANCH  21  22
HETATM   22  C9  UNL     1      -4.221 -15.983   6.155  1.00  0.00     0.001 C 
BRANCH  22  23
HETATM   23  C8  UNL     1      -4.981 -17.264   6.063  1.00  0.00     0.009 C 
BRANCH  23  24
HETATM   24  C7  UNL     1      -4.008 -18.410   5.791  1.00  0.00     0.103 C 
BRANCH  24  25
HETATM   25  C6  UNL     1      -4.078 -19.382   6.887  1.00  0.00     0.219 C 
HETATM   26  N1  UNL     1      -2.914 -20.033   7.402  1.00  0.00    -0.330 N 
ATOM     27  H1  UNL     1      -2.001 -19.820   7.000  1.00  0.00     0.165 HD
HETATM   28  O2  UNL     1      -5.190 -19.659   7.398  1.00  0.00    -0.274 OA
BRANCH  26  29
HETATM   29  C4  UNL     1      -3.007 -20.988   8.483  1.00  0.00     0.130 C 
HETATM   30  C5  UNL     1      -2.940 -20.303   9.837  1.00  0.00     0.070 C 
BRANCH  29  31
HETATM   31  C3  UNL     1      -1.869 -21.956   8.414  1.00  0.00     0.071 C 
BRANCH  31  32
HETATM   32  C2  UNL     1      -0.903 -21.826   9.569  1.00  0.00     0.078 C 
BRANCH  32  33
HETATM   33  S1  UNL     1       0.660 -22.587   9.045  1.00  0.00    -0.173 SA
HETATM   34  C1  UNL     1       1.926 -22.485  10.325  1.00  0.00     0.089 C 
ENDBRANCH  32  33
ENDBRANCH  31  32
ENDBRANCH  29  31
BRANCH  29  35
HETATM   35  O1  UNL     1      -4.193 -21.712   8.377  1.00  0.00    -0.371 OA
ATOM     36  H1  UNL     1      -4.878 -21.111   8.110  1.00  0.00     0.212 HD
ENDBRANCH  29  35
ENDBRANCH  26  29
ENDBRANCH  24  25
ENDBRANCH  23  24
ENDBRANCH  22  23
ENDBRANCH  21  22
ENDBRANCH  20  21
ENDBRANCH  19  20
ENDBRANCH  18  19
ENDBRANCH   1  18
BRANCH   2  37
HETATM   37  O3  UNL     1      -3.242 -13.028  11.656  1.00  0.00    -0.391 OA
ATOM     38  H3  UNL     1      -3.261 -13.716  12.310  1.00  0.00     0.210 HD
ENDBRANCH   2  37
TORSDOF 14
ENDMDL
