MODEL 1
REMARK VINA RESULT: -6.532616059      0.000      0.000
REMARK  17 active torsions:
REMARK  status: ('A' for Active; 'I' for Inactive)
REMARK    1  A    between atoms: C2_2  and  C3_3 
REMARK    2  A    between atoms: C2_2  and  C9_9 
REMARK    3  A    between atoms: C4_4  and  C5_5 
REMARK    4  A    between atoms: C9_9  and  C10_10 
REMARK    5  A    between atoms: C10_10  and  O1_11 
REMARK    6  A    between atoms: C10_10  and  C11_13 
REMARK    7  A    between atoms: C11_13  and  O2_14 
REMARK    8  A    between atoms: C11_13  and  C12_16 
REMARK    9  A    between atoms: C12_16  and  C13_17 
REMARK   10  A    between atoms: C13_17  and  C14_19 
REMARK   11  A    between atoms: C14_19  and  C15_20 
REMARK       I    between atoms: C15_20  and  N1_22 
REMARK   12  A    between atoms: N1_22  and  C16_24 
REMARK   13  A    between atoms: C16_24  and  C17_25 
REMARK   14  A    between atoms: C16_24  and  C36_47 
REMARK   15  A    between atoms: C17_25  and  C18_26 
REMARK   16  A    between atoms: C18_26  and  C20_28 
REMARK   17  A    between atoms: C21_29  and  O4_30 
ROOT
HETATM    1  C16 UNL     1      16.451  21.294  13.300  1.00  0.00     0.185 C 
ENDROOT
BRANCH   1   2
HETATM    2  N1  UNL     1      16.879  22.488  12.504  1.00  0.00    -0.346 N 
HETATM    3  C15 UNL     1      18.183  22.598  11.993  1.00  0.00     0.221 C 
HETATM    4  O3  UNL     1      18.984  21.672  12.219  1.00  0.00    -0.273 OA
ATOM      5  H1  UNL     1      16.209  23.237  12.328  1.00  0.00     0.163 HD
BRANCH   3   6
HETATM    6  C14 UNL     1      18.543  23.785  11.223  1.00  0.00     0.140 C 
BRANCH   6   7
HETATM    7  C13 UNL     1      19.049  24.958  11.983  1.00  0.00     0.181 C 
HETATM    8  F1  UNL     1      20.390  25.185  11.673  1.00  0.00    -0.249 F 
BRANCH   7   9
HETATM    9  C12 UNL     1      18.190  26.162  11.850  1.00  0.00     0.072 C 
BRANCH   9  10
HETATM   10  C11 UNL     1      17.042  26.237  12.839  1.00  0.00     0.149 C 
BRANCH  10  11
HETATM   11  C10 UNL     1      16.619  27.651  13.126  1.00  0.00     0.147 C 
BRANCH  11  12
HETATM   12  C9  UNL     1      17.911  28.475  13.336  1.00  0.00     0.042 C 
BRANCH  12  13
HETATM   13  C2  UNL     1      18.482  28.262  14.722  1.00  0.00     0.006 C 
HETATM   14  C1  UNL     1      18.355  29.497  15.595  1.00  0.00     0.014 C 
BRANCH  13  15
HETATM   15  C3  UNL     1      19.918  27.942  14.603  1.00  0.00    -0.026 C 
HETATM   16  C4  UNL     1      20.367  26.744  14.917  1.00  0.00    -0.022 C 
BRANCH  16  17
HETATM   17  C5  UNL     1      21.838  26.429  14.790  1.00  0.00    -0.034 C 
HETATM   18  C6  UNL     1      22.066  24.969  14.573  1.00  0.00     0.018 C 
HETATM   19  C7  UNL     1      22.487  26.896  16.066  1.00  0.00     0.018 C 
HETATM   20  C8  UNL     1      22.343  27.200  13.599  1.00  0.00     0.018 C 
ENDBRANCH  16  17
ENDBRANCH  13  15
ENDBRANCH  12  13
ENDBRANCH  11  12
BRANCH  11  21
HETATM   21  O1  UNL     1      15.893  27.735  14.293  1.00  0.00    -0.393 OA
ATOM     22  H1  UNL     1      15.201  27.087  14.238  1.00  0.00     0.210 HD
ENDBRANCH  11  21
ENDBRANCH  10  11
BRANCH  10  23
HETATM   23  O2  UNL     1      15.946  25.604  12.204  1.00  0.00    -0.393 OA
ATOM     24  H2  UNL     1      16.101  24.668  12.258  1.00  0.00     0.210 HD
ENDBRANCH  10  23
ENDBRANCH   9  10
ENDBRANCH   7   9
ENDBRANCH   6   7
ENDBRANCH   3   6
ENDBRANCH   1   2
BRANCH   1  25
HETATM   25  C17 UNL     1      15.566  21.856  14.351  1.00  0.00     0.041 C 
BRANCH  25  26
HETATM   26  C18 UNL     1      15.860  23.254  14.813  1.00  0.00    -0.009 C 
HETATM   27  C19 UNL     1      14.616  24.059  14.756  1.00  0.00     0.010 C 
BRANCH  26  28
HETATM   28  C20 UNL     1      16.546  23.141  16.108  1.00  0.00     0.027 C 
HETATM   29  C21 UNL     1      15.772  23.050  17.353  1.00  0.00     0.123 C 
HETATM   30  C22 UNL     1      16.881  23.197  18.407  1.00  0.00     0.038 C 
HETATM   31  C23 UNL     1      18.155  23.448  17.681  1.00  0.00     0.005 C 
HETATM   32  C24 UNL     1      17.654  24.122  16.403  1.00  0.00    -0.033 C 
HETATM   33  C34 UNL     1      19.228  24.173  18.388  1.00  0.00    -0.031 C 
HETATM   34  C25 UNL     1      18.637  23.947  15.249  1.00  0.00     0.016 C 
HETATM   35  C26 UNL     1      17.252  25.518  16.596  1.00  0.00     0.010 C 
HETATM   36  C27 UNL     1      17.914  26.200  17.786  1.00  0.00     0.009 C 
HETATM   37  C28 UNL     1      19.259  25.652  18.105  1.00  0.00     0.028 C 
HETATM   38  C29 UNL     1      19.840  26.467  19.242  1.00  0.00     0.058 C 
HETATM   39  C30 UNL     1      19.681  27.930  18.880  1.00  0.00     0.046 C 
HETATM   40  C31 UNL     1      21.304  26.217  19.450  1.00  0.00     0.046 C 
HETATM   41  O5  UNL     1      19.053  26.196  20.332  1.00  0.00    -0.381 OA
HETATM   42  C32 UNL     1      19.273  24.930  20.814  1.00  0.00     0.169 C 
HETATM   43  C33 UNL     1      19.209  23.825  19.846  1.00  0.00     0.036 C 
HETATM   44  C35 UNL     1      20.562  23.639  17.829  1.00  0.00     0.016 C 
BRANCH  29  45
HETATM   45  O4  UNL     1      14.747  23.919  17.556  1.00  0.00    -0.395 OA
ATOM     46  H4  UNL     1      14.169  24.127  16.831  1.00  0.00     0.210 HD
ENDBRANCH  29  45
ENDBRANCH  26  28
ENDBRANCH  25  26
ENDBRANCH   1  25
BRANCH   1  47
HETATM   47  C36 UNL     1      15.767  20.355  12.411  1.00  0.00     0.196 C 
HETATM   48  O6  UNL     1      15.823  19.122  12.627  1.00  0.00    -0.646 OA
HETATM   49  O7  UNL     1      15.048  20.786  11.324  1.00  0.00    -0.646 OA
ENDBRANCH   1  47
TORSDOF 17
ENDMDL
MODEL 2
REMARK VINA RESULT: -6.449847488      2.690      6.467
REMARK  17 active torsions:
REMARK  status: ('A' for Active; 'I' for Inactive)
REMARK    1  A    between atoms: C2_2  and  C3_3 
REMARK    2  A    between atoms: C2_2  and  C9_9 
REMARK    3  A    between atoms: C4_4  and  C5_5 
REMARK    4  A    between atoms: C9_9  and  C10_10 
REMARK    5  A    between atoms: C10_10  and  O1_11 
REMARK    6  A    between atoms: C10_10  and  C11_13 
REMARK    7  A    between atoms: C11_13  and  O2_14 
REMARK    8  A    between atoms: C11_13  and  C12_16 
REMARK    9  A    between atoms: C12_16  and  C13_17 
REMARK   10  A    between atoms: C13_17  and  C14_19 
REMARK   11  A    between atoms: C14_19  and  C15_20 
REMARK       I    between atoms: C15_20  and  N1_22 
REMARK   12  A    between atoms: N1_22  and  C16_24 
REMARK   13  A    between atoms: C16_24  and  C17_25 
REMARK   14  A    between atoms: C16_24  and  C36_47 
REMARK   15  A    between atoms: C17_25  and  C18_26 
REMARK   16  A    between atoms: C18_26  and  C20_28 
REMARK   17  A    between atoms: C21_29  and  O4_30 
ROOT
HETATM    1  C16 UNL     1      15.941  24.726  16.909  1.00  0.00     0.185 C 
ENDROOT
BRANCH   1   2
HETATM    2  N1  UNL     1      16.171  23.433  16.189  1.00  0.00    -0.346 N 
HETATM    3  C15 UNL     1      16.883  22.379  16.787  1.00  0.00     0.221 C 
HETATM    4  O3  UNL     1      17.321  22.544  17.940  1.00  0.00    -0.273 OA
ATOM      5  H1  UNL     1      15.804  23.314  15.245  1.00  0.00     0.163 HD
BRANCH   3   6
HETATM    6  C14 UNL     1      17.075  21.141  16.038  1.00  0.00     0.140 C 
BRANCH   6   7
HETATM    7  C13 UNL     1      16.886  19.866  16.777  1.00  0.00     0.181 C 
HETATM    8  F1  UNL     1      15.890  20.018  17.742  1.00  0.00    -0.249 F 
BRANCH   7   9
HETATM    9  C12 UNL     1      16.686  18.693  15.889  1.00  0.00     0.072 C 
BRANCH   9  10
HETATM   10  C11 UNL     1      15.612  18.871  14.832  1.00  0.00     0.149 C 
BRANCH  10  11
HETATM   11  C10 UNL     1      16.047  18.385  13.478  1.00  0.00     0.147 C 
BRANCH  11  12
HETATM   12  C9  UNL     1      15.724  19.510  12.468  1.00  0.00     0.042 C 
BRANCH  12  13
HETATM   13  C2  UNL     1      15.991  20.878  13.062  1.00  0.00     0.006 C 
HETATM   14  C1  UNL     1      14.797  21.806  12.932  1.00  0.00     0.014 C 
BRANCH  13  15
HETATM   15  C3  UNL     1      17.121  21.498  12.345  1.00  0.00    -0.026 C 
HETATM   16  C4  UNL     1      17.611  22.657  12.737  1.00  0.00    -0.022 C 
BRANCH  16  17
HETATM   17  C5  UNL     1      18.768  23.281  11.995  1.00  0.00    -0.034 C 
HETATM   18  C6  UNL     1      20.073  22.704  12.436  1.00  0.00     0.018 C 
HETATM   19  C7  UNL     1      18.707  24.760  12.274  1.00  0.00     0.018 C 
HETATM   20  C8  UNL     1      18.555  22.984  10.535  1.00  0.00     0.018 C 
ENDBRANCH  16  17
ENDBRANCH  13  15
ENDBRANCH  12  13
ENDBRANCH  11  12
BRANCH  11  21
HETATM   21  O1  UNL     1      15.334  17.274  13.085  1.00  0.00    -0.393 OA
ATOM     22  H1  UNL     1      15.420  16.629  13.778  1.00  0.00     0.210 HD
ENDBRANCH  11  21
ENDBRANCH  10  11
BRANCH  10  23
HETATM   23  O2  UNL     1      14.534  18.045  15.236  1.00  0.00    -0.393 OA
ATOM     24  H2  UNL     1      14.432  18.167  16.173  1.00  0.00     0.210 HD
ENDBRANCH  10  23
ENDBRANCH   9  10
ENDBRANCH   7   9
ENDBRANCH   6   7
ENDBRANCH   3   6
ENDBRANCH   1   2
BRANCH   1  25
HETATM   25  C17 UNL     1      16.769  25.708  16.166  1.00  0.00     0.041 C 
BRANCH  25  26
HETATM   26  C18 UNL     1      17.959  26.278  16.885  1.00  0.00    -0.009 C 
HETATM   27  C19 UNL     1      17.972  25.776  18.281  1.00  0.00     0.010 C 
BRANCH  26  28
HETATM   28  C20 UNL     1      19.135  26.007  16.046  1.00  0.00     0.027 C 
HETATM   29  C21 UNL     1      19.714  24.659  15.992  1.00  0.00     0.123 C 
HETATM   30  C22 UNL     1      21.015  24.922  15.218  1.00  0.00     0.038 C 
HETATM   31  C23 UNL     1      21.105  26.388  14.985  1.00  0.00     0.005 C 
HETATM   32  C24 UNL     1      20.315  26.939  16.172  1.00  0.00    -0.033 C 
HETATM   33  C34 UNL     1      22.443  26.983  14.798  1.00  0.00    -0.031 C 
HETATM   34  C25 UNL     1      19.743  28.322  15.878  1.00  0.00     0.016 C 
HETATM   35  C26 UNL     1      21.050  26.889  17.439  1.00  0.00     0.010 C 
HETATM   36  C27 UNL     1      22.565  26.874  17.282  1.00  0.00     0.009 C 
HETATM   37  C28 UNL     1      23.037  27.566  16.053  1.00  0.00     0.028 C 
HETATM   38  C29 UNL     1      24.551  27.555  16.061  1.00  0.00     0.058 C 
HETATM   39  C30 UNL     1      25.003  28.035  17.425  1.00  0.00     0.046 C 
HETATM   40  C31 UNL     1      25.146  28.483  15.043  1.00  0.00     0.046 C 
HETATM   41  O5  UNL     1      24.913  26.240  15.917  1.00  0.00    -0.381 OA
HETATM   42  C32 UNL     1      24.681  25.788  14.642  1.00  0.00     0.169 C 
HETATM   43  C33 UNL     1      23.340  26.016  14.084  1.00  0.00     0.036 C 
HETATM   44  C35 UNL     1      22.262  28.188  13.854  1.00  0.00     0.016 C 
BRANCH  29  45
HETATM   45  O4  UNL     1      19.930  23.988  17.155  1.00  0.00    -0.395 OA
ATOM     46  H4  UNL     1      20.751  23.524  17.273  1.00  0.00     0.210 HD
ENDBRANCH  29  45
ENDBRANCH  26  28
ENDBRANCH  25  26
ENDBRANCH   1  25
BRANCH   1  47
HETATM   47  C36 UNL     1      14.512  25.034  16.876  1.00  0.00     0.196 C 
HETATM   48  O6  UNL     1      13.684  24.165  16.518  1.00  0.00    -0.646 OA
HETATM   49  O7  UNL     1      14.032  26.269  17.235  1.00  0.00    -0.646 OA
ENDBRANCH   1  47
TORSDOF 17
ENDMDL
MODEL 3
REMARK VINA RESULT: -6.390262283      2.112      5.362
REMARK  17 active torsions:
REMARK  status: ('A' for Active; 'I' for Inactive)
REMARK    1  A    between atoms: C2_2  and  C3_3 
REMARK    2  A    between atoms: C2_2  and  C9_9 
REMARK    3  A    between atoms: C4_4  and  C5_5 
REMARK    4  A    between atoms: C9_9  and  C10_10 
REMARK    5  A    between atoms: C10_10  and  O1_11 
REMARK    6  A    between atoms: C10_10  and  C11_13 
REMARK    7  A    between atoms: C11_13  and  O2_14 
REMARK    8  A    between atoms: C11_13  and  C12_16 
REMARK    9  A    between atoms: C12_16  and  C13_17 
REMARK   10  A    between atoms: C13_17  and  C14_19 
REMARK   11  A    between atoms: C14_19  and  C15_20 
REMARK       I    between atoms: C15_20  and  N1_22 
REMARK   12  A    between atoms: N1_22  and  C16_24 
REMARK   13  A    between atoms: C16_24  and  C17_25 
REMARK   14  A    between atoms: C16_24  and  C36_47 
REMARK   15  A    between atoms: C17_25  and  C18_26 
REMARK   16  A    between atoms: C18_26  and  C20_28 
REMARK   17  A    between atoms: C21_29  and  O4_30 
ROOT
HETATM    1  C16 UNL     1      16.175  22.122  13.205  1.00  0.00     0.185 C 
ENDROOT
BRANCH   1   2
HETATM    2  N1  UNL     1      16.891  21.583  14.406  1.00  0.00    -0.346 N 
HETATM    3  C15 UNL     1      16.298  20.619  15.239  1.00  0.00     0.221 C 
HETATM    4  O3  UNL     1      15.155  20.218  14.955  1.00  0.00    -0.273 OA
ATOM      5  H1  UNL     1      17.828  21.923  14.623  1.00  0.00     0.163 HD
BRANCH   3   6
HETATM    6  C14 UNL     1      17.044  20.130  16.395  1.00  0.00     0.140 C 
BRANCH   6   7
HETATM    7  C13 UNL     1      17.198  21.060  17.544  1.00  0.00     0.181 C 
HETATM    8  F1  UNL     1      18.094  22.078  17.216  1.00  0.00    -0.249 F 
BRANCH   7   9
HETATM    9  C12 UNL     1      15.905  21.551  18.083  1.00  0.00     0.072 C 
BRANCH   9  10
HETATM   10  C11 UNL     1      15.801  23.059  18.212  1.00  0.00     0.149 C 
BRANCH  10  11
HETATM   11  C10 UNL     1      15.356  23.718  16.936  1.00  0.00     0.147 C 
BRANCH  11  12
HETATM   12  C9  UNL     1      16.454  24.736  16.547  1.00  0.00     0.042 C 
BRANCH  12  13
HETATM   13  C2  UNL     1      16.761  25.680  17.690  1.00  0.00     0.006 C 
HETATM   14  C1  UNL     1      16.879  27.122  17.232  1.00  0.00     0.014 C 
BRANCH  13  15
HETATM   15  C3  UNL     1      18.052  25.294  18.293  1.00  0.00    -0.026 C 
HETATM   16  C4  UNL     1      18.264  25.455  19.584  1.00  0.00    -0.022 C 
BRANCH  16  17
HETATM   17  C5  UNL     1      19.588  25.056  20.189  1.00  0.00    -0.034 C 
HETATM   18  C6  UNL     1      20.583  26.167  20.108  1.00  0.00     0.018 C 
HETATM   19  C7  UNL     1      20.061  23.847  19.424  1.00  0.00     0.018 C 
HETATM   20  C8  UNL     1      19.320  24.725  21.633  1.00  0.00     0.018 C 
ENDBRANCH  16  17
ENDBRANCH  13  15
ENDBRANCH  12  13
ENDBRANCH  11  12
BRANCH  11  21
HETATM   21  O1  UNL     1      14.191  24.430  17.113  1.00  0.00    -0.393 OA
ATOM     22  H1  UNL     1      13.472  23.823  16.982  1.00  0.00     0.210 HD
ENDBRANCH  11  21
ENDBRANCH  10  11
BRANCH  10  23
HETATM   23  O2  UNL     1      14.784  23.294  19.170  1.00  0.00    -0.393 OA
ATOM     24  H2  UNL     1      15.213  23.620  19.952  1.00  0.00     0.210 HD
ENDBRANCH  10  23
ENDBRANCH   9  10
ENDBRANCH   7   9
ENDBRANCH   6   7
ENDBRANCH   3   6
ENDBRANCH   1   2
BRANCH   1  25
HETATM   25  C17 UNL     1      16.987  23.294  12.793  1.00  0.00     0.041 C 
BRANCH  25  26
HETATM   26  C18 UNL     1      18.392  23.368  13.321  1.00  0.00    -0.009 C 
HETATM   27  C19 UNL     1      19.317  22.766  12.330  1.00  0.00     0.010 C 
BRANCH  26  28
HETATM   28  C20 UNL     1      18.625  24.763  13.719  1.00  0.00     0.027 C 
HETATM   29  C21 UNL     1      18.339  25.860  12.785  1.00  0.00     0.123 C 
HETATM   30  C22 UNL     1      18.954  27.056  13.529  1.00  0.00     0.038 C 
HETATM   31  C23 UNL     1      19.606  26.528  14.758  1.00  0.00     0.005 C 
HETATM   32  C24 UNL     1      19.962  25.103  14.330  1.00  0.00    -0.033 C 
HETATM   33  C34 UNL     1      20.721  27.299  15.341  1.00  0.00    -0.031 C 
HETATM   34  C25 UNL     1      20.084  24.167  15.529  1.00  0.00     0.016 C 
HETATM   35  C26 UNL     1      21.122  25.032  13.437  1.00  0.00     0.010 C 
HETATM   36  C27 UNL     1      22.077  26.212  13.559  1.00  0.00     0.009 C 
HETATM   37  C28 UNL     1      22.086  26.825  14.913  1.00  0.00     0.028 C 
HETATM   38  C29 UNL     1      23.131  27.921  14.926  1.00  0.00     0.058 C 
HETATM   39  C30 UNL     1      24.405  27.341  14.346  1.00  0.00     0.046 C 
HETATM   40  C31 UNL     1      23.452  28.406  16.309  1.00  0.00     0.046 C 
HETATM   41  O5  UNL     1      22.663  28.890  14.074  1.00  0.00    -0.381 OA
HETATM   42  C32 UNL     1      21.602  29.571  14.617  1.00  0.00     0.169 C 
HETATM   43  C33 UNL     1      20.489  28.768  15.143  1.00  0.00     0.036 C 
HETATM   44  C35 UNL     1      20.680  27.053  16.862  1.00  0.00     0.016 C 
BRANCH  29  45
HETATM   45  O4  UNL     1      18.782  25.766  11.503  1.00  0.00    -0.395 OA
ATOM     46  H4  UNL     1      18.913  26.562  11.001  1.00  0.00     0.210 HD
ENDBRANCH  29  45
ENDBRANCH  26  28
ENDBRANCH  25  26
ENDBRANCH   1  25
BRANCH   1  47
HETATM   47  C36 UNL     1      16.113  21.075  12.186  1.00  0.00     0.196 C 
HETATM   48  O6  UNL     1      17.118  20.367  11.942  1.00  0.00    -0.646 OA
HETATM   49  O7  UNL     1      14.967  20.831  11.471  1.00  0.00    -0.646 OA
ENDBRANCH   1  47
TORSDOF 17
ENDMDL
MODEL 4
REMARK VINA RESULT: -6.353402924      2.448      5.029
REMARK  17 active torsions:
REMARK  status: ('A' for Active; 'I' for Inactive)
REMARK    1  A    between atoms: C2_2  and  C3_3 
REMARK    2  A    between atoms: C2_2  and  C9_9 
REMARK    3  A    between atoms: C4_4  and  C5_5 
REMARK    4  A    between atoms: C9_9  and  C10_10 
REMARK    5  A    between atoms: C10_10  and  O1_11 
REMARK    6  A    between atoms: C10_10  and  C11_13 
REMARK    7  A    between atoms: C11_13  and  O2_14 
REMARK    8  A    between atoms: C11_13  and  C12_16 
REMARK    9  A    between atoms: C12_16  and  C13_17 
REMARK   10  A    between atoms: C13_17  and  C14_19 
REMARK   11  A    between atoms: C14_19  and  C15_20 
REMARK       I    between atoms: C15_20  and  N1_22 
REMARK   12  A    between atoms: N1_22  and  C16_24 
REMARK   13  A    between atoms: C16_24  and  C17_25 
REMARK   14  A    between atoms: C16_24  and  C36_47 
REMARK   15  A    between atoms: C17_25  and  C18_26 
REMARK   16  A    between atoms: C18_26  and  C20_28 
REMARK   17  A    between atoms: C21_29  and  O4_30 
ROOT
HETATM    1  C16 UNL     1      16.197  21.335  13.833  1.00  0.00     0.185 C 
ENDROOT
BRANCH   1   2
HETATM    2  N1  UNL     1      14.866  21.918  13.470  1.00  0.00    -0.346 N 
HETATM    3  C15 UNL     1      14.285  21.686  12.212  1.00  0.00     0.221 C 
HETATM    4  O3  UNL     1      14.906  20.980  11.398  1.00  0.00    -0.273 OA
ATOM      5  H1  UNL     1      14.370  22.494  14.151  1.00  0.00     0.163 HD
BRANCH   3   6
HETATM    6  C14 UNL     1      12.984  22.279  11.914  1.00  0.00     0.140 C 
BRANCH   6   7
HETATM    7  C13 UNL     1      12.962  23.725  11.571  1.00  0.00     0.181 C 
HETATM    8  F1  UNL     1      12.146  23.938  10.460  1.00  0.00    -0.249 F 
BRANCH   7   9
HETATM    9  C12 UNL     1      12.642  24.601  12.727  1.00  0.00     0.072 C 
BRANCH   9  10
HETATM   10  C11 UNL     1      13.776  25.507  13.170  1.00  0.00     0.149 C 
BRANCH  10  11
HETATM   11  C10 UNL     1      14.035  25.425  14.648  1.00  0.00     0.147 C 
BRANCH  11  12
HETATM   12  C9  UNL     1      15.487  25.907  14.880  1.00  0.00     0.042 C 
BRANCH  12  13
HETATM   13  C2  UNL     1      15.566  26.879  16.039  1.00  0.00     0.006 C 
HETATM   14  C1  UNL     1      16.694  27.881  15.874  1.00  0.00     0.014 C 
BRANCH  13  15
HETATM   15  C3  UNL     1      15.816  26.123  17.281  1.00  0.00    -0.026 C 
HETATM   16  C4  UNL     1      16.632  25.088  17.284  1.00  0.00    -0.022 C 
BRANCH  16  17
HETATM   17  C5  UNL     1      16.880  24.323  18.561  1.00  0.00    -0.034 C 
HETATM   18  C6  UNL     1      18.222  24.640  19.134  1.00  0.00     0.018 C 
HETATM   19  C7  UNL     1      16.772  22.862  18.211  1.00  0.00     0.018 C 
HETATM   20  C8  UNL     1      15.807  24.740  19.530  1.00  0.00     0.018 C 
ENDBRANCH  16  17
ENDBRANCH  13  15
ENDBRANCH  12  13
ENDBRANCH  11  12
BRANCH  11  21
HETATM   21  O1  UNL     1      13.964  24.127  15.104  1.00  0.00    -0.393 OA
ATOM     22  H1  UNL     1      13.069  23.979  15.384  1.00  0.00     0.210 HD
ENDBRANCH  11  21
ENDBRANCH  10  11
BRANCH  10  23
HETATM   23  O2  UNL     1      14.936  25.014  12.524  1.00  0.00    -0.393 OA
ATOM     24  H2  UNL     1      14.786  25.098  11.589  1.00  0.00     0.210 HD
ENDBRANCH  10  23
ENDBRANCH   9  10
ENDBRANCH   7   9
ENDBRANCH   6   7
ENDBRANCH   3   6
ENDBRANCH   1   2
BRANCH   1  25
HETATM   25  C17 UNL     1      16.991  22.502  14.294  1.00  0.00     0.041 C 
BRANCH  25  26
HETATM   26  C18 UNL     1      18.228  22.837  13.511  1.00  0.00    -0.009 C 
HETATM   27  C19 UNL     1      18.052  22.392  12.107  1.00  0.00     0.010 C 
BRANCH  26  28
HETATM   28  C20 UNL     1      18.514  24.258  13.750  1.00  0.00     0.027 C 
HETATM   29  C21 UNL     1      18.491  25.218  12.640  1.00  0.00     0.123 C 
HETATM   30  C22 UNL     1      19.074  26.470  13.313  1.00  0.00     0.038 C 
HETATM   31  C23 UNL     1      19.457  26.092  14.700  1.00  0.00     0.005 C 
HETATM   32  C24 UNL     1      19.752  24.600  14.542  1.00  0.00    -0.033 C 
HETATM   33  C34 UNL     1      20.520  26.870  15.365  1.00  0.00    -0.031 C 
HETATM   34  C25 UNL     1      19.583  23.849  15.860  1.00  0.00     0.016 C 
HETATM   35  C26 UNL     1      21.036  24.322  13.894  1.00  0.00     0.010 C 
HETATM   36  C27 UNL     1      22.058  25.443  14.026  1.00  0.00     0.009 C 
HETATM   37  C28 UNL     1      21.890  26.251  15.262  1.00  0.00     0.028 C 
HETATM   38  C29 UNL     1      23.011  27.268  15.315  1.00  0.00     0.058 C 
HETATM   39  C30 UNL     1      24.308  26.527  15.062  1.00  0.00     0.046 C 
HETATM   40  C31 UNL     1      23.133  27.933  16.654  1.00  0.00     0.046 C 
HETATM   41  O5  UNL     1      22.784  28.125  14.268  1.00  0.00    -0.381 OA
HETATM   42  C32 UNL     1      21.711  28.946  14.510  1.00  0.00     0.169 C 
HETATM   43  C33 UNL     1      20.457  28.304  14.930  1.00  0.00     0.036 C 
HETATM   44  C35 UNL     1      20.197  26.858  16.872  1.00  0.00     0.016 C 
BRANCH  29  45
HETATM   45  O4  UNL     1      19.136  24.904  11.485  1.00  0.00    -0.395 OA
ATOM     46  H4  UNL     1      18.876  24.123  11.010  1.00  0.00     0.210 HD
ENDBRANCH  29  45
ENDBRANCH  26  28
ENDBRANCH  25  26
ENDBRANCH   1  25
BRANCH   1  47
HETATM   47  C36 UNL     1      16.001  20.324  14.871  1.00  0.00     0.196 C 
HETATM   48  O6  UNL     1      14.978  19.601  14.867  1.00  0.00    -0.646 OA
HETATM   49  O7  UNL     1      16.919  20.131  15.873  1.00  0.00    -0.646 OA
ENDBRANCH   1  47
TORSDOF 17
ENDMDL
MODEL 5
REMARK VINA RESULT: -6.262950979      1.674      2.888
REMARK  17 active torsions:
REMARK  status: ('A' for Active; 'I' for Inactive)
REMARK    1  A    between atoms: C2_2  and  C3_3 
REMARK    2  A    between atoms: C2_2  and  C9_9 
REMARK    3  A    between atoms: C4_4  and  C5_5 
REMARK    4  A    between atoms: C9_9  and  C10_10 
REMARK    5  A    between atoms: C10_10  and  O1_11 
REMARK    6  A    between atoms: C10_10  and  C11_13 
REMARK    7  A    between atoms: C11_13  and  O2_14 
REMARK    8  A    between atoms: C11_13  and  C12_16 
REMARK    9  A    between atoms: C12_16  and  C13_17 
REMARK   10  A    between atoms: C13_17  and  C14_19 
REMARK   11  A    between atoms: C14_19  and  C15_20 
REMARK       I    between atoms: C15_20  and  N1_22 
REMARK   12  A    between atoms: N1_22  and  C16_24 
REMARK   13  A    between atoms: C16_24  and  C17_25 
REMARK   14  A    between atoms: C16_24  and  C36_47 
REMARK   15  A    between atoms: C17_25  and  C18_26 
REMARK   16  A    between atoms: C18_26  and  C20_28 
REMARK   17  A    between atoms: C21_29  and  O4_30 
ROOT
HETATM    1  C16 UNL     1      15.625  21.820  13.265  1.00  0.00     0.185 C 
ENDROOT
BRANCH   1   2
HETATM    2  N1  UNL     1      16.608  22.798  12.698  1.00  0.00    -0.346 N 
HETATM    3  C15 UNL     1      17.803  22.369  12.097  1.00  0.00     0.221 C 
HETATM    4  O3  UNL     1      18.029  21.147  12.044  1.00  0.00    -0.273 OA
ATOM      5  H1  UNL     1      16.405  23.797  12.750  1.00  0.00     0.163 HD
BRANCH   3   6
HETATM    6  C14 UNL     1      18.723  23.369  11.561  1.00  0.00     0.140 C 
BRANCH   6   7
HETATM    7  C13 UNL     1      20.107  22.921  11.259  1.00  0.00     0.181 C 
HETATM    8  F1  UNL     1      20.571  23.551  10.104  1.00  0.00    -0.249 F 
BRANCH   7   9
HETATM    9  C12 UNL     1      21.031  23.036  12.417  1.00  0.00     0.072 C 
BRANCH   9  10
HETATM   10  C11 UNL     1      20.966  24.361  13.153  1.00  0.00     0.149 C 
BRANCH  10  11
HETATM   11  C10 UNL     1      21.843  24.388  14.373  1.00  0.00     0.147 C 
BRANCH  11  12
HETATM   12  C9  UNL     1      22.332  25.845  14.547  1.00  0.00     0.042 C 
BRANCH  12  13
HETATM   13  C2  UNL     1      21.530  26.573  15.605  1.00  0.00     0.006 C 
HETATM   14  C1  UNL     1      20.546  27.560  15.005  1.00  0.00     0.014 C 
BRANCH  13  15
HETATM   15  C3  UNL     1      22.455  27.331  16.468  1.00  0.00    -0.026 C 
HETATM   16  C4  UNL     1      23.727  26.995  16.547  1.00  0.00    -0.022 C 
BRANCH  16  17
HETATM   17  C5  UNL     1      24.665  27.779  17.432  1.00  0.00    -0.034 C 
HETATM   18  C6  UNL     1      23.917  28.704  18.335  1.00  0.00     0.018 C 
HETATM   19  C7  UNL     1      25.583  28.542  16.513  1.00  0.00     0.018 C 
HETATM   20  C8  UNL     1      25.422  26.772  18.257  1.00  0.00     0.018 C 
ENDBRANCH  16  17
ENDBRANCH  13  15
ENDBRANCH  12  13
ENDBRANCH  11  12
BRANCH  11  21
HETATM   21  O1  UNL     1      22.963  23.604  14.209  1.00  0.00    -0.393 OA
ATOM     22  H1  UNL     1      23.714  24.185  14.230  1.00  0.00     0.210 HD
ENDBRANCH  11  21
ENDBRANCH  10  11
BRANCH  10  23
HETATM   23  O2  UNL     1      21.486  25.325  12.254  1.00  0.00    -0.393 OA
ATOM     24  H2  UNL     1      20.915  25.329  11.495  1.00  0.00     0.210 HD
ENDBRANCH  10  23
ENDBRANCH   9  10
ENDBRANCH   7   9
ENDBRANCH   6   7
ENDBRANCH   3   6
ENDBRANCH   1   2
BRANCH   1  25
HETATM   25  C17 UNL     1      15.046  22.523  14.436  1.00  0.00     0.041 C 
BRANCH  25  26
HETATM   26  C18 UNL     1      15.679  23.828  14.829  1.00  0.00    -0.009 C 
HETATM   27  C19 UNL     1      14.664  24.906  14.750  1.00  0.00     0.010 C 
BRANCH  26  28
HETATM   28  C20 UNL     1      16.348  23.607  16.119  1.00  0.00     0.027 C 
HETATM   29  C21 UNL     1      15.568  23.561  17.362  1.00  0.00     0.123 C 
HETATM   30  C22 UNL     1      16.684  23.563  18.418  1.00  0.00     0.038 C 
HETATM   31  C23 UNL     1      17.978  23.701  17.696  1.00  0.00     0.005 C 
HETATM   32  C24 UNL     1      17.551  24.460  16.439  1.00  0.00    -0.033 C 
HETATM   33  C34 UNL     1      19.120  24.291  18.422  1.00  0.00    -0.031 C 
HETATM   34  C25 UNL     1      18.512  24.217  15.279  1.00  0.00     0.016 C 
HETATM   35  C26 UNL     1      17.295  25.883  16.673  1.00  0.00     0.010 C 
HETATM   36  C27 UNL     1      18.023  26.459  17.880  1.00  0.00     0.009 C 
HETATM   37  C28 UNL     1      19.304  25.767  18.181  1.00  0.00     0.028 C 
HETATM   38  C29 UNL     1      19.964  26.484  19.340  1.00  0.00     0.058 C 
HETATM   39  C30 UNL     1      19.957  27.965  19.020  1.00  0.00     0.046 C 
HETATM   40  C31 UNL     1      21.395  26.079  19.538  1.00  0.00     0.046 C 
HETATM   41  O5  UNL     1      19.152  26.265  20.423  1.00  0.00    -0.381 OA
HETATM   42  C32 UNL     1      19.240  24.970  20.868  1.00  0.00     0.169 C 
HETATM   43  C33 UNL     1      19.064  23.905  19.870  1.00  0.00     0.036 C 
HETATM   44  C35 UNL     1      20.392  23.639  17.846  1.00  0.00     0.016 C 
BRANCH  29  45
HETATM   45  O4  UNL     1      14.637  24.525  17.591  1.00  0.00    -0.395 OA
ATOM     46  H4  UNL     1      13.894  24.597  17.004  1.00  0.00     0.210 HD
ENDBRANCH  29  45
ENDBRANCH  26  28
ENDBRANCH  25  26
ENDBRANCH   1  25
BRANCH   1  47
HETATM   47  C36 UNL     1      14.635  21.500  12.237  1.00  0.00     0.196 C 
HETATM   48  O6  UNL     1      13.532  22.093  12.212  1.00  0.00    -0.646 OA
HETATM   49  O7  UNL     1      14.876  20.552  11.273  1.00  0.00    -0.646 OA
ENDBRANCH   1  47
TORSDOF 17
ENDMDL
