MODEL 1
REMARK VINA RESULT: -7.397543695      0.000      0.000
REMARK  3 active torsions:
REMARK  status: ('A' for Active; 'I' for Inactive)
REMARK    1  A    between atoms: O1_1  and  C1_3 
REMARK    2  A    between atoms: C2_6  and  O2_7 
REMARK    3  A    between atoms: C4_12  and  C5_13 
ROOT
HETATM    1  C1  UNL     1     -21.086   0.704 -21.670  1.00  0.00     0.172 A 
HETATM    2  N1  UNL     1     -21.505  -0.300 -20.896  1.00  0.00    -0.314 N 
ATOM      3  H1  UNL     1     -21.402  -0.333 -19.882  1.00  0.00     0.170 HD
HETATM    4  C2  UNL     1     -22.088  -1.273 -21.648  1.00  0.00     0.172 A 
HETATM    5  C3  UNL     1     -22.043  -0.879 -22.968  1.00  0.00     0.116 A 
HETATM    6  N2  UNL     1     -22.360  -1.209 -24.229  1.00  0.00    -0.340 N 
ATOM      7  H2  UNL     1     -22.830  -2.064 -24.528  1.00  0.00     0.167 HD
HETATM    8  C4  UNL     1     -21.946  -0.212 -25.029  1.00  0.00     0.086 A 
HETATM    9  N3  UNL     1     -21.376   0.734 -24.265  1.00  0.00    -0.340 N 
ATOM     10  H3  UNL     1     -20.975   1.606 -24.609  1.00  0.00     0.167 HD
HETATM   11  C11 UNL     1     -21.419   0.348 -22.961  1.00  0.00     0.116 A 
ENDROOT
BRANCH   8  12
HETATM   12  C5  UNL     1     -22.086  -0.144 -26.506  1.00  0.00     0.053 C 
HETATM   13  C6  UNL     1     -20.967  -0.983 -27.086  1.00  0.00     0.012 C 
HETATM   14  C7  UNL     1     -21.142  -0.870 -28.605  1.00  0.00     0.001 C 
HETATM   15  C8  UNL     1     -20.692   0.532 -28.936  1.00  0.00     0.000 C 
HETATM   16  C9  UNL     1     -21.559   1.548 -28.303  1.00  0.00     0.001 C 
HETATM   17  C10 UNL     1     -22.050   1.280 -26.945  1.00  0.00     0.012 C 
ENDBRANCH   8  12
BRANCH   4  18
HETATM   18  O2  UNL     1     -22.646  -2.467 -21.229  1.00  0.00    -0.344 OA
ATOM     19  H2  UNL     1     -22.454  -3.348 -21.530  1.00  0.00     0.219 HD
ENDBRANCH   4  18
BRANCH   1  20
HETATM   20  O1  UNL     1     -20.445   1.878 -21.297  1.00  0.00    -0.344 OA
ATOM     21  H1  UNL     1     -20.064   2.549 -21.851  1.00  0.00     0.219 HD
ENDBRANCH   1  20
TORSDOF 3
ENDMDL
MODEL 2
REMARK VINA RESULT: -7.376684568      0.052      2.101
REMARK  3 active torsions:
REMARK  status: ('A' for Active; 'I' for Inactive)
REMARK    1  A    between atoms: O1_1  and  C1_3 
REMARK    2  A    between atoms: C2_6  and  O2_7 
REMARK    3  A    between atoms: C4_12  and  C5_13 
ROOT
HETATM    1  C1  UNL     1     -22.082  -1.298 -21.651  1.00  0.00     0.172 A 
HETATM    2  N1  UNL     1     -21.501  -0.348 -20.914  1.00  0.00    -0.314 N 
ATOM      3  H1  UNL     1     -21.395  -0.385 -19.900  1.00  0.00     0.170 HD
HETATM    4  C2  UNL     1     -21.069   0.674 -21.702  1.00  0.00     0.172 A 
HETATM    5  C3  UNL     1     -21.387   0.370 -23.009  1.00  0.00     0.116 A 
HETATM    6  N2  UNL     1     -21.328   0.785 -24.283  1.00  0.00    -0.340 N 
ATOM      7  H2  UNL     1     -20.917   1.658 -24.613  1.00  0.00     0.167 HD
HETATM    8  C4  UNL     1     -21.909  -0.156 -25.046  1.00  0.00     0.086 A 
HETATM    9  N3  UNL     1     -22.324  -1.152 -24.247  1.00  0.00    -0.340 N 
ATOM     10  H3  UNL     1     -22.799  -1.998 -24.560  1.00  0.00     0.167 HD
HETATM   11  C11 UNL     1     -22.013  -0.855 -22.956  1.00  0.00     0.116 A 
ENDROOT
BRANCH   8  12
HETATM   12  C5  UNL     1     -22.073  -0.124 -26.522  1.00  0.00     0.053 C 
HETATM   13  C6  UNL     1     -20.955  -0.966 -27.100  1.00  0.00     0.012 C 
HETATM   14  C7  UNL     1     -21.155  -0.889 -28.619  1.00  0.00     0.001 C 
HETATM   15  C8  UNL     1     -20.724   0.509 -28.988  1.00  0.00     0.000 C 
HETATM   16  C9  UNL     1     -21.590   1.531 -28.366  1.00  0.00     0.001 C 
HETATM   17  C10 UNL     1     -22.057   1.290 -26.994  1.00  0.00     0.012 C 
ENDBRANCH   8  12
BRANCH   4  18
HETATM   18  O2  UNL     1     -20.423   1.837 -21.327  1.00  0.00    -0.344 OA
ATOM     19  H2  UNL     1     -19.592   2.179 -21.637  1.00  0.00     0.219 HD
ENDBRANCH   4  18
BRANCH   1  20
HETATM   20  O1  UNL     1     -22.649  -2.495 -21.234  1.00  0.00    -0.344 OA
ATOM     21  H1  UNL     1     -23.511  -2.647 -20.864  1.00  0.00     0.219 HD
ENDBRANCH   1  20
TORSDOF 3
ENDMDL
MODEL 3
REMARK VINA RESULT: -7.370188472      0.802      2.591
REMARK  3 active torsions:
REMARK  status: ('A' for Active; 'I' for Inactive)
REMARK    1  A    between atoms: O1_1  and  C1_3 
REMARK    2  A    between atoms: C2_6  and  O2_7 
REMARK    3  A    between atoms: C4_12  and  C5_13 
ROOT
HETATM    1  C1  UNL     1     -21.881  -0.680 -21.705  1.00  0.00     0.172 A 
HETATM    2  N1  UNL     1     -21.477   0.332 -20.934  1.00  0.00    -0.314 N 
ATOM      3  H1  UNL     1     -21.586   0.369 -19.920  1.00  0.00     0.170 HD
HETATM    4  C2  UNL     1     -20.899   1.307 -21.687  1.00  0.00     0.172 A 
HETATM    5  C3  UNL     1     -20.932   0.905 -23.006  1.00  0.00     0.116 A 
HETATM    6  N2  UNL     1     -20.612   1.232 -24.267  1.00  0.00    -0.340 N 
ATOM      7  H2  UNL     1     -20.148   2.089 -24.567  1.00  0.00     0.167 HD
HETATM    8  C4  UNL     1     -21.010   0.226 -25.063  1.00  0.00     0.086 A 
HETATM    9  N3  UNL     1     -21.575  -0.722 -24.298  1.00  0.00    -0.340 N 
ATOM     10  H3  UNL     1     -21.966  -1.600 -24.639  1.00  0.00     0.167 HD
HETATM   11  C11 UNL     1     -21.544  -0.329 -22.995  1.00  0.00     0.116 A 
ENDROOT
BRANCH   8  12
HETATM   12  C5  UNL     1     -20.861   0.151 -26.539  1.00  0.00     0.053 C 
HETATM   13  C6  UNL     1     -21.982   0.979 -27.130  1.00  0.00     0.012 C 
HETATM   14  C7  UNL     1     -21.798   0.859 -28.647  1.00  0.00     0.001 C 
HETATM   15  C8  UNL     1     -22.235  -0.547 -28.973  1.00  0.00     0.000 C 
HETATM   16  C9  UNL     1     -21.365  -1.554 -28.330  1.00  0.00     0.001 C 
HETATM   17  C10 UNL     1     -20.884  -1.275 -26.971  1.00  0.00     0.012 C 
ENDBRANCH   8  12
BRANCH   4  18
HETATM   18  O2  UNL     1     -20.356   2.509 -21.272  1.00  0.00    -0.344 OA
ATOM     19  H2  UNL     1     -19.700   3.043 -21.705  1.00  0.00     0.219 HD
ENDBRANCH   4  18
BRANCH   1  20
HETATM   20  O1  UNL     1     -22.512  -1.859 -21.328  1.00  0.00    -0.344 OA
ATOM     21  H1  UNL     1     -23.145  -2.375 -21.814  1.00  0.00     0.219 HD
ENDBRANCH   1  20
TORSDOF 3
ENDMDL
MODEL 4
REMARK VINA RESULT: -7.345627204      0.792      1.505
REMARK  3 active torsions:
REMARK  status: ('A' for Active; 'I' for Inactive)
REMARK    1  A    between atoms: O1_1  and  C1_3 
REMARK    2  A    between atoms: C2_6  and  O2_7 
REMARK    3  A    between atoms: C4_12  and  C5_13 
ROOT
HETATM    1  C1  UNL     1     -20.896   1.330 -21.704  1.00  0.00     0.172 A 
HETATM    2  N1  UNL     1     -21.486   0.385 -20.967  1.00  0.00    -0.314 N 
ATOM      3  H1  UNL     1     -21.606   0.429 -19.955  1.00  0.00     0.170 HD
HETATM    4  C2  UNL     1     -21.904  -0.644 -21.753  1.00  0.00     0.172 A 
HETATM    5  C3  UNL     1     -21.569  -0.349 -23.058  1.00  0.00     0.116 A 
HETATM    6  N2  UNL     1     -21.608  -0.775 -24.329  1.00  0.00    -0.340 N 
ATOM      7  H2  UNL     1     -22.013  -1.651 -24.658  1.00  0.00     0.167 HD
HETATM    8  C4  UNL     1     -21.019   0.162 -25.091  1.00  0.00     0.086 A 
HETATM    9  N3  UNL     1     -20.617   1.165 -24.295  1.00  0.00    -0.340 N 
ATOM     10  H3  UNL     1     -20.140   2.010 -24.607  1.00  0.00     0.167 HD
HETATM   11  C11 UNL     1     -20.946   0.878 -23.006  1.00  0.00     0.116 A 
ENDROOT
BRANCH   8  12
HETATM   12  C5  UNL     1     -20.834   0.118 -26.565  1.00  0.00     0.053 C 
HETATM   13  C6  UNL     1     -21.883   1.033 -27.160  1.00  0.00     0.012 C 
HETATM   14  C7  UNL     1     -21.665   0.943 -28.675  1.00  0.00     0.001 C 
HETATM   15  C8  UNL     1     -22.182  -0.423 -29.053  1.00  0.00     0.000 C 
HETATM   16  C9  UNL     1     -21.397  -1.500 -28.417  1.00  0.00     0.001 C 
HETATM   17  C10 UNL     1     -20.936  -1.291 -27.038  1.00  0.00     0.012 C 
ENDBRANCH   8  12
BRANCH   4  18
HETATM   18  O2  UNL     1     -22.553  -1.806 -21.378  1.00  0.00    -0.344 OA
ATOM     19  H2  UNL     1     -22.176  -2.625 -21.080  1.00  0.00     0.219 HD
ENDBRANCH   4  18
BRANCH   1  20
HETATM   20  O1  UNL     1     -20.338   2.532 -21.288  1.00  0.00    -0.344 OA
ATOM     21  H1  UNL     1     -19.427   2.801 -21.305  1.00  0.00     0.219 HD
ENDBRANCH   1  20
TORSDOF 3
ENDMDL
MODEL 5
REMARK VINA RESULT: -7.315447579      1.046      1.123
REMARK  3 active torsions:
REMARK  status: ('A' for Active; 'I' for Inactive)
REMARK    1  A    between atoms: O1_1  and  C1_3 
REMARK    2  A    between atoms: C2_6  and  O2_7 
REMARK    3  A    between atoms: C4_12  and  C5_13 
ROOT
HETATM    1  C1  UNL     1     -20.939   2.145 -22.246  1.00  0.00     0.172 A 
HETATM    2  N1  UNL     1     -21.100   1.309 -21.218  1.00  0.00    -0.314 N 
ATOM      3  H1  UNL     1     -20.898   1.539 -20.246  1.00  0.00     0.170 HD
HETATM    4  C2  UNL     1     -21.570   0.106 -21.648  1.00  0.00     0.172 A 
HETATM    5  C3  UNL     1     -21.719   0.169 -23.017  1.00  0.00     0.116 A 
HETATM    6  N2  UNL     1     -22.089  -0.502 -24.119  1.00  0.00    -0.340 N 
ATOM      7  H2  UNL     1     -22.426  -1.463 -24.152  1.00  0.00     0.167 HD
HETATM    8  C4  UNL     1     -21.934   0.322 -25.169  1.00  0.00     0.086 A 
HETATM    9  N3  UNL     1     -21.472   1.499 -24.720  1.00  0.00    -0.340 N 
ATOM     10  H3  UNL     1     -21.265   2.311 -25.301  1.00  0.00     0.167 HD
HETATM   11  C11 UNL     1     -21.323   1.441 -23.369  1.00  0.00     0.116 A 
ENDROOT
BRANCH   8  12
HETATM   12  C5  UNL     1     -22.222   0.007 -26.592  1.00  0.00     0.053 C 
HETATM   13  C6  UNL     1     -21.294  -1.125 -26.981  1.00  0.00     0.012 C 
HETATM   14  C7  UNL     1     -21.614  -1.403 -28.454  1.00  0.00     0.001 C 
HETATM   15  C8  UNL     1     -21.019  -0.234 -29.199  1.00  0.00     0.000 C 
HETATM   16  C9  UNL     1     -21.669   1.040 -28.827  1.00  0.00     0.001 C 
HETATM   17  C10 UNL     1     -22.043   1.233 -27.420  1.00  0.00     0.012 C 
ENDBRANCH   8  12
BRANCH   4  18
HETATM   18  O2  UNL     1     -21.865  -1.020 -20.902  1.00  0.00    -0.344 OA
ATOM     19  H2  UNL     1     -22.489  -1.711 -21.095  1.00  0.00     0.219 HD
ENDBRANCH   4  18
BRANCH   1  20
HETATM   20  O1  UNL     1     -20.484   3.458 -22.234  1.00  0.00    -0.344 OA
ATOM     21  H1  UNL     1     -20.154   3.964 -21.502  1.00  0.00     0.219 HD
ENDBRANCH   1  20
TORSDOF 3
ENDMDL
