MODEL 1
REMARK VINA RESULT: -6.020903616      0.000      0.000
REMARK  2 active torsions:
REMARK  status: ('A' for Active; 'I' for Inactive)
REMARK    1  A    between atoms: C2_2  and  N1_4 
REMARK    2  A    between atoms: C12_13  and  O1_14 
ROOT
HETATM    1  N1  UNL     1     -26.308   7.244 -15.523  1.00  0.00    -0.387 N 
HETATM    2  C4  UNL     1     -27.456   8.050 -15.701  1.00  0.00     0.120 C 
HETATM    3  C5  UNL     1     -27.340   9.497 -15.357  1.00  0.00     0.029 C 
HETATM    4  C6  UNL     1     -25.943  10.044 -15.322  1.00  0.00    -0.030 A 
HETATM    5  C7  UNL     1     -25.253  10.538 -14.131  1.00  0.00     0.016 A 
HETATM    6  C8  UNL     1     -25.168   9.151 -14.417  1.00  0.00     0.008 A 
HETATM    7  C9  UNL     1     -24.229   8.408 -15.332  1.00  0.00     0.009 C 
HETATM    8  C10 UNL     1     -23.231   7.558 -14.560  1.00  0.00     0.017 C 
HETATM    9  C11 UNL     1     -21.937   7.598 -15.353  1.00  0.00     0.033 C 
HETATM   10  C12 UNL     1     -22.025   8.781 -16.288  1.00  0.00     0.123 C 
HETATM   11  C13 UNL     1     -23.296   9.428 -15.876  1.00  0.00     0.027 C 
HETATM   12  C14 UNL     1     -23.899  10.409 -16.793  1.00  0.00     0.013 C 
HETATM   13  C15 UNL     1     -25.382  10.411 -16.620  1.00  0.00    -0.005 C 
HETATM   14  C16 UNL     1     -25.933   9.550 -17.715  1.00  0.00     0.009 C 
HETATM   15  C17 UNL     1     -25.469   8.165 -17.555  1.00  0.00     0.049 C 
HETATM   16  C18 UNL     1     -25.118   7.639 -16.218  1.00  0.00     0.115 C 
HETATM   17 CL1  UNL     1     -24.256   6.093 -16.553  1.00  0.00    -0.095 Cl
ENDROOT
BRANCH   1  18
HETATM   18  C2  UNL     1     -26.516   5.891 -15.238  1.00  0.00     0.072 C 
HETATM   19  C1  UNL     1     -26.651   5.664 -13.719  1.00  0.00     0.031 C 
HETATM   20  C3  UNL     1     -27.670   5.201 -15.867  1.00  0.00     0.031 C 
ENDBRANCH   1  18
BRANCH  10  21
HETATM   21  O1  UNL     1     -21.903   8.457 -17.607  1.00  0.00    -0.395 OA
ATOM     22  H1  UNL     1     -21.058   8.676 -17.983  1.00  0.00     0.210 HD
ENDBRANCH  10  21
TORSDOF 2
ENDMDL
MODEL 2
REMARK VINA RESULT: -5.872194500      1.719      3.423
REMARK  2 active torsions:
REMARK  status: ('A' for Active; 'I' for Inactive)
REMARK    1  A    between atoms: C2_2  and  N1_4 
REMARK    2  A    between atoms: C12_13  and  O1_14 
ROOT
HETATM    1  N1  UNL     1     -25.468   8.365 -15.075  1.00  0.00    -0.387 N 
HETATM    2  C4  UNL     1     -26.738   7.783 -15.298  1.00  0.00     0.120 C 
HETATM    3  C5  UNL     1     -27.087   7.409 -16.699  1.00  0.00     0.029 C 
HETATM    4  C6  UNL     1     -25.924   7.237 -17.632  1.00  0.00    -0.030 A 
HETATM    5  C7  UNL     1     -25.630   8.081 -18.789  1.00  0.00     0.016 A 
HETATM    6  C8  UNL     1     -25.120   8.487 -17.529  1.00  0.00     0.008 A 
HETATM    7  C9  UNL     1     -23.859   8.066 -16.816  1.00  0.00     0.009 C 
HETATM    8  C10 UNL     1     -22.831   9.187 -16.766  1.00  0.00     0.017 C 
HETATM    9  C11 UNL     1     -21.471   8.521 -16.880  1.00  0.00     0.033 C 
HETATM   10  C12 UNL     1     -21.701   7.135 -17.438  1.00  0.00     0.123 C 
HETATM   11  C13 UNL     1     -23.154   7.144 -17.742  1.00  0.00     0.027 C 
HETATM   12  C14 UNL     1     -23.818   5.850 -17.970  1.00  0.00     0.013 C 
HETATM   13  C15 UNL     1     -25.250   5.943 -17.561  1.00  0.00    -0.005 C 
HETATM   14  C16 UNL     1     -25.331   5.362 -16.182  1.00  0.00     0.009 C 
HETATM   15  C17 UNL     1     -24.546   6.174 -15.242  1.00  0.00     0.049 C 
HETATM   16  C18 UNL     1     -24.323   7.613 -15.495  1.00  0.00     0.115 C 
HETATM   17 CL1  UNL     1     -23.026   8.081 -14.336  1.00  0.00    -0.095 Cl
ENDROOT
BRANCH   1  18
HETATM   18  C2  UNL     1     -25.351   9.245 -13.995  1.00  0.00     0.072 C 
HETATM   19  C1  UNL     1     -25.536  10.705 -14.454  1.00  0.00     0.031 C 
HETATM   20  C3  UNL     1     -26.244   9.059 -12.825  1.00  0.00     0.031 C 
ENDBRANCH   1  18
BRANCH  10  21
HETATM   21  O1  UNL     1     -21.250   6.130 -16.633  1.00  0.00    -0.395 OA
ATOM     22  H1  UNL     1     -21.797   5.968 -15.874  1.00  0.00     0.210 HD
ENDBRANCH  10  21
TORSDOF 2
ENDMDL
MODEL 3
REMARK VINA RESULT: -5.858361905      2.204      4.398
REMARK  2 active torsions:
REMARK  status: ('A' for Active; 'I' for Inactive)
REMARK    1  A    between atoms: C2_2  and  N1_4 
REMARK    2  A    between atoms: C12_13  and  O1_14 
ROOT
HETATM    1  N1  UNL     1     -23.632   8.105 -15.644  1.00  0.00    -0.387 N 
HETATM    2  C4  UNL     1     -23.536   6.699 -15.522  1.00  0.00     0.120 C 
HETATM    3  C5  UNL     1     -24.293   6.052 -14.412  1.00  0.00     0.029 C 
HETATM    4  C6  UNL     1     -25.428   6.855 -13.848  1.00  0.00    -0.030 A 
HETATM    5  C7  UNL     1     -25.495   7.398 -12.492  1.00  0.00     0.016 A 
HETATM    6  C8  UNL     1     -24.861   8.184 -13.489  1.00  0.00     0.008 A 
HETATM    7  C9  UNL     1     -25.458   9.134 -14.496  1.00  0.00     0.009 C 
HETATM    8  C10 UNL     1     -25.120  10.584 -14.184  1.00  0.00     0.017 C 
HETATM    9  C11 UNL     1     -26.332  11.400 -14.593  1.00  0.00     0.033 C 
HETATM   10  C12 UNL     1     -27.497  10.443 -14.702  1.00  0.00     0.123 C 
HETATM   11  C13 UNL     1     -26.916   9.168 -14.212  1.00  0.00     0.027 C 
HETATM   12  C14 UNL     1     -27.644   7.922 -14.502  1.00  0.00     0.013 C 
HETATM   13  C15 UNL     1     -26.677   6.788 -14.603  1.00  0.00    -0.005 C 
HETATM   14  C16 UNL     1     -26.420   6.585 -16.065  1.00  0.00     0.009 C 
HETATM   15  C17 UNL     1     -25.773   7.773 -16.637  1.00  0.00     0.049 C 
HETATM   16  C18 UNL     1     -24.945   8.660 -15.792  1.00  0.00     0.115 C 
HETATM   17 CL1  UNL     1     -24.700  10.139 -16.791  1.00  0.00    -0.095 Cl
ENDROOT
BRANCH   1  18
HETATM   18  C2  UNL     1     -22.540   8.772 -16.207  1.00  0.00     0.072 C 
HETATM   19  C1  UNL     1     -21.539   9.205 -15.117  1.00  0.00     0.031 C 
HETATM   20  C3  UNL     1     -21.745   8.080 -17.251  1.00  0.00     0.031 C 
ENDBRANCH   1  18
BRANCH  10  21
HETATM   21  O1  UNL     1     -28.081  10.416 -15.934  1.00  0.00    -0.395 OA
ATOM     22  H1  UNL     1     -28.574   9.623 -16.111  1.00  0.00     0.210 HD
ENDBRANCH  10  21
TORSDOF 2
ENDMDL
MODEL 4
REMARK VINA RESULT: -5.776542123      2.129      4.146
REMARK  2 active torsions:
REMARK  status: ('A' for Active; 'I' for Inactive)
REMARK    1  A    between atoms: C2_2  and  N1_4 
REMARK    2  A    between atoms: C12_13  and  O1_14 
ROOT
HETATM    1  N1  UNL     1     -24.306   8.058 -15.019  1.00  0.00    -0.387 N 
HETATM    2  C4  UNL     1     -24.473   7.079 -14.013  1.00  0.00     0.120 C 
HETATM    3  C5  UNL     1     -25.358   7.419 -12.861  1.00  0.00     0.029 C 
HETATM    4  C6  UNL     1     -26.338   8.530 -13.104  1.00  0.00    -0.030 A 
HETATM    5  C7  UNL     1     -26.330   9.831 -12.437  1.00  0.00     0.016 A 
HETATM    6  C8  UNL     1     -25.543   9.684 -13.608  1.00  0.00     0.008 A 
HETATM    7  C9  UNL     1     -25.934   9.807 -15.059  1.00  0.00     0.009 C 
HETATM    8  C10 UNL     1     -25.341  11.049 -15.707  1.00  0.00     0.017 C 
HETATM    9  C11 UNL     1     -26.374  11.542 -16.704  1.00  0.00     0.033 C 
HETATM   10  C12 UNL     1     -27.692  10.905 -16.331  1.00  0.00     0.123 C 
HETATM   11  C13 UNL     1     -27.366  10.203 -15.064  1.00  0.00     0.027 C 
HETATM   12  C14 UNL     1     -28.305   9.176 -14.583  1.00  0.00     0.013 C 
HETATM   13  C15 UNL     1     -27.562   8.144 -13.801  1.00  0.00    -0.005 C 
HETATM   14  C16 UNL     1     -27.317   7.002 -14.741  1.00  0.00     0.009 C 
HETATM   15  C17 UNL     1     -26.451   7.431 -15.847  1.00  0.00     0.049 C 
HETATM   16  C18 UNL     1     -25.491   8.541 -15.664  1.00  0.00     0.115 C 
HETATM   17 CL1  UNL     1     -24.958   8.958 -17.334  1.00  0.00    -0.095 Cl
ENDROOT
BRANCH   1  18
HETATM   18  C2  UNL     1     -23.098   8.049 -15.724  1.00  0.00     0.072 C 
HETATM   19  C1  UNL     1     -22.142   9.134 -15.190  1.00  0.00     0.031 C 
HETATM   20  C3  UNL     1     -22.314   6.791 -15.774  1.00  0.00     0.031 C 
ENDBRANCH   1  18
BRANCH  10  21
HETATM   21  O1  UNL     1     -28.247  10.152 -17.323  1.00  0.00    -0.395 OA
ATOM     22  H1  UNL     1     -29.071   9.743 -17.084  1.00  0.00     0.210 HD
ENDBRANCH  10  21
TORSDOF 2
ENDMDL
MODEL 5
REMARK VINA RESULT: -5.767562585      1.898      3.197
REMARK  2 active torsions:
REMARK  status: ('A' for Active; 'I' for Inactive)
REMARK    1  A    between atoms: C2_2  and  N1_4 
REMARK    2  A    between atoms: C12_13  and  O1_14 
ROOT
HETATM    1  N1  UNL     1     -25.972   8.168 -16.450  1.00  0.00    -0.387 N 
HETATM    2  C4  UNL     1     -25.803   8.989 -15.310  1.00  0.00     0.120 C 
HETATM    3  C5  UNL     1     -24.750   8.597 -14.329  1.00  0.00     0.029 C 
HETATM    4  C6  UNL     1     -23.681   7.686 -14.858  1.00  0.00    -0.030 A 
HETATM    5  C7  UNL     1     -23.450   6.307 -14.429  1.00  0.00     0.016 A 
HETATM    6  C8  UNL     1     -24.386   6.527 -15.472  1.00  0.00     0.008 A 
HETATM    7  C9  UNL     1     -24.162   6.692 -16.954  1.00  0.00     0.009 C 
HETATM    8  C10 UNL     1     -24.675   5.498 -17.745  1.00  0.00     0.017 C 
HETATM    9  C11 UNL     1     -23.719   5.318 -18.910  1.00  0.00     0.033 C 
HETATM   10  C12 UNL     1     -22.452   6.065 -18.565  1.00  0.00     0.123 C 
HETATM   11  C13 UNL     1     -22.704   6.505 -17.170  1.00  0.00     0.027 C 
HETATM   12  C14 UNL     1     -21.844   7.564 -16.615  1.00  0.00     0.013 C 
HETATM   13  C15 UNL     1     -22.606   8.345 -15.596  1.00  0.00    -0.005 C 
HETATM   14  C16 UNL     1     -23.099   9.576 -16.294  1.00  0.00     0.009 C 
HETATM   15  C17 UNL     1     -24.036   9.211 -17.365  1.00  0.00     0.049 C 
HETATM   16  C18 UNL     1     -24.825   7.964 -17.283  1.00  0.00     0.115 C 
HETATM   17 CL1  UNL     1     -25.502   7.747 -18.938  1.00  0.00    -0.095 Cl
ENDROOT
BRANCH   1  18
HETATM   18  C2  UNL     1     -27.249   8.120 -17.018  1.00  0.00     0.072 C 
HETATM   19  C1  UNL     1     -28.052   6.925 -16.467  1.00  0.00     0.031 C 
HETATM   20  C3  UNL     1     -28.129   9.308 -16.890  1.00  0.00     0.031 C 
ENDBRANCH   1  18
BRANCH  10  21
HETATM   21  O1  UNL     1     -22.117   7.036 -19.462  1.00  0.00    -0.395 OA
ATOM     22  H1  UNL     1     -21.964   6.714 -20.343  1.00  0.00     0.210 HD
ENDBRANCH  10  21
TORSDOF 2
ENDMDL
