MODEL 1
REMARK VINA RESULT: -6.185876880      0.000      0.000
REMARK  10 active torsions:
REMARK  status: ('A' for Active; 'I' for Inactive)
REMARK    1  A    between atoms: O1_2  and  C2_3 
REMARK    2  A    between atoms: C3_4  and  C4_5 
REMARK    3  A    between atoms: C5_6  and  C6_7 
REMARK    4  A    between atoms: C6_7  and  O2_8 
REMARK    5  A    between atoms: C6_7  and  O3_10 
REMARK    6  A    between atoms: C6_7  and  C7_12 
REMARK    7  A    between atoms: C7_12  and  C8_13 
REMARK    8  A    between atoms: C8_13  and  C9_14 
REMARK    9  A    between atoms: C9_14  and  C10_15 
REMARK   10  A    between atoms: C11_16  and  C12_17 
ROOT
HETATM    1  C6  UNL     1     -23.037   5.577 -17.129  1.00  0.00     0.228 C 
ENDROOT
BRANCH   1   2
HETATM    2  C5  UNL     1     -23.662   6.097 -15.930  1.00  0.00    -0.033 C 
HETATM    3  C4  UNL     1     -24.201   6.525 -14.936  1.00  0.00    -0.059 C 
BRANCH   3   4
HETATM    4  C3  UNL     1     -24.868   7.031 -13.760  1.00  0.00     0.052 A 
HETATM    5  C2  UNL     1     -25.313   8.328 -13.650  1.00  0.00     0.098 A 
HETATM    6  C25 UNL     1     -25.950   8.798 -12.517  1.00  0.00     0.009 A 
HETATM    7  C20 UNL     1     -26.161   7.962 -11.442  1.00  0.00    -0.023 A 
HETATM    8  C24 UNL     1     -26.381  10.104 -12.444  1.00  0.00     0.015 A 
HETATM    9  C19 UNL     1     -25.723   6.660 -11.535  1.00  0.00     0.014 A 
HETATM   10  C21 UNL     1     -26.804   8.427 -10.293  1.00  0.00     0.012 A 
HETATM   11  C18 UNL     1     -25.088   6.197 -12.667  1.00  0.00     0.024 A 
HETATM   12  C22 UNL     1     -27.242   9.732 -10.204  1.00  0.00     0.001 A 
HETATM   13  C23 UNL     1     -27.019  10.550 -11.292  1.00  0.00     0.001 A 
BRANCH   5  14
HETATM   14  O1  UNL     1     -25.101   9.191 -14.742  1.00  0.00    -0.354 OA
HETATM   15  C1  UNL     1     -23.894   9.968 -14.752  1.00  0.00     0.210 C 
ENDBRANCH   5  14
ENDBRANCH   3   4
ENDBRANCH   1   2
BRANCH   1  16
HETATM   16  O2  UNL     1     -23.187   6.456 -18.219  1.00  0.00    -0.355 OA
ATOM     17  H2  UNL     1     -23.950   7.012 -18.119  1.00  0.00     0.214 HD
ENDBRANCH   1  16
BRANCH   1  18
HETATM   18  O3  UNL     1     -21.687   5.420 -16.920  1.00  0.00    -0.355 OA
ATOM     19  H3  UNL     1     -21.275   6.271 -16.830  1.00  0.00     0.214 HD
ENDBRANCH   1  18
BRANCH   1  20
HETATM   20  C7  UNL     1     -23.718   4.284 -17.526  1.00  0.00     0.084 C 
BRANCH  20  21
HETATM   21  C8  UNL     1     -25.183   4.542 -17.852  1.00  0.00     0.018 C 
BRANCH  21  22
HETATM   22  C9  UNL     1     -25.988   3.455 -17.171  1.00  0.00     0.094 C 
BRANCH  22  23
HETATM   23  C10 UNL     1     -26.760   4.041 -16.076  1.00  0.00    -0.101 C 
HETATM   24  C11 UNL     1     -27.382   4.539 -15.162  1.00  0.00    -0.066 C 
BRANCH  24  25
HETATM   25  C12 UNL     1     -28.103   5.141 -14.064  1.00  0.00     0.036 A 
HETATM   26  C13 UNL     1     -28.512   6.460 -14.079  1.00  0.00     0.065 A 
HETATM   27  C14 UNL     1     -29.199   6.992 -13.008  1.00  0.00     0.133 A 
HETATM   28  F1  UNL     1     -29.597   8.287 -13.031  1.00  0.00    -0.205 F 
HETATM   29  C15 UNL     1     -29.493   6.229 -11.901  1.00  0.00     0.132 A 
HETATM   30  N1  UNL     1     -29.094   4.945 -11.887  1.00  0.00    -0.366 N 
HETATM   31  C16 UNL     1     -29.419   4.162 -10.708  1.00  0.00     0.155 C 
HETATM   32  C17 UNL     1     -28.425   4.420 -12.929  1.00  0.00     0.110 A 
ENDBRANCH  24  25
ENDBRANCH  22  23
ENDBRANCH  21  22
ENDBRANCH  20  21
ENDBRANCH   1  20
TORSDOF 10
ENDMDL
MODEL 2
REMARK VINA RESULT: -6.109509949      3.678      8.348
REMARK  10 active torsions:
REMARK  status: ('A' for Active; 'I' for Inactive)
REMARK    1  A    between atoms: O1_2  and  C2_3 
REMARK    2  A    between atoms: C3_4  and  C4_5 
REMARK    3  A    between atoms: C5_6  and  C6_7 
REMARK    4  A    between atoms: C6_7  and  O2_8 
REMARK    5  A    between atoms: C6_7  and  O3_10 
REMARK    6  A    between atoms: C6_7  and  C7_12 
REMARK    7  A    between atoms: C7_12  and  C8_13 
REMARK    8  A    between atoms: C8_13  and  C9_14 
REMARK    9  A    between atoms: C9_14  and  C10_15 
REMARK   10  A    between atoms: C11_16  and  C12_17 
ROOT
HETATM    1  C6  UNL     1     -23.273   6.798 -15.458  1.00  0.00     0.228 C 
ENDROOT
BRANCH   1   2
HETATM    2  C5  UNL     1     -22.470   5.923 -16.288  1.00  0.00    -0.033 C 
HETATM    3  C4  UNL     1     -21.812   5.198 -16.998  1.00  0.00    -0.059 C 
BRANCH   3   4
HETATM    4  C3  UNL     1     -21.042   4.336 -17.863  1.00  0.00     0.052 A 
HETATM    5  C2  UNL     1     -21.496   3.111 -18.297  1.00  0.00     0.098 A 
HETATM    6  C25 UNL     1     -20.748   2.297 -19.125  1.00  0.00     0.009 A 
HETATM    7  C20 UNL     1     -19.499   2.697 -19.549  1.00  0.00    -0.023 A 
HETATM    8  C24 UNL     1     -21.237   1.077 -19.539  1.00  0.00     0.015 A 
HETATM    9  C19 UNL     1     -19.029   3.919 -19.125  1.00  0.00     0.014 A 
HETATM   10  C21 UNL     1     -18.736   1.881 -20.386  1.00  0.00     0.012 A 
HETATM   11  C18 UNL     1     -19.779   4.728 -18.298  1.00  0.00     0.024 A 
HETATM   12  C22 UNL     1     -19.210   0.656 -20.810  1.00  0.00     0.001 A 
HETATM   13  C23 UNL     1     -20.463   0.278 -20.372  1.00  0.00     0.001 A 
BRANCH   5  14
HETATM   14  O1  UNL     1     -22.770   2.693 -17.869  1.00  0.00    -0.354 OA
HETATM   15  C1  UNL     1     -23.898   3.062 -18.677  1.00  0.00     0.210 C 
ENDBRANCH   5  14
ENDBRANCH   3   4
ENDBRANCH   1   2
BRANCH   1  16
HETATM   16  O2  UNL     1     -23.255   8.125 -15.928  1.00  0.00    -0.355 OA
ATOM     17  H2  UNL     1     -23.595   8.189 -16.813  1.00  0.00     0.214 HD
ENDBRANCH   1  16
BRANCH   1  18
HETATM   18  O3  UNL     1     -24.584   6.381 -15.476  1.00  0.00    -0.355 OA
ATOM     19  H3  UNL     1     -24.755   5.827 -14.724  1.00  0.00     0.214 HD
ENDBRANCH   1  18
BRANCH   1  20
HETATM   20  C7  UNL     1     -22.693   6.831 -14.060  1.00  0.00     0.084 C 
BRANCH  20  21
HETATM   21  C8  UNL     1     -23.104   8.115 -13.352  1.00  0.00     0.018 C 
BRANCH  21  22
HETATM   22  C9  UNL     1     -24.391   7.822 -12.610  1.00  0.00     0.094 C 
BRANCH  22  23
HETATM   23  C10 UNL     1     -25.286   8.973 -12.724  1.00  0.00    -0.101 C 
HETATM   24  C11 UNL     1     -26.030   9.928 -12.796  1.00  0.00    -0.066 C 
BRANCH  24  25
HETATM   25  C12 UNL     1     -26.922  11.062 -12.859  1.00  0.00     0.036 A 
HETATM   26  C13 UNL     1     -27.017  11.871 -13.975  1.00  0.00     0.065 A 
HETATM   27  C14 UNL     1     -27.884  12.943 -13.991  1.00  0.00     0.133 A 
HETATM   28  F1  UNL     1     -27.971  13.731 -15.090  1.00  0.00    -0.205 F 
HETATM   29  C15 UNL     1     -28.673  13.236 -12.902  1.00  0.00     0.132 A 
HETATM   30  N1  UNL     1     -28.581  12.449 -11.817  1.00  0.00    -0.366 N 
HETATM   31  C16 UNL     1     -29.425  12.780 -10.683  1.00  0.00     0.155 C 
HETATM   32  C17 UNL     1     -27.738  11.402 -11.795  1.00  0.00     0.110 A 
ENDBRANCH  24  25
ENDBRANCH  22  23
ENDBRANCH  21  22
ENDBRANCH  20  21
ENDBRANCH   1  20
TORSDOF 10
ENDMDL
MODEL 3
REMARK VINA RESULT: -6.084276949      2.768      4.449
REMARK  10 active torsions:
REMARK  status: ('A' for Active; 'I' for Inactive)
REMARK    1  A    between atoms: O1_2  and  C2_3 
REMARK    2  A    between atoms: C3_4  and  C4_5 
REMARK    3  A    between atoms: C5_6  and  C6_7 
REMARK    4  A    between atoms: C6_7  and  O2_8 
REMARK    5  A    between atoms: C6_7  and  O3_10 
REMARK    6  A    between atoms: C6_7  and  C7_12 
REMARK    7  A    between atoms: C7_12  and  C8_13 
REMARK    8  A    between atoms: C8_13  and  C9_14 
REMARK    9  A    between atoms: C9_14  and  C10_15 
REMARK   10  A    between atoms: C11_16  and  C12_17 
ROOT
HETATM    1  C6  UNL     1     -25.936   4.023 -17.371  1.00  0.00     0.228 C 
ENDROOT
BRANCH   1   2
HETATM    2  C5  UNL     1     -26.033   4.837 -16.176  1.00  0.00    -0.033 C 
HETATM    3  C4  UNL     1     -26.132   5.508 -15.175  1.00  0.00    -0.059 C 
BRANCH   3   4
HETATM    4  C3  UNL     1     -26.274   6.299 -13.976  1.00  0.00     0.052 A 
HETATM    5  C2  UNL     1     -27.168   7.340 -13.866  1.00  0.00     0.098 A 
HETATM    6  C25 UNL     1     -27.293   8.089 -12.712  1.00  0.00     0.009 A 
HETATM    7  C20 UNL     1     -26.507   7.808 -11.614  1.00  0.00    -0.023 A 
HETATM    8  C24 UNL     1     -28.199   9.123 -12.639  1.00  0.00     0.015 A 
HETATM    9  C19 UNL     1     -25.607   6.770 -11.707  1.00  0.00     0.014 A 
HETATM   10  C21 UNL     1     -26.625   8.559 -10.443  1.00  0.00     0.012 A 
HETATM   11  C18 UNL     1     -25.487   6.027 -12.860  1.00  0.00     0.024 A 
HETATM   12  C22 UNL     1     -27.528   9.599 -10.354  1.00  0.00     0.001 A 
HETATM   13  C23 UNL     1     -28.303   9.860 -11.465  1.00  0.00     0.001 A 
BRANCH   5  14
HETATM   14  O1  UNL     1     -27.974   7.634 -14.982  1.00  0.00    -0.354 OA
HETATM   15  C1  UNL     1     -27.462   8.567 -15.945  1.00  0.00     0.210 C 
ENDBRANCH   5  14
ENDBRANCH   3   4
ENDBRANCH   1   2
BRANCH   1  16
HETATM   16  O2  UNL     1     -25.828   2.654 -17.061  1.00  0.00    -0.355 OA
ATOM     17  H2  UNL     1     -26.512   2.144 -17.478  1.00  0.00     0.214 HD
ENDBRANCH   1  16
BRANCH   1  18
HETATM   18  O3  UNL     1     -27.072   4.176 -18.131  1.00  0.00    -0.355 OA
ATOM     19  H3  UNL     1     -26.833   4.379 -19.028  1.00  0.00     0.214 HD
ENDBRANCH   1  18
BRANCH   1  20
HETATM   20  C7  UNL     1     -24.677   4.392 -18.126  1.00  0.00     0.084 C 
BRANCH  20  21
HETATM   21  C8  UNL     1     -23.564   3.404 -17.803  1.00  0.00     0.018 C 
BRANCH  21  22
HETATM   22  C9  UNL     1     -22.273   4.193 -17.739  1.00  0.00     0.094 C 
BRANCH  22  23
HETATM   23  C10 UNL     1     -22.432   5.300 -16.796  1.00  0.00    -0.101 C 
HETATM   24  C11 UNL     1     -22.556   6.232 -16.030  1.00  0.00    -0.066 C 
BRANCH  24  25
HETATM   25  C12 UNL     1     -22.691   7.355 -15.132  1.00  0.00     0.036 A 
HETATM   26  C13 UNL     1     -23.759   8.230 -15.192  1.00  0.00     0.065 A 
HETATM   27  C14 UNL     1     -23.847   9.288 -14.314  1.00  0.00     0.133 A 
HETATM   28  F1  UNL     1     -24.899  10.141 -14.380  1.00  0.00    -0.205 F 
HETATM   29  C15 UNL     1     -22.880   9.503 -13.359  1.00  0.00     0.132 A 
HETATM   30  N1  UNL     1     -21.841   8.652 -13.300  1.00  0.00    -0.366 N 
HETATM   31  C16 UNL     1     -20.835   8.901 -12.283  1.00  0.00     0.155 C 
HETATM   32  C17 UNL     1     -21.750   7.617 -14.154  1.00  0.00     0.110 A 
ENDBRANCH  24  25
ENDBRANCH  22  23
ENDBRANCH  21  22
ENDBRANCH  20  21
ENDBRANCH   1  20
TORSDOF 10
ENDMDL
MODEL 4
REMARK VINA RESULT: -6.054650172      4.564      7.017
REMARK  10 active torsions:
REMARK  status: ('A' for Active; 'I' for Inactive)
REMARK    1  A    between atoms: O1_2  and  C2_3 
REMARK    2  A    between atoms: C3_4  and  C4_5 
REMARK    3  A    between atoms: C5_6  and  C6_7 
REMARK    4  A    between atoms: C6_7  and  O2_8 
REMARK    5  A    between atoms: C6_7  and  O3_10 
REMARK    6  A    between atoms: C6_7  and  C7_12 
REMARK    7  A    between atoms: C7_12  and  C8_13 
REMARK    8  A    between atoms: C8_13  and  C9_14 
REMARK    9  A    between atoms: C9_14  and  C10_15 
REMARK   10  A    between atoms: C11_16  and  C12_17 
ROOT
HETATM    1  C6  UNL     1     -26.879   4.588 -19.523  1.00  0.00     0.228 C 
ENDROOT
BRANCH   1   2
HETATM    2  C5  UNL     1     -26.003   5.205 -18.548  1.00  0.00    -0.033 C 
HETATM    3  C4  UNL     1     -25.264   5.702 -17.730  1.00  0.00    -0.059 C 
BRANCH   3   4
HETATM    4  C3  UNL     1     -24.373   6.271 -16.747  1.00  0.00     0.052 A 
HETATM    5  C2  UNL     1     -24.652   7.436 -16.069  1.00  0.00     0.098 A 
HETATM    6  C25 UNL     1     -23.789   7.970 -15.130  1.00  0.00     0.009 A 
HETATM    7  C20 UNL     1     -22.599   7.336 -14.841  1.00  0.00    -0.023 A 
HETATM    8  C24 UNL     1     -24.102   9.138 -14.471  1.00  0.00     0.015 A 
HETATM    9  C19 UNL     1     -22.305   6.169 -15.510  1.00  0.00     0.014 A 
HETATM   10  C21 UNL     1     -21.721   7.866 -13.894  1.00  0.00     0.012 A 
HETATM   11  C18 UNL     1     -23.169   5.642 -16.445  1.00  0.00     0.024 A 
HETATM   12  C22 UNL     1     -22.020   9.036 -13.226  1.00  0.00     0.001 A 
HETATM   13  C23 UNL     1     -23.216   9.652 -13.532  1.00  0.00     0.001 A 
BRANCH   5  14
HETATM   14  O1  UNL     1     -25.864   8.091 -16.357  1.00  0.00    -0.354 OA
HETATM   15  C1  UNL     1     -27.012   7.743 -15.570  1.00  0.00     0.210 C 
ENDBRANCH   5  14
ENDBRANCH   3   4
ENDBRANCH   1   2
BRANCH   1  16
HETATM   16  O2  UNL     1     -27.995   5.398 -19.809  1.00  0.00    -0.355 OA
ATOM     17  H2  UNL     1     -27.789   6.322 -19.723  1.00  0.00     0.214 HD
ENDBRANCH   1  16
BRANCH   1  18
HETATM   18  O3  UNL     1     -26.201   4.404 -20.706  1.00  0.00    -0.355 OA
ATOM     19  H3  UNL     1     -26.497   5.038 -21.348  1.00  0.00     0.214 HD
ENDBRANCH   1  18
BRANCH   1  20
HETATM   20  C7  UNL     1     -27.423   3.294 -18.957  1.00  0.00     0.084 C 
BRANCH  20  21
HETATM   21  C8  UNL     1     -26.566   2.121 -19.416  1.00  0.00     0.018 C 
BRANCH  21  22
HETATM   22  C9  UNL     1     -25.780   1.647 -18.212  1.00  0.00     0.094 C 
BRANCH  22  23
HETATM   23  C10 UNL     1     -24.373   2.010 -18.382  1.00  0.00    -0.101 C 
HETATM   24  C11 UNL     1     -23.209   2.310 -18.544  1.00  0.00    -0.066 C 
BRANCH  24  25
HETATM   25  C12 UNL     1     -21.824   2.658 -18.761  1.00  0.00     0.036 A 
HETATM   26  C13 UNL     1     -21.178   3.627 -18.018  1.00  0.00     0.065 A 
HETATM   27  C14 UNL     1     -19.854   3.927 -18.258  1.00  0.00     0.133 A 
HETATM   28  F1  UNL     1     -19.227   4.878 -17.525  1.00  0.00    -0.205 F 
HETATM   29  C15 UNL     1     -19.144   3.274 -19.240  1.00  0.00     0.132 A 
HETATM   30  N1  UNL     1     -19.773   2.332 -19.964  1.00  0.00    -0.366 N 
HETATM   31  C16 UNL     1     -19.001   1.658 -20.992  1.00  0.00     0.155 C 
HETATM   32  C17 UNL     1     -21.064   2.034 -19.733  1.00  0.00     0.110 A 
ENDBRANCH  24  25
ENDBRANCH  22  23
ENDBRANCH  21  22
ENDBRANCH  20  21
ENDBRANCH   1  20
TORSDOF 10
ENDMDL
MODEL 5
REMARK VINA RESULT: -6.036921923      1.007      1.494
REMARK  10 active torsions:
REMARK  status: ('A' for Active; 'I' for Inactive)
REMARK    1  A    between atoms: O1_2  and  C2_3 
REMARK    2  A    between atoms: C3_4  and  C4_5 
REMARK    3  A    between atoms: C5_6  and  C6_7 
REMARK    4  A    between atoms: C6_7  and  O2_8 
REMARK    5  A    between atoms: C6_7  and  O3_10 
REMARK    6  A    between atoms: C6_7  and  C7_12 
REMARK    7  A    between atoms: C7_12  and  C8_13 
REMARK    8  A    between atoms: C8_13  and  C9_14 
REMARK    9  A    between atoms: C9_14  and  C10_15 
REMARK   10  A    between atoms: C11_16  and  C12_17 
ROOT
HETATM    1  C6  UNL     1     -23.016   5.602 -17.139  1.00  0.00     0.228 C 
ENDROOT
BRANCH   1   2
HETATM    2  C5  UNL     1     -23.645   6.123 -15.942  1.00  0.00    -0.033 C 
HETATM    3  C4  UNL     1     -24.188   6.548 -14.949  1.00  0.00    -0.059 C 
BRANCH   3   4
HETATM    4  C3  UNL     1     -24.857   7.046 -13.771  1.00  0.00     0.052 A 
HETATM    5  C2  UNL     1     -25.308   8.341 -13.657  1.00  0.00     0.098 A 
HETATM    6  C25 UNL     1     -25.948   8.803 -12.523  1.00  0.00     0.009 A 
HETATM    7  C20 UNL     1     -26.156   7.961 -11.451  1.00  0.00    -0.023 A 
HETATM    8  C24 UNL     1     -26.386  10.107 -12.444  1.00  0.00     0.015 A 
HETATM    9  C19 UNL     1     -25.711   6.662 -11.548  1.00  0.00     0.014 A 
HETATM   10  C21 UNL     1     -26.801   8.419 -10.300  1.00  0.00     0.012 A 
HETATM   11  C18 UNL     1     -25.074   6.206 -12.682  1.00  0.00     0.024 A 
HETATM   12  C22 UNL     1     -27.246   9.722 -10.206  1.00  0.00     0.001 A 
HETATM   13  C23 UNL     1     -27.026  10.546 -11.291  1.00  0.00     0.001 A 
BRANCH   5  14
HETATM   14  O1  UNL     1     -25.100   9.209 -14.745  1.00  0.00    -0.354 OA
HETATM   15  C1  UNL     1     -23.908  10.008 -14.740  1.00  0.00     0.210 C 
ENDBRANCH   5  14
ENDBRANCH   3   4
ENDBRANCH   1   2
BRANCH   1  16
HETATM   16  O2  UNL     1     -23.152   6.485 -18.227  1.00  0.00    -0.355 OA
ATOM     17  H2  UNL     1     -23.273   6.019 -19.046  1.00  0.00     0.214 HD
ENDBRANCH   1  16
BRANCH   1  18
HETATM   18  O3  UNL     1     -21.668   5.435 -16.921  1.00  0.00    -0.355 OA
ATOM     19  H3  UNL     1     -21.301   6.230 -16.552  1.00  0.00     0.214 HD
ENDBRANCH   1  18
BRANCH   1  20
HETATM   20  C7  UNL     1     -23.702   4.315 -17.544  1.00  0.00     0.084 C 
BRANCH  20  21
HETATM   21  C8  UNL     1     -25.158   4.587 -17.899  1.00  0.00     0.018 C 
BRANCH  21  22
HETATM   22  C9  UNL     1     -25.986   3.499 -17.248  1.00  0.00     0.094 C 
BRANCH  22  23
HETATM   23  C10 UNL     1     -26.712   4.062 -16.110  1.00  0.00    -0.101 C 
HETATM   24  C11 UNL     1     -27.326   4.541 -15.180  1.00  0.00    -0.066 C 
BRANCH  24  25
HETATM   25  C12 UNL     1     -28.063   5.130 -14.087  1.00  0.00     0.036 A 
HETATM   26  C13 UNL     1     -28.364   4.433 -12.933  1.00  0.00     0.065 A 
HETATM   27  C14 UNL     1     -29.070   5.036 -11.915  1.00  0.00     0.133 A 
HETATM   28  F1  UNL     1     -29.360   4.344 -10.785  1.00  0.00    -0.205 F 
HETATM   29  C15 UNL     1     -29.494   6.342 -12.018  1.00  0.00     0.132 A 
HETATM   30  N1  UNL     1     -29.201   7.020 -13.141  1.00  0.00    -0.366 N 
HETATM   31  C16 UNL     1     -29.659   8.395 -13.224  1.00  0.00     0.155 C 
HETATM   32  C17 UNL     1     -28.512   6.437 -14.138  1.00  0.00     0.110 A 
ENDBRANCH  24  25
ENDBRANCH  22  23
ENDBRANCH  21  22
ENDBRANCH  20  21
ENDBRANCH   1  20
TORSDOF 10
ENDMDL
