MODEL 1
REMARK VINA RESULT: -6.729700690      0.000      0.000
REMARK  10 active torsions:
REMARK  status: ('A' for Active; 'I' for Inactive)
REMARK    1  A    between atoms: C2_2  and  C3_3 
REMARK    2  A    between atoms: C3_3  and  C4_4 
REMARK    3  A    between atoms: C4_4  and  C5_5 
REMARK    4  A    between atoms: N1_9  and  C9_10 
REMARK    5  A    between atoms: C9_10  and  C10_11 
REMARK    6  A    between atoms: C10_11  and  C11_12 
REMARK    7  A    between atoms: C11_12  and  O1_13 
REMARK    8  A    between atoms: O1_13  and  C12_14 
REMARK    9  A    between atoms: C15_17  and  C16_18 
REMARK   10  A    between atoms: C16_18  and  C17_19 
ROOT
HETATM    1  C12 UNL     1     -20.529   7.353  49.957  1.00  0.00     0.142 A 
HETATM    2  C13 UNL     1     -20.352   7.051  48.625  1.00  0.00     0.058 A 
HETATM    3  C14 UNL     1     -21.585   7.213  48.027  1.00  0.00     0.034 A 
HETATM    4  C15 UNL     1     -22.513   7.607  48.963  1.00  0.00     0.035 A 
HETATM    5  N5  UNL     1     -21.845   7.682  50.113  1.00  0.00    -0.337 N 
ATOM      6  H5  UNL     1     -22.265   7.952  51.002  1.00  0.00     0.168 HD
ENDROOT
BRANCH   1   7
HETATM    7  O1  UNL     1     -19.609   7.348  50.988  1.00  0.00    -0.336 OA
BRANCH   7   8
HETATM    8  C11 UNL     1     -19.360   8.343  51.920  1.00  0.00     0.179 C 
BRANCH   8   9
HETATM    9  C10 UNL     1     -18.457   9.449  51.489  1.00  0.00     0.048 C 
BRANCH   9  10
HETATM   10  C9  UNL     1     -19.220  10.679  51.037  1.00  0.00     0.150 C 
BRANCH  10  11
HETATM   11  N1  UNL     1     -19.475  10.643  49.617  1.00  0.00    -0.302 N 
HETATM   12  C8  UNL     1     -20.697  10.840  49.082  1.00  0.00     0.124 A 
HETATM   13  C7  UNL     1     -20.588  10.737  47.701  1.00  0.00     0.012 A 
HETATM   14  C6  UNL     1     -21.495  10.843  46.649  1.00  0.00     0.040 A 
HETATM   15  C25 UNL     1     -19.265  10.474  47.430  1.00  0.00     0.075 A 
HETATM   16  C5  UNL     1     -21.116  10.694  45.323  1.00  0.00     0.011 A 
HETATM   17  N7  UNL     1     -19.816  10.437  45.095  1.00  0.00    -0.362 N 
HETATM   18  C26 UNL     1     -18.908  10.328  46.110  1.00  0.00     0.122 A 
HETATM   19  C27 UNL     1     -19.368  10.266  43.733  1.00  0.00     0.155 C 
HETATM   20  N6  UNL     1     -18.634  10.427  48.619  1.00  0.00    -0.297 N 
ATOM     21  H6  UNL     1     -17.637  10.248  48.736  1.00  0.00     0.187 HD
BRANCH  16  22
HETATM   22  C4  UNL     1     -22.072  10.812  44.220  1.00  0.00     0.057 C 
BRANCH  22  23
HETATM   23  C3  UNL     1     -22.668  12.162  44.020  1.00  0.00     0.006 C 
BRANCH  23  24
HETATM   24  C2  UNL     1     -24.099  12.322  44.390  1.00  0.00    -0.004 C 
HETATM   25  C1  UNL     1     -24.533  13.772  44.384  1.00  0.00     0.005 C 
ENDBRANCH  23  24
ENDBRANCH  22  23
ENDBRANCH  16  22
ENDBRANCH  10  11
ENDBRANCH   9  10
ENDBRANCH   8   9
ENDBRANCH   7   8
ENDBRANCH   1   7
BRANCH   4  26
HETATM   26  C16 UNL     1     -23.927   7.880  48.730  1.00  0.00     0.048 C 
BRANCH  26  27
HETATM   27  C17 UNL     1     -24.739   8.352  49.649  1.00  0.00     0.050 A 
HETATM   28  C18 UNL     1     -25.504   7.571  50.491  1.00  0.00     0.106 A 
HETATM   29  N2  UNL     1     -26.304   8.160  51.398  1.00  0.00    -0.350 N 
HETATM   30  C19 UNL     1     -26.409   9.504  51.541  1.00  0.00     0.123 A 
ATOM     31  H2  UNL     1     -26.862   7.563  52.011  1.00  0.00     0.166 HD
HETATM   32  C20 UNL     1     -27.226   9.957  52.466  1.00  0.00     0.077 A 
HETATM   33  N4  UNL     1     -25.690  10.275  50.752  1.00  0.00    -0.308 N 
HETATM   34  C21 UNL     1     -28.053   9.122  53.373  1.00  0.00     0.038 A 
HETATM   35  C23 UNL     1     -27.550  11.316  52.856  1.00  0.00     0.259 A 
HETATM   36  C22 UNL     1     -28.759   9.875  54.178  1.00  0.00     0.092 A 
HETATM   37  N3  UNL     1     -28.513  11.244  53.932  1.00  0.00    -0.333 N 
ATOM     38  H3  UNL     1     -28.935  12.032  54.421  1.00  0.00     0.168 HD
HETATM   39  O2  UNL     1     -27.108  12.387  52.383  1.00  0.00    -0.267 OA
HETATM   40  C24 UNL     1     -24.863   9.713  49.815  1.00  0.00     0.258 A 
ATOM     41  H4  UNL     1     -25.749  11.289  50.838  1.00  0.00     0.170 HD
HETATM   42  O3  UNL     1     -24.192  10.497  49.080  1.00  0.00    -0.267 OA
ENDBRANCH  26  27
ENDBRANCH   4  26
TORSDOF 10
ENDMDL
MODEL 2
REMARK VINA RESULT: -6.564549880      4.835      7.309
REMARK  10 active torsions:
REMARK  status: ('A' for Active; 'I' for Inactive)
REMARK    1  A    between atoms: C2_2  and  C3_3 
REMARK    2  A    between atoms: C3_3  and  C4_4 
REMARK    3  A    between atoms: C4_4  and  C5_5 
REMARK    4  A    between atoms: N1_9  and  C9_10 
REMARK    5  A    between atoms: C9_10  and  C10_11 
REMARK    6  A    between atoms: C10_11  and  C11_12 
REMARK    7  A    between atoms: C11_12  and  O1_13 
REMARK    8  A    between atoms: O1_13  and  C12_14 
REMARK    9  A    between atoms: C15_17  and  C16_18 
REMARK   10  A    between atoms: C16_18  and  C17_19 
ROOT
HETATM    1  C12 UNL     1     -22.940  10.294  54.100  1.00  0.00     0.142 A 
HETATM    2  C13 UNL     1     -22.014   9.659  54.898  1.00  0.00     0.058 A 
HETATM    3  C14 UNL     1     -21.356  10.654  55.591  1.00  0.00     0.034 A 
HETATM    4  C15 UNL     1     -21.857  11.885  55.234  1.00  0.00     0.035 A 
HETATM    5  N5  UNL     1     -22.808  11.632  54.336  1.00  0.00    -0.337 N 
ATOM      6  H5  UNL     1     -23.371  12.351  53.881  1.00  0.00     0.168 HD
ENDROOT
BRANCH   1   7
HETATM    7  O1  UNL     1     -23.853   9.754  53.214  1.00  0.00    -0.336 OA
BRANCH   7   8
HETATM    8  C11 UNL     1     -24.429   8.494  53.237  1.00  0.00     0.179 C 
BRANCH   8   9
HETATM    9  C10 UNL     1     -25.087   8.039  51.978  1.00  0.00     0.048 C 
BRANCH   9  10
HETATM   10  C9  UNL     1     -25.600   9.195  51.141  1.00  0.00     0.150 C 
BRANCH  10  11
HETATM   11  N1  UNL     1     -24.643   9.571  50.128  1.00  0.00    -0.302 N 
HETATM   12  C8  UNL     1     -24.962   9.701  48.824  1.00  0.00     0.124 A 
HETATM   13  C7  UNL     1     -23.815  10.070  48.132  1.00  0.00     0.012 A 
HETATM   14  C6  UNL     1     -23.539  10.341  46.793  1.00  0.00     0.040 A 
HETATM   15  C25 UNL     1     -22.805  10.155  49.062  1.00  0.00     0.075 A 
HETATM   16  C5  UNL     1     -22.273  10.697  46.353  1.00  0.00     0.011 A 
HETATM   17  N7  UNL     1     -21.310  10.770  47.289  1.00  0.00    -0.362 N 
HETATM   18  C26 UNL     1     -21.556  10.509  48.607  1.00  0.00     0.122 A 
HETATM   19  C27 UNL     1     -19.972  11.130  46.884  1.00  0.00     0.155 C 
HETATM   20  N6  UNL     1     -23.355   9.845  50.252  1.00  0.00    -0.297 N 
ATOM     21  H6  UNL     1     -22.844   9.823  51.134  1.00  0.00     0.187 HD
BRANCH  16  22
HETATM   22  C4  UNL     1     -21.989  10.987  44.946  1.00  0.00     0.057 C 
BRANCH  22  23
HETATM   23  C3  UNL     1     -22.319  12.364  44.487  1.00  0.00     0.006 C 
BRANCH  23  24
HETATM   24  C2  UNL     1     -23.733  12.620  44.107  1.00  0.00    -0.004 C 
HETATM   25  C1  UNL     1     -24.347  13.747  44.909  1.00  0.00     0.005 C 
ENDBRANCH  23  24
ENDBRANCH  22  23
ENDBRANCH  16  22
ENDBRANCH  10  11
ENDBRANCH   9  10
ENDBRANCH   8   9
ENDBRANCH   7   8
ENDBRANCH   1   7
BRANCH   4  26
HETATM   26  C16 UNL     1     -21.427  13.183  55.741  1.00  0.00     0.048 C 
BRANCH  26  27
HETATM   27  C17 UNL     1     -21.013  14.165  54.971  1.00  0.00     0.050 A 
HETATM   28  C18 UNL     1     -20.126  14.017  53.926  1.00  0.00     0.106 A 
HETATM   29  N2  UNL     1     -19.768  15.092  53.201  1.00  0.00    -0.350 N 
HETATM   30  C19 UNL     1     -20.236  16.342  53.439  1.00  0.00     0.123 A 
ATOM     31  H2  UNL     1     -19.110  14.960  52.432  1.00  0.00     0.166 HD
HETATM   32  C20 UNL     1     -19.810  17.311  52.659  1.00  0.00     0.077 A 
HETATM   33  N4  UNL     1     -21.085  16.515  54.430  1.00  0.00    -0.308 N 
HETATM   34  C21 UNL     1     -18.854  17.159  51.534  1.00  0.00     0.038 A 
HETATM   35  C23 UNL     1     -20.121  18.728  52.658  1.00  0.00     0.259 A 
HETATM   36  C22 UNL     1     -18.633  18.312  50.955  1.00  0.00     0.092 A 
HETATM   37  N3  UNL     1     -19.373  19.339  51.582  1.00  0.00    -0.333 N 
ATOM     38  H3  UNL     1     -19.378  20.325  51.324  1.00  0.00     0.168 HD
HETATM   39  O2  UNL     1     -20.886  19.357  53.424  1.00  0.00    -0.267 OA
HETATM   40  C24 UNL     1     -21.474  15.444  55.192  1.00  0.00     0.258 A 
ATOM     41  H4  UNL     1     -21.453  17.444  54.631  1.00  0.00     0.170 HD
HETATM   42  O3  UNL     1     -22.293  15.660  56.133  1.00  0.00    -0.267 OA
ENDBRANCH  26  27
ENDBRANCH   4  26
TORSDOF 10
ENDMDL
MODEL 3
REMARK VINA RESULT: -6.471130839      2.719      8.711
REMARK  10 active torsions:
REMARK  status: ('A' for Active; 'I' for Inactive)
REMARK    1  A    between atoms: C2_2  and  C3_3 
REMARK    2  A    between atoms: C3_3  and  C4_4 
REMARK    3  A    between atoms: C4_4  and  C5_5 
REMARK    4  A    between atoms: N1_9  and  C9_10 
REMARK    5  A    between atoms: C9_10  and  C10_11 
REMARK    6  A    between atoms: C10_11  and  C11_12 
REMARK    7  A    between atoms: C11_12  and  O1_13 
REMARK    8  A    between atoms: O1_13  and  C12_14 
REMARK    9  A    between atoms: C15_17  and  C16_18 
REMARK   10  A    between atoms: C16_18  and  C17_19 
ROOT
HETATM    1  C12 UNL     1     -24.411   5.180  49.667  1.00  0.00     0.142 A 
HETATM    2  C13 UNL     1     -24.299   5.270  51.036  1.00  0.00     0.058 A 
HETATM    3  C14 UNL     1     -23.727   6.499  51.295  1.00  0.00     0.034 A 
HETATM    4  C15 UNL     1     -23.486   7.163  50.114  1.00  0.00     0.035 A 
HETATM    5  N5  UNL     1     -23.910   6.341  49.155  1.00  0.00    -0.337 N 
ATOM      6  H5  UNL     1     -23.865   6.555  48.158  1.00  0.00     0.168 HD
ENDROOT
BRANCH   1   7
HETATM    7  O1  UNL     1     -24.919   4.154  48.894  1.00  0.00    -0.336 OA
BRANCH   7   8
HETATM    8  C11 UNL     1     -26.231   3.948  48.496  1.00  0.00     0.179 C 
BRANCH   8   9
HETATM    9  C10 UNL     1     -27.204   5.032  48.818  1.00  0.00     0.048 C 
BRANCH   9  10
HETATM   10  C9  UNL     1     -27.986   4.752  50.086  1.00  0.00     0.150 C 
BRANCH  10  11
HETATM   11  N1  UNL     1     -27.902   5.860  51.007  1.00  0.00    -0.302 N 
HETATM   12  C8  UNL     1     -27.455   7.082  50.653  1.00  0.00     0.124 A 
HETATM   13  C7  UNL     1     -27.505   7.903  51.771  1.00  0.00     0.012 A 
HETATM   14  C6  UNL     1     -27.177   9.238  52.006  1.00  0.00     0.040 A 
HETATM   15  C25 UNL     1     -27.994   7.135  52.802  1.00  0.00     0.075 A 
HETATM   16  C5  UNL     1     -27.325   9.830  53.251  1.00  0.00     0.011 A 
HETATM   17  N7  UNL     1     -27.806   9.051  54.236  1.00  0.00    -0.362 N 
HETATM   18  C26 UNL     1     -28.134   7.740  54.029  1.00  0.00     0.122 A 
HETATM   19  C27 UNL     1     -27.974   9.616  55.553  1.00  0.00     0.155 C 
HETATM   20  N6  UNL     1     -28.219   5.910  52.291  1.00  0.00    -0.297 N 
ATOM     21  H6  UNL     1     -28.586   5.121  52.824  1.00  0.00     0.187 HD
BRANCH  16  22
HETATM   22  C4  UNL     1     -26.985  11.235  53.492  1.00  0.00     0.057 C 
BRANCH  22  23
HETATM   23  C3  UNL     1     -27.814  12.237  52.767  1.00  0.00     0.006 C 
BRANCH  23  24
HETATM   24  C2  UNL     1     -28.950  12.833  53.518  1.00  0.00    -0.004 C 
HETATM   25  C1  UNL     1     -30.173  11.941  53.510  1.00  0.00     0.005 C 
ENDBRANCH  23  24
ENDBRANCH  22  23
ENDBRANCH  16  22
ENDBRANCH  10  11
ENDBRANCH   9  10
ENDBRANCH   8   9
ENDBRANCH   7   8
ENDBRANCH   1   7
BRANCH   4  26
HETATM   26  C16 UNL     1     -22.891   8.486  49.961  1.00  0.00     0.048 C 
BRANCH  26  27
HETATM   27  C17 UNL     1     -22.778   9.105  48.808  1.00  0.00     0.050 A 
HETATM   28  C18 UNL     1     -21.862   8.774  47.830  1.00  0.00     0.106 A 
HETATM   29  N2  UNL     1     -21.832   9.477  46.683  1.00  0.00    -0.350 N 
HETATM   30  C19 UNL     1     -22.664  10.515  46.422  1.00  0.00     0.123 A 
ATOM     31  H2  UNL     1     -21.147   9.216  45.973  1.00  0.00     0.166 HD
HETATM   32  C20 UNL     1     -22.536  11.122  45.263  1.00  0.00     0.077 A 
HETATM   33  N4  UNL     1     -23.549  10.854  47.336  1.00  0.00    -0.308 N 
HETATM   34  C21 UNL     1     -21.552  10.772  44.207  1.00  0.00     0.038 A 
HETATM   35  C23 UNL     1     -23.264  12.243  44.698  1.00  0.00     0.259 A 
HETATM   36  C22 UNL     1     -21.680  11.566  43.175  1.00  0.00     0.092 A 
HETATM   37  N3  UNL     1     -22.712  12.506  43.388  1.00  0.00    -0.333 N 
ATOM     38  H3  UNL     1     -23.012  13.234  42.740  1.00  0.00     0.168 HD
HETATM   39  O2  UNL     1     -24.202  12.896  45.208  1.00  0.00    -0.267 OA
HETATM   40  C24 UNL     1     -23.611  10.162  48.518  1.00  0.00     0.258 A 
ATOM     41  H4  UNL     1     -24.188  11.630  47.165  1.00  0.00     0.170 HD
HETATM   42  O3  UNL     1     -24.480  10.525  49.365  1.00  0.00    -0.267 OA
ENDBRANCH  26  27
ENDBRANCH   4  26
TORSDOF 10
ENDMDL
MODEL 4
REMARK VINA RESULT: -6.460869861      3.090      8.323
REMARK  10 active torsions:
REMARK  status: ('A' for Active; 'I' for Inactive)
REMARK    1  A    between atoms: C2_2  and  C3_3 
REMARK    2  A    between atoms: C3_3  and  C4_4 
REMARK    3  A    between atoms: C4_4  and  C5_5 
REMARK    4  A    between atoms: N1_9  and  C9_10 
REMARK    5  A    between atoms: C9_10  and  C10_11 
REMARK    6  A    between atoms: C10_11  and  C11_12 
REMARK    7  A    between atoms: C11_12  and  O1_13 
REMARK    8  A    between atoms: O1_13  and  C12_14 
REMARK    9  A    between atoms: C15_17  and  C16_18 
REMARK   10  A    between atoms: C16_18  and  C17_19 
ROOT
HETATM    1  C12 UNL     1     -24.145   4.996  48.974  1.00  0.00     0.142 A 
HETATM    2  C13 UNL     1     -22.899   4.552  48.591  1.00  0.00     0.058 A 
HETATM    3  C14 UNL     1     -22.089   5.669  48.546  1.00  0.00     0.034 A 
HETATM    4  C15 UNL     1     -22.812   6.787  48.893  1.00  0.00     0.035 A 
HETATM    5  N5  UNL     1     -24.044   6.347  49.144  1.00  0.00    -0.337 N 
ATOM      6  H5  UNL     1     -24.818   6.947  49.430  1.00  0.00     0.168 HD
ENDROOT
BRANCH   1   7
HETATM    7  O1  UNL     1     -25.311   4.281  49.170  1.00  0.00    -0.336 OA
BRANCH   7   8
HETATM    8  C11 UNL     1     -26.407   4.179  48.327  1.00  0.00     0.179 C 
BRANCH   8   9
HETATM    9  C10 UNL     1     -27.599   5.002  48.682  1.00  0.00     0.048 C 
BRANCH   9  10
HETATM   10  C9  UNL     1     -27.986   4.865  50.142  1.00  0.00     0.150 C 
BRANCH  10  11
HETATM   11  N1  UNL     1     -27.518   5.990  50.914  1.00  0.00    -0.302 N 
HETATM   12  C8  UNL     1     -28.224   7.130  51.061  1.00  0.00     0.124 A 
HETATM   13  C7  UNL     1     -27.488   7.997  51.857  1.00  0.00     0.012 A 
HETATM   14  C6  UNL     1     -27.704   9.288  52.337  1.00  0.00     0.040 A 
HETATM   15  C25 UNL     1     -26.323   7.341  52.181  1.00  0.00     0.075 A 
HETATM   16  C5  UNL     1     -26.782   9.946  53.137  1.00  0.00     0.011 A 
HETATM   17  N7  UNL     1     -25.655   9.276  53.434  1.00  0.00    -0.362 N 
HETATM   18  C26 UNL     1     -25.421   8.010  52.975  1.00  0.00     0.122 A 
HETATM   19  C27 UNL     1     -24.658   9.918  54.257  1.00  0.00     0.155 C 
HETATM   20  N6  UNL     1     -26.388   6.133  51.588  1.00  0.00    -0.297 N 
ATOM     21  H6  UNL     1     -25.661   5.421  51.650  1.00  0.00     0.187 HD
BRANCH  16  22
HETATM   22  C4  UNL     1     -27.016  11.301  53.644  1.00  0.00     0.057 C 
BRANCH  22  23
HETATM   23  C3  UNL     1     -27.838  12.186  52.774  1.00  0.00     0.006 C 
BRANCH  23  24
HETATM   24  C2  UNL     1     -29.024  12.825  53.403  1.00  0.00    -0.004 C 
HETATM   25  C1  UNL     1     -30.103  11.820  53.743  1.00  0.00     0.005 C 
ENDBRANCH  23  24
ENDBRANCH  22  23
ENDBRANCH  16  22
ENDBRANCH  10  11
ENDBRANCH   9  10
ENDBRANCH   8   9
ENDBRANCH   7   8
ENDBRANCH   1   7
BRANCH   4  26
HETATM   26  C16 UNL     1     -22.319   8.158  48.964  1.00  0.00     0.048 C 
BRANCH  26  27
HETATM   27  C17 UNL     1     -22.606   9.083  48.076  1.00  0.00     0.050 A 
HETATM   28  C18 UNL     1     -23.676   9.948  48.167  1.00  0.00     0.106 A 
HETATM   29  N2  UNL     1     -23.878  10.860  47.197  1.00  0.00    -0.350 N 
HETATM   30  C19 UNL     1     -23.076  10.984  46.112  1.00  0.00     0.123 A 
ATOM     31  H2  UNL     1     -24.676  11.490  47.284  1.00  0.00     0.166 HD
HETATM   32  C20 UNL     1     -23.379  11.915  45.234  1.00  0.00     0.077 A 
HETATM   33  N4  UNL     1     -22.046  10.172  45.998  1.00  0.00    -0.308 N 
HETATM   34  C21 UNL     1     -24.530  12.848  45.325  1.00  0.00     0.038 A 
HETATM   35  C23 UNL     1     -22.728  12.290  43.993  1.00  0.00     0.259 A 
HETATM   36  C22 UNL     1     -24.555  13.653  44.293  1.00  0.00     0.092 A 
HETATM   37  N3  UNL     1     -23.480  13.382  43.418  1.00  0.00    -0.333 N 
ATOM     38  H3  UNL     1     -23.274  13.866  42.544  1.00  0.00     0.168 HD
HETATM   39  O2  UNL     1     -21.703  11.794  43.471  1.00  0.00    -0.267 OA
HETATM   40  C24 UNL     1     -21.807   9.230  46.964  1.00  0.00     0.258 A 
ATOM     41  H4  UNL     1     -21.426  10.244  45.191  1.00  0.00     0.170 HD
HETATM   42  O3  UNL     1     -20.803   8.473  46.810  1.00  0.00    -0.267 OA
ENDBRANCH  26  27
ENDBRANCH   4  26
TORSDOF 10
ENDMDL
MODEL 5
REMARK VINA RESULT: -6.451650350      2.848      9.384
REMARK  10 active torsions:
REMARK  status: ('A' for Active; 'I' for Inactive)
REMARK    1  A    between atoms: C2_2  and  C3_3 
REMARK    2  A    between atoms: C3_3  and  C4_4 
REMARK    3  A    between atoms: C4_4  and  C5_5 
REMARK    4  A    between atoms: N1_9  and  C9_10 
REMARK    5  A    between atoms: C9_10  and  C10_11 
REMARK    6  A    between atoms: C10_11  and  C11_12 
REMARK    7  A    between atoms: C11_12  and  O1_13 
REMARK    8  A    between atoms: O1_13  and  C12_14 
REMARK    9  A    between atoms: C15_17  and  C16_18 
REMARK   10  A    between atoms: C16_18  and  C17_19 
ROOT
HETATM    1  C12 UNL     1     -26.281   5.941  48.563  1.00  0.00     0.142 A 
HETATM    2  C13 UNL     1     -25.294   5.040  48.894  1.00  0.00     0.058 A 
HETATM    3  C14 UNL     1     -24.197   5.789  49.266  1.00  0.00     0.034 A 
HETATM    4  C15 UNL     1     -24.490   7.130  49.169  1.00  0.00     0.035 A 
HETATM    5  N5  UNL     1     -25.751   7.186  48.744  1.00  0.00    -0.337 N 
ATOM      6  H5  UNL     1     -26.259   8.055  48.575  1.00  0.00     0.168 HD
ENDROOT
BRANCH   1   7
HETATM    7  O1  UNL     1     -27.572   5.710  48.128  1.00  0.00    -0.336 OA
BRANCH   7   8
HETATM    8  C11 UNL     1     -28.243   4.501  48.036  1.00  0.00     0.179 C 
BRANCH   8   9
HETATM    9  C10 UNL     1     -28.829   3.966  49.299  1.00  0.00     0.048 C 
BRANCH   9  10
HETATM   10  C9  UNL     1     -30.018   4.777  49.776  1.00  0.00     0.150 C 
BRANCH  10  11
HETATM   11  N1  UNL     1     -29.614   5.793  50.717  1.00  0.00    -0.302 N 
HETATM   12  C8  UNL     1     -30.438   6.768  51.152  1.00  0.00     0.124 A 
HETATM   13  C7  UNL     1     -29.734   7.568  52.041  1.00  0.00     0.012 A 
HETATM   14  C6  UNL     1     -30.057   8.699  52.789  1.00  0.00     0.040 A 
HETATM   15  C25 UNL     1     -28.465   7.042  52.124  1.00  0.00     0.075 A 
HETATM   16  C5  UNL     1     -29.142   9.323  53.624  1.00  0.00     0.011 A 
HETATM   17  N7  UNL     1     -27.913   8.783  53.681  1.00  0.00    -0.362 N 
HETATM   18  C26 UNL     1     -27.572   7.675  52.957  1.00  0.00     0.122 A 
HETATM   19  C27 UNL     1     -26.920   9.398  54.529  1.00  0.00     0.155 C 
HETATM   20  N6  UNL     1     -28.443   5.972  51.307  1.00  0.00    -0.297 N 
ATOM     21  H6  UNL     1     -27.628   5.375  51.161  1.00  0.00     0.187 HD
BRANCH  16  22
HETATM   22  C4  UNL     1     -29.489  10.508  54.413  1.00  0.00     0.057 C 
BRANCH  22  23
HETATM   23  C3  UNL     1     -30.076  11.645  53.652  1.00  0.00     0.006 C 
BRANCH  23  24
HETATM   24  C2  UNL     1     -29.212  12.839  53.462  1.00  0.00    -0.004 C 
HETATM   25  C1  UNL     1     -27.945  12.514  52.703  1.00  0.00     0.005 C 
ENDBRANCH  23  24
ENDBRANCH  22  23
ENDBRANCH  16  22
ENDBRANCH  10  11
ENDBRANCH   9  10
ENDBRANCH   8   9
ENDBRANCH   7   8
ENDBRANCH   1   7
BRANCH   4  26
HETATM   26  C16 UNL     1     -23.597   8.243  49.471  1.00  0.00     0.048 C 
BRANCH  26  27
HETATM   27  C17 UNL     1     -22.988   8.960  48.553  1.00  0.00     0.050 A 
HETATM   28  C18 UNL     1     -21.729   8.690  48.059  1.00  0.00     0.106 A 
HETATM   29  N2  UNL     1     -21.199   9.492  47.117  1.00  0.00    -0.350 N 
HETATM   30  C19 UNL     1     -21.841  10.574  46.611  1.00  0.00     0.123 A 
ATOM     31  H2  UNL     1     -20.266   9.274  46.765  1.00  0.00     0.166 HD
HETATM   32  C20 UNL     1     -21.216  11.279  45.693  1.00  0.00     0.077 A 
HETATM   33  N4  UNL     1     -23.045  10.856  47.063  1.00  0.00    -0.308 N 
HETATM   34  C21 UNL     1     -19.861  10.995  45.159  1.00  0.00     0.038 A 
HETATM   35  C23 UNL     1     -21.630  12.467  44.972  1.00  0.00     0.259 A 
HETATM   36  C22 UNL     1     -19.524  11.882  44.257  1.00  0.00     0.092 A 
HETATM   37  N3  UNL     1     -20.555  12.830  44.076  1.00  0.00    -0.333 N 
ATOM     38  H3  UNL     1     -20.544  13.622  43.433  1.00  0.00     0.168 HD
HETATM   39  O2  UNL     1     -22.706  13.101  45.069  1.00  0.00    -0.267 OA
HETATM   40  C24 UNL     1     -23.618  10.063  48.023  1.00  0.00     0.258 A 
ATOM     41  H4  UNL     1     -23.550  11.664  46.700  1.00  0.00     0.170 HD
HETATM   42  O3  UNL     1     -24.778  10.376  48.425  1.00  0.00    -0.267 OA
ENDBRANCH  26  27
ENDBRANCH   4  26
TORSDOF 10
ENDMDL
