MODEL 1
REMARK VINA RESULT: -9.781707892      0.000      0.000
REMARK  10 active torsions:
REMARK  status: ('A' for Active; 'I' for Inactive)
REMARK    1  A    between atoms: C2_2  and  O1_3 
REMARK    2  A    between atoms: O1_3  and  C3_4 
REMARK    3  A    between atoms: C3_4  and  C4_6 
REMARK    4  A    between atoms: C6_8  and  C7_9 
REMARK    5  A    between atoms: C7_9  and  C8_11 
REMARK    6  A    between atoms: C9_12  and  C10_13 
REMARK    7  A    between atoms: C12_15  and  O4_16 
REMARK    8  A    between atoms: C13_18  and  O5_19 
REMARK    9  A    between atoms: C14_21  and  O6_22 
REMARK   10  A    between atoms: C15_24  and  O7_25 
ROOT
HETATM    1  C4  UNL     1      19.663   9.105   3.544  1.00  0.00     0.182 C 
HETATM    2  C5  UNL     1      19.061   9.352   2.153  1.00  0.00     0.060 C 
HETATM    3  C6  UNL     1      20.153  10.117   1.346  1.00  0.00     0.187 C 
HETATM    4  N1  UNL     1      21.201   9.188   1.050  1.00  0.00    -0.227 N 
HETATM    5  C16 UNL     1      21.697   8.901  -0.119  1.00  0.00     0.331 A 
HETATM    6  O8  UNL     1      21.283   9.405  -1.166  1.00  0.00    -0.260 OA
HETATM    7  C17 UNL     1      22.756   7.979  -0.285  1.00  0.00     0.319 A 
HETATM    8  O9  UNL     1      23.200   7.737  -1.431  1.00  0.00    -0.262 OA
HETATM    9  N2  UNL     1      23.236   7.403   0.821  1.00  0.00    -0.269 N 
ATOM     10  H2  UNL     1      24.000   6.732   0.752  1.00  0.00     0.174 HD
HETATM   11  C18 UNL     1      22.718   7.701   2.021  1.00  0.00     0.351 A 
HETATM   12  O10 UNL     1      23.191   7.142   3.052  1.00  0.00    -0.244 OA
HETATM   13  N3  UNL     1      21.717   8.578   2.132  1.00  0.00    -0.165 N 
HETATM   14  C19 UNL     1      21.121   8.857   3.406  1.00  0.00     0.261 C 
HETATM   15  O11 UNL     1      21.871   8.884   4.400  1.00  0.00    -0.270 OA
ENDROOT
BRANCH   3  16
HETATM   16  C7  UNL     1      19.531  10.887   0.318  1.00  0.00     0.174 C 
HETATM   17  O3  UNL     1      20.022  12.031   0.009  1.00  0.00    -0.291 OA
BRANCH  16  18
HETATM   18  C8  UNL     1      18.332  10.408  -0.408  1.00  0.00     0.053 C 
HETATM   19  C9  UNL     1      17.284  11.168  -0.578  1.00  0.00     0.018 C 
BRANCH  19  20
HETATM   20  C10 UNL     1      16.123  10.676  -1.292  1.00  0.00     0.003 A 
HETATM   21  C11 UNL     1      16.026  10.647  -2.646  1.00  0.00     0.053 A 
HETATM   22  C12 UNL     1      14.904  10.173  -3.337  1.00  0.00     0.102 A 
HETATM   23  C13 UNL     1      13.845   9.712  -2.598  1.00  0.00     0.135 A 
HETATM   24  C14 UNL     1      13.927   9.734  -1.204  1.00  0.00     0.136 A 
HETATM   25  C15 UNL     1      15.052  10.210  -0.541  1.00  0.00     0.112 A 
BRANCH  22  26
HETATM   26  O4  UNL     1      14.838  10.158  -4.721  1.00  0.00    -0.358 OA
ATOM     27  H4  UNL     1      14.048  10.389  -5.195  1.00  0.00     0.217 HD
ENDBRANCH  22  26
BRANCH  23  28
HETATM   28  O5  UNL     1      12.696   9.226  -3.215  1.00  0.00    -0.356 OA
ATOM     29  H5  UNL     1      11.877   9.706  -3.175  1.00  0.00     0.218 HD
ENDBRANCH  23  28
BRANCH  24  30
HETATM   30  O6  UNL     1      12.854   9.268  -0.465  1.00  0.00    -0.356 OA
ATOM     31  H6  UNL     1      12.926   9.245   0.482  1.00  0.00     0.218 HD
ENDBRANCH  24  30
BRANCH  25  32
HETATM   32  O7  UNL     1      15.034  10.190   0.841  1.00  0.00    -0.357 OA
ATOM     33  H7  UNL     1      14.240  10.108   1.358  1.00  0.00     0.217 HD
ENDBRANCH  25  32
ENDBRANCH  19  20
ENDBRANCH  16  18
ENDBRANCH   3  16
BRANCH   1  34
HETATM   34  C3  UNL     1      18.957   7.918   4.088  1.00  0.00     0.272 C 
HETATM   35  O2  UNL     1      17.720   7.840   3.900  1.00  0.00    -0.264 OA
BRANCH  34  36
HETATM   36  O1  UNL     1      19.564   6.894   4.787  1.00  0.00    -0.321 OA
BRANCH  36  37
HETATM   37  C2  UNL     1      20.064   5.719   4.186  1.00  0.00     0.174 C 
HETATM   38  C1  UNL     1      19.073   4.579   4.267  1.00  0.00     0.034 C 
ENDBRANCH  36  37
ENDBRANCH  34  36
ENDBRANCH   1  34
TORSDOF 10
ENDMDL
MODEL 2
REMARK VINA RESULT: -9.622440323      1.726      2.586
REMARK  10 active torsions:
REMARK  status: ('A' for Active; 'I' for Inactive)
REMARK    1  A    between atoms: C2_2  and  O1_3 
REMARK    2  A    between atoms: O1_3  and  C3_4 
REMARK    3  A    between atoms: C3_4  and  C4_6 
REMARK    4  A    between atoms: C6_8  and  C7_9 
REMARK    5  A    between atoms: C7_9  and  C8_11 
REMARK    6  A    between atoms: C9_12  and  C10_13 
REMARK    7  A    between atoms: C12_15  and  O4_16 
REMARK    8  A    between atoms: C13_18  and  O5_19 
REMARK    9  A    between atoms: C14_21  and  O6_22 
REMARK   10  A    between atoms: C15_24  and  O7_25 
ROOT
HETATM    1  C4  UNL     1      17.752   9.981   3.115  1.00  0.00     0.182 C 
HETATM    2  C5  UNL     1      17.507  10.146   1.609  1.00  0.00     0.060 C 
HETATM    3  C6  UNL     1      18.840  10.697   1.017  1.00  0.00     0.187 C 
HETATM    4  N1  UNL     1      19.796   9.632   1.043  1.00  0.00    -0.227 N 
HETATM    5  C16 UNL     1      20.494   9.171   0.044  1.00  0.00     0.331 A 
HETATM    6  O8  UNL     1      20.388   9.605  -1.105  1.00  0.00    -0.260 OA
HETATM    7  C17 UNL     1      21.433   8.125   0.199  1.00  0.00     0.319 A 
HETATM    8  O9  UNL     1      22.082   7.717  -0.793  1.00  0.00    -0.262 OA
HETATM    9  N2  UNL     1      21.580   7.619   1.426  1.00  0.00    -0.269 N 
ATOM     10  H2  UNL     1      22.246   6.864   1.587  1.00  0.00     0.174 HD
HETATM   11  C18 UNL     1      20.856   8.097   2.449  1.00  0.00     0.351 A 
HETATM   12  O10 UNL     1      21.014   7.600   3.600  1.00  0.00    -0.244 OA
HETATM   13  N3  UNL     1      19.978   9.086   2.258  1.00  0.00    -0.165 N 
HETATM   14  C19 UNL     1      19.161   9.561   3.336  1.00  0.00     0.261 C 
HETATM   15  O11 UNL     1      19.672   9.608   4.470  1.00  0.00    -0.270 OA
ENDROOT
BRANCH   3  16
HETATM   16  C7  UNL     1      18.565  11.419  -0.182  1.00  0.00     0.174 C 
HETATM   17  O3  UNL     1      19.116  12.563  -0.365  1.00  0.00    -0.291 OA
BRANCH  16  18
HETATM   18  C8  UNL     1      17.660  10.891  -1.229  1.00  0.00     0.053 C 
HETATM   19  C9  UNL     1      16.394  11.208  -1.265  1.00  0.00     0.018 C 
BRANCH  19  20
HETATM   20  C10 UNL     1      15.528  10.677  -2.300  1.00  0.00     0.003 A 
HETATM   21  C11 UNL     1      15.869  10.619  -3.612  1.00  0.00     0.053 A 
HETATM   22  C12 UNL     1      15.034  10.107  -4.613  1.00  0.00     0.102 A 
HETATM   23  C13 UNL     1      13.800   9.640  -4.239  1.00  0.00     0.135 A 
HETATM   24  C14 UNL     1      13.431   9.691  -2.893  1.00  0.00     0.136 A 
HETATM   25  C15 UNL     1      14.279  10.205  -1.918  1.00  0.00     0.112 A 
BRANCH  22  26
HETATM   26  O4  UNL     1      15.414  10.063  -5.944  1.00  0.00    -0.358 OA
ATOM     27  H4  UNL     1      15.003   9.479  -6.571  1.00  0.00     0.217 HD
ENDBRANCH  22  26
BRANCH  23  28
HETATM   28  O5  UNL     1      12.915   9.117  -5.177  1.00  0.00    -0.356 OA
ATOM     29  H5  UNL     1      12.043   9.478  -5.283  1.00  0.00     0.218 HD
ENDBRANCH  23  28
BRANCH  24  30
HETATM   30  O6  UNL     1      12.185   9.218  -2.523  1.00  0.00    -0.356 OA
ATOM     31  H6  UNL     1      11.714   9.664  -1.829  1.00  0.00     0.218 HD
ENDBRANCH  24  30
BRANCH  25  32
HETATM   32  O7  UNL     1      13.820  10.212  -0.614  1.00  0.00    -0.357 OA
ATOM     33  H7  UNL     1      12.918  10.388  -0.372  1.00  0.00     0.217 HD
ENDBRANCH  25  32
ENDBRANCH  19  20
ENDBRANCH  16  18
ENDBRANCH   3  16
BRANCH   1  34
HETATM   34  C3  UNL     1      16.795   8.943   3.572  1.00  0.00     0.272 C 
HETATM   35  O2  UNL     1      17.245   7.795   3.798  1.00  0.00    -0.264 OA
BRANCH  34  36
HETATM   36  O1  UNL     1      15.444   9.151   3.765  1.00  0.00    -0.321 OA
BRANCH  36  37
HETATM   37  C2  UNL     1      14.895  10.351   4.266  1.00  0.00     0.174 C 
HETATM   38  C1  UNL     1      14.222  11.159   3.178  1.00  0.00     0.034 C 
ENDBRANCH  36  37
ENDBRANCH  34  36
ENDBRANCH   1  34
TORSDOF 10
ENDMDL
MODEL 3
REMARK VINA RESULT: -9.572749937      1.070      1.540
REMARK  10 active torsions:
REMARK  status: ('A' for Active; 'I' for Inactive)
REMARK    1  A    between atoms: C2_2  and  O1_3 
REMARK    2  A    between atoms: O1_3  and  C3_4 
REMARK    3  A    between atoms: C3_4  and  C4_6 
REMARK    4  A    between atoms: C6_8  and  C7_9 
REMARK    5  A    between atoms: C7_9  and  C8_11 
REMARK    6  A    between atoms: C9_12  and  C10_13 
REMARK    7  A    between atoms: C12_15  and  O4_16 
REMARK    8  A    between atoms: C13_18  and  O5_19 
REMARK    9  A    between atoms: C14_21  and  O6_22 
REMARK   10  A    between atoms: C15_24  and  O7_25 
ROOT
HETATM    1  C4  UNL     1      19.519   9.833   3.745  1.00  0.00     0.182 C 
HETATM    2  C5  UNL     1      18.899   9.924   2.343  1.00  0.00     0.060 C 
HETATM    3  C6  UNL     1      20.012  10.512   1.423  1.00  0.00     0.187 C 
HETATM    4  N1  UNL     1      21.002   9.494   1.239  1.00  0.00    -0.227 N 
HETATM    5  C16 UNL     1      21.455   9.026   0.112  1.00  0.00     0.331 A 
HETATM    6  O8  UNL     1      21.044   9.407  -0.986  1.00  0.00    -0.260 OA
HETATM    7  C17 UNL     1      22.460   8.032   0.057  1.00  0.00     0.319 A 
HETATM    8  O9  UNL     1      22.864   7.614  -1.053  1.00  0.00    -0.262 OA
HETATM    9  N2  UNL     1      22.933   7.585   1.223  1.00  0.00    -0.269 N 
ATOM     10  H2  UNL     1      23.660   6.869   1.233  1.00  0.00     0.174 HD
HETATM   11  C18 UNL     1      22.460   8.070   2.379  1.00  0.00     0.351 A 
HETATM   12  O10 UNL     1      22.926   7.629   3.469  1.00  0.00    -0.244 OA
HETATM   13  N3  UNL     1      21.509   9.008   2.386  1.00  0.00    -0.165 N 
HETATM   14  C19 UNL     1      20.959   9.488   3.620  1.00  0.00     0.261 C 
HETATM   15  O11 UNL     1      21.732   9.607   4.589  1.00  0.00    -0.270 OA
ENDROOT
BRANCH   3  16
HETATM   16  C7  UNL     1      19.408  11.169   0.310  1.00  0.00     0.174 C 
HETATM   17  O3  UNL     1      19.897  12.283  -0.100  1.00  0.00    -0.291 OA
BRANCH  16  18
HETATM   18  C8  UNL     1      18.230  10.610  -0.391  1.00  0.00     0.053 C 
HETATM   19  C9  UNL     1      17.198  11.348  -0.698  1.00  0.00     0.018 C 
BRANCH  19  20
HETATM   20  C10 UNL     1      16.057  10.776  -1.384  1.00  0.00     0.003 A 
HETATM   21  C11 UNL     1      15.946  10.709  -2.735  1.00  0.00     0.053 A 
HETATM   22  C12 UNL     1      14.844  10.158  -3.400  1.00  0.00     0.102 A 
HETATM   23  C13 UNL     1      13.820   9.658  -2.636  1.00  0.00     0.135 A 
HETATM   24  C14 UNL     1      13.917   9.718  -1.245  1.00  0.00     0.136 A 
HETATM   25  C15 UNL     1      15.022  10.271  -0.608  1.00  0.00     0.112 A 
BRANCH  22  26
HETATM   26  O4  UNL     1      14.762  10.106  -4.782  1.00  0.00    -0.358 OA
ATOM     27  H4  UNL     1      14.872   9.297  -5.268  1.00  0.00     0.217 HD
ENDBRANCH  22  26
BRANCH  23  28
HETATM   28  O5  UNL     1      12.692   9.095  -3.226  1.00  0.00    -0.356 OA
ATOM     29  H5  UNL     1      11.869   9.566  -3.259  1.00  0.00     0.218 HD
ENDBRANCH  23  28
BRANCH  24  30
HETATM   30  O6  UNL     1      12.881   9.212  -0.481  1.00  0.00    -0.356 OA
ATOM     31  H6  UNL     1      12.563   9.722   0.255  1.00  0.00     0.218 HD
ENDBRANCH  24  30
BRANCH  25  32
HETATM   32  O7  UNL     1      15.022  10.284   0.775  1.00  0.00    -0.357 OA
ATOM     33  H7  UNL     1      14.458   9.735   1.307  1.00  0.00     0.217 HD
ENDBRANCH  25  32
ENDBRANCH  19  20
ENDBRANCH  16  18
ENDBRANCH   3  16
BRANCH   1  34
HETATM   34  C3  UNL     1      18.764   8.772   4.456  1.00  0.00     0.272 C 
HETATM   35  O2  UNL     1      18.597   7.679   3.863  1.00  0.00    -0.264 OA
BRANCH  34  36
HETATM   36  O1  UNL     1      18.230   8.900   5.722  1.00  0.00    -0.321 OA
BRANCH  36  37
HETATM   37  C2  UNL     1      16.845   8.924   5.995  1.00  0.00     0.174 C 
HETATM   38  C1  UNL     1      16.187  10.176   5.458  1.00  0.00     0.034 C 
ENDBRANCH  36  37
ENDBRANCH  34  36
ENDBRANCH   1  34
TORSDOF 10
ENDMDL
MODEL 4
REMARK VINA RESULT: -9.541255551      2.567      4.262
REMARK  10 active torsions:
REMARK  status: ('A' for Active; 'I' for Inactive)
REMARK    1  A    between atoms: C2_2  and  O1_3 
REMARK    2  A    between atoms: O1_3  and  C3_4 
REMARK    3  A    between atoms: C3_4  and  C4_6 
REMARK    4  A    between atoms: C6_8  and  C7_9 
REMARK    5  A    between atoms: C7_9  and  C8_11 
REMARK    6  A    between atoms: C9_12  and  C10_13 
REMARK    7  A    between atoms: C12_15  and  O4_16 
REMARK    8  A    between atoms: C13_18  and  O5_19 
REMARK    9  A    between atoms: C14_21  and  O6_22 
REMARK   10  A    between atoms: C15_24  and  O7_25 
ROOT
HETATM    1  C4  UNL     1      21.036   9.440   3.137  1.00  0.00     0.182 C 
HETATM    2  C5  UNL     1      20.550  10.837   2.727  1.00  0.00     0.060 C 
HETATM    3  C6  UNL     1      19.080  10.652   2.240  1.00  0.00     0.187 C 
HETATM    4  N1  UNL     1      18.274  10.388   3.393  1.00  0.00    -0.227 N 
HETATM    5  C16 UNL     1      17.205  11.027   3.773  1.00  0.00     0.331 A 
HETATM    6  O8  UNL     1      16.754  12.001   3.166  1.00  0.00    -0.260 OA
HETATM    7  C17 UNL     1      16.472  10.655   4.924  1.00  0.00     0.319 A 
HETATM    8  O9  UNL     1      15.448  11.301   5.248  1.00  0.00    -0.262 OA
HETATM    9  N2  UNL     1      16.925   9.607   5.618  1.00  0.00    -0.269 N 
ATOM     10  H2  UNL     1      16.429   9.301   6.454  1.00  0.00     0.174 HD
HETATM   11  C18 UNL     1      18.028   8.956   5.221  1.00  0.00     0.351 A 
HETATM   12  O10 UNL     1      18.435   7.967   5.896  1.00  0.00    -0.244 OA
HETATM   13  N3  UNL     1      18.691   9.341   4.128  1.00  0.00    -0.165 N 
HETATM   14  C19 UNL     1      19.903   8.685   3.733  1.00  0.00     0.261 C 
HETATM   15  O11 UNL     1      19.975   7.454   3.907  1.00  0.00    -0.270 OA
ENDROOT
BRANCH   3  16
HETATM   16  C7  UNL     1      18.749  11.694   1.325  1.00  0.00     0.174 C 
HETATM   17  O3  UNL     1      19.405  12.796   1.367  1.00  0.00    -0.291 OA
BRANCH  16  18
HETATM   18  C8  UNL     1      17.668  11.549   0.323  1.00  0.00     0.053 C 
HETATM   19  C9  UNL     1      17.296  10.379  -0.121  1.00  0.00     0.018 C 
BRANCH  19  20
HETATM   20  C10 UNL     1      16.236  10.263  -1.102  1.00  0.00     0.003 A 
HETATM   21  C11 UNL     1      16.384  10.581  -2.413  1.00  0.00     0.053 A 
HETATM   22  C12 UNL     1      15.360  10.470  -3.363  1.00  0.00     0.102 A 
HETATM   23  C13 UNL     1      14.139  10.014  -2.936  1.00  0.00     0.135 A 
HETATM   24  C14 UNL     1      13.968   9.681  -1.591  1.00  0.00     0.136 A 
HETATM   25  C15 UNL     1      15.000   9.801  -0.668  1.00  0.00     0.112 A 
BRANCH  22  26
HETATM   26  O4  UNL     1      15.545  10.804  -4.694  1.00  0.00    -0.358 OA
ATOM     27  H4  UNL     1      15.885  11.649  -4.964  1.00  0.00     0.217 HD
ENDBRANCH  22  26
BRANCH  23  28
HETATM   28  O5  UNL     1      13.074   9.877  -3.822  1.00  0.00    -0.356 OA
ATOM     29  H5  UNL     1      12.434  10.571  -3.930  1.00  0.00     0.218 HD
ENDBRANCH  23  28
BRANCH  24  30
HETATM   30  O6  UNL     1      12.734   9.222  -1.168  1.00  0.00    -0.356 OA
ATOM     31  H6  UNL     1      12.232   9.751  -0.559  1.00  0.00     0.218 HD
ENDBRANCH  24  30
BRANCH  25  32
HETATM   32  O7  UNL     1      14.729   9.447   0.642  1.00  0.00    -0.357 OA
ATOM     33  H7  UNL     1      14.196   9.968   1.230  1.00  0.00     0.217 HD
ENDBRANCH  25  32
ENDBRANCH  19  20
ENDBRANCH  16  18
ENDBRANCH   3  16
BRANCH   1  34
HETATM   34  C3  UNL     1      22.123   9.660   4.124  1.00  0.00     0.272 C 
HETATM   35  O2  UNL     1      23.057  10.431   3.799  1.00  0.00    -0.264 OA
BRANCH  34  36
HETATM   36  O1  UNL     1      22.180   9.077   5.373  1.00  0.00    -0.321 OA
BRANCH  36  37
HETATM   37  C2  UNL     1      22.692   9.720   6.521  1.00  0.00     0.174 C 
HETATM   38  C1  UNL     1      22.287   9.009   7.793  1.00  0.00     0.034 C 
ENDBRANCH  36  37
ENDBRANCH  34  36
ENDBRANCH   1  34
TORSDOF 10
ENDMDL
MODEL 5
REMARK VINA RESULT: -9.525755283      2.152      3.849
REMARK  10 active torsions:
REMARK  status: ('A' for Active; 'I' for Inactive)
REMARK    1  A    between atoms: C2_2  and  O1_3 
REMARK    2  A    between atoms: O1_3  and  C3_4 
REMARK    3  A    between atoms: C3_4  and  C4_6 
REMARK    4  A    between atoms: C6_8  and  C7_9 
REMARK    5  A    between atoms: C7_9  and  C8_11 
REMARK    6  A    between atoms: C9_12  and  C10_13 
REMARK    7  A    between atoms: C12_15  and  O4_16 
REMARK    8  A    between atoms: C13_18  and  O5_19 
REMARK    9  A    between atoms: C14_21  and  O6_22 
REMARK   10  A    between atoms: C15_24  and  O7_25 
ROOT
HETATM    1  C4  UNL     1      20.966   8.857   2.115  1.00  0.00     0.182 C 
HETATM    2  C5  UNL     1      20.808  10.170   1.334  1.00  0.00     0.060 C 
HETATM    3  C6  UNL     1      19.292  10.283   0.993  1.00  0.00     0.187 C 
HETATM    4  N1  UNL     1      18.597  10.582   2.209  1.00  0.00    -0.227 N 
HETATM    5  C16 UNL     1      17.787  11.576   2.433  1.00  0.00     0.331 A 
HETATM    6  O8  UNL     1      17.528  12.435   1.587  1.00  0.00    -0.260 OA
HETATM    7  C17 UNL     1      17.135  11.753   3.676  1.00  0.00     0.319 A 
HETATM    8  O9  UNL     1      16.363  12.726   3.842  1.00  0.00    -0.262 OA
HETATM    9  N2  UNL     1      17.387  10.849   4.626  1.00  0.00    -0.269 N 
ATOM     10  H2  UNL     1      16.940  10.935   5.538  1.00  0.00     0.174 HD
HETATM   11  C18 UNL     1      18.225   9.830   4.388  1.00  0.00     0.351 A 
HETATM   12  O10 UNL     1      18.446   8.988   5.305  1.00  0.00    -0.244 OA
HETATM   13  N3  UNL     1      18.820   9.700   3.200  1.00  0.00    -0.165 N 
HETATM   14  C19 UNL     1      19.762   8.646   2.960  1.00  0.00     0.261 C 
HETATM   15  O11 UNL     1      19.536   7.540   3.486  1.00  0.00    -0.270 OA
ENDROOT
BRANCH   3  16
HETATM   16  C7  UNL     1      19.127  11.089  -0.173  1.00  0.00     0.174 C 
HETATM   17  O3  UNL     1      19.837  12.149  -0.308  1.00  0.00    -0.291 OA
BRANCH  16  18
HETATM   18  C8  UNL     1      18.159  10.742  -1.239  1.00  0.00     0.053 C 
HETATM   19  C9  UNL     1      16.872  10.889  -1.073  1.00  0.00     0.018 C 
BRANCH  19  20
HETATM   20  C10 UNL     1      15.945  10.543  -2.132  1.00  0.00     0.003 A 
HETATM   21  C11 UNL     1      16.236  10.648  -3.453  1.00  0.00     0.053 A 
HETATM   22  C12 UNL     1      15.342  10.315  -4.478  1.00  0.00     0.102 A 
HETATM   23  C13 UNL     1      14.100   9.855  -4.118  1.00  0.00     0.135 A 
HETATM   24  C14 UNL     1      13.783   9.739  -2.763  1.00  0.00     0.136 A 
HETATM   25  C15 UNL     1      14.689  10.078  -1.765  1.00  0.00     0.112 A 
BRANCH  22  26
HETATM   26  O4  UNL     1      15.671  10.435  -5.818  1.00  0.00    -0.358 OA
ATOM     27  H4  UNL     1      15.026  10.644  -6.483  1.00  0.00     0.217 HD
ENDBRANCH  22  26
BRANCH  23  28
HETATM   28  O5  UNL     1      13.158   9.503  -5.080  1.00  0.00    -0.356 OA
ATOM     29  H5  UNL     1      12.268   9.279  -4.835  1.00  0.00     0.218 HD
ENDBRANCH  23  28
BRANCH  24  30
HETATM   30  O6  UNL     1      12.529   9.275  -2.408  1.00  0.00    -0.356 OA
ATOM     31  H6  UNL     1      12.275   9.296  -1.493  1.00  0.00     0.218 HD
ENDBRANCH  24  30
BRANCH  25  32
HETATM   32  O7  UNL     1      14.278   9.928  -0.453  1.00  0.00    -0.357 OA
ATOM     33  H7  UNL     1      13.997   9.101  -0.079  1.00  0.00     0.217 HD
ENDBRANCH  25  32
ENDBRANCH  19  20
ENDBRANCH  16  18
ENDBRANCH   3  16
BRANCH   1  34
HETATM   34  C3  UNL     1      22.189   9.019   2.940  1.00  0.00     0.272 C 
HETATM   35  O2  UNL     1      22.676  10.170   3.041  1.00  0.00    -0.264 OA
BRANCH  34  36
HETATM   36  O1  UNL     1      22.831   7.993   3.604  1.00  0.00    -0.321 OA
BRANCH  36  37
HETATM   37  C2  UNL     1      23.233   6.787   2.990  1.00  0.00     0.174 C 
HETATM   38  C1  UNL     1      22.479   5.597   3.539  1.00  0.00     0.034 C 
ENDBRANCH  36  37
ENDBRANCH  34  36
ENDBRANCH   1  34
TORSDOF 10
ENDMDL
