MODEL 1
REMARK VINA RESULT: -7.822632622      0.000      0.000
REMARK  4 active torsions:
REMARK  status: ('A' for Active; 'I' for Inactive)
REMARK    1  A    between atoms: N2_4  and  C1_6 
REMARK    2  A    between atoms: C1_6  and  N3_7 
REMARK    3  A    between atoms: C3_13  and  N6_14 
REMARK       I    between atoms: N6_14  and  C4_16 
REMARK       I    between atoms: C4_16  and  N8_20 
REMARK    4  A    between atoms: N8_20  and  C5_22 
ROOT
HETATM    1  N6  UNL     1     -32.360   9.964  23.144  1.00  0.00    -0.020 N 
ATOM      2  H6  UNL     1     -31.851  10.307  23.959  1.00  0.00     0.203 HD
HETATM    3  C4  UNL     1     -32.747  10.854  22.093  1.00  0.00     0.705 C 
HETATM    4  N7  UNL     1     -31.914  11.042  21.123  1.00  0.00    -0.234 N 
ATOM      5  H71 UNL     1     -32.190  11.677  20.375  1.00  0.00     0.174 HD
ATOM      6  H72 UNL     1     -31.002  10.588  21.077  1.00  0.00     0.174 HD
HETATM    7  N8  UNL     1     -34.002  11.479  22.156  1.00  0.00    -0.020 N 
ATOM      8  H8  UNL     1     -34.799  10.925  22.470  1.00  0.00     0.203 HD
ENDROOT
BRANCH   1   9
HETATM    9  C3  UNL     1     -32.672   8.710  23.033  1.00  0.00     0.716 A 
HETATM   10  N3  UNL     1     -31.833   7.780  22.562  1.00  0.00    -0.103 N 
HETATM   11  N4  UNL     1     -32.466   6.608  22.583  1.00  0.00    -0.278 N 
HETATM   12  C2  UNL     1     -33.714   6.779  23.065  1.00  0.00     0.215 A 
ATOM     13  H4  UNL     1     -32.068   5.718  22.280  1.00  0.00     0.188 HD
HETATM   14  N5  UNL     1     -33.830   8.105  23.345  1.00  0.00    -0.184 N 
ATOM     15  H5  UNL     1     -34.657   8.563  23.726  1.00  0.00     0.185 HD
BRANCH  10  16
HETATM   16  C1  UNL     1     -30.484   7.931  22.100  1.00  0.00     0.306 C 
BRANCH  16  17
HETATM   17  N2  UNL     1     -29.817   6.681  21.921  1.00  0.00    -0.322 N 
HETATM   18  N1  UNL     1     -28.647   6.562  22.311  1.00  0.00    -0.348 N 
ATOM     19  H12 UNL     1     -28.182   7.355  22.751  1.00  0.00     0.176 HD
ATOM     20  H11 UNL     1     -28.170   5.670  22.183  1.00  0.00     0.176 HD
ATOM     21  H2  UNL     1     -30.297   5.897  21.479  1.00  0.00     0.181 HD
ENDBRANCH  16  17
ENDBRANCH  10  16
ENDBRANCH   1   9
BRANCH   7  22
HETATM   22  C5  UNL     1     -34.206  12.713  21.841  1.00  0.00     0.722 A 
HETATM   23  N9  UNL     1     -33.395  13.782  21.940  1.00  0.00    -0.116 N 
HETATM   24  N10 UNL     1     -33.998  14.876  21.502  1.00  0.00     0.006 NA
ATOM     25  H9  UNL     1     -32.442  13.753  22.303  1.00  0.00     0.202 HD
HETATM   26  N11 UNL     1     -35.208  14.489  21.121  1.00  0.00     0.006 NA
HETATM   27  N12 UNL     1     -35.352  13.187  21.319  1.00  0.00    -0.116 N 
ATOM     28  H12 UNL     1     -36.187  12.639  21.112  1.00  0.00     0.202 HD
ENDBRANCH   7  22
TORSDOF 4
ENDMDL
MODEL 2
REMARK VINA RESULT: -7.773356411      1.090      1.254
REMARK  4 active torsions:
REMARK  status: ('A' for Active; 'I' for Inactive)
REMARK    1  A    between atoms: N2_4  and  C1_6 
REMARK    2  A    between atoms: C1_6  and  N3_7 
REMARK    3  A    between atoms: C3_13  and  N6_14 
REMARK       I    between atoms: N6_14  and  C4_16 
REMARK       I    between atoms: C4_16  and  N8_20 
REMARK    4  A    between atoms: N8_20  and  C5_22 
ROOT
HETATM    1  N6  UNL     1     -31.301  10.073  22.876  1.00  0.00    -0.020 N 
ATOM      2  H6  UNL     1     -30.614  10.252  23.607  1.00  0.00     0.203 HD
HETATM    3  C4  UNL     1     -31.639  11.085  21.923  1.00  0.00     0.705 C 
HETATM    4  N7  UNL     1     -30.941  11.150  20.838  1.00  0.00    -0.234 N 
ATOM      5  H71 UNL     1     -31.182  11.872  20.159  1.00  0.00     0.174 HD
ATOM      6  H72 UNL     1     -30.166  10.518  20.636  1.00  0.00     0.174 HD
HETATM    7  N8  UNL     1     -32.705  11.955  22.201  1.00  0.00    -0.020 N 
ATOM      8  H8  UNL     1     -33.547  11.563  22.623  1.00  0.00     0.203 HD
ENDROOT
BRANCH   1   9
HETATM    9  C3  UNL     1     -31.890   8.921  22.785  1.00  0.00     0.716 A 
HETATM   10  N3  UNL     1     -31.326   7.846  22.221  1.00  0.00    -0.103 N 
HETATM   11  N4  UNL     1     -32.196   6.840  22.294  1.00  0.00    -0.278 N 
HETATM   12  C2  UNL     1     -33.323   7.264  22.903  1.00  0.00     0.215 A 
ATOM     13  H4  UNL     1     -32.036   5.896  21.944  1.00  0.00     0.188 HD
HETATM   14  N5  UNL     1     -33.117   8.573  23.206  1.00  0.00    -0.184 N 
ATOM     15  H5  UNL     1     -33.782   9.188  23.674  1.00  0.00     0.185 HD
BRANCH  10  16
HETATM   16  C1  UNL     1     -30.029   7.715  21.626  1.00  0.00     0.306 C 
BRANCH  16  17
HETATM   17  N2  UNL     1     -29.226   6.720  22.263  1.00  0.00    -0.322 N 
HETATM   18  N1  UNL     1     -28.429   7.064  23.146  1.00  0.00    -0.348 N 
ATOM     19  H12 UNL     1     -28.360   8.049  23.403  1.00  0.00     0.176 HD
ATOM     20  H11 UNL     1     -27.856   6.354  23.601  1.00  0.00     0.176 HD
ATOM     21  H2  UNL     1     -29.308   5.739  21.993  1.00  0.00     0.181 HD
ENDBRANCH  16  17
ENDBRANCH  10  16
ENDBRANCH   1   9
BRANCH   7  22
HETATM   22  C5  UNL     1     -32.682  13.220  21.954  1.00  0.00     0.722 A 
HETATM   23  N9  UNL     1     -31.658  14.092  21.976  1.00  0.00    -0.116 N 
HETATM   24  N10 UNL     1     -32.066  15.310  21.656  1.00  0.00     0.006 NA
ATOM     25  H9  UNL     1     -30.695  13.848  22.209  1.00  0.00     0.202 HD
HETATM   26  N11 UNL     1     -33.367  15.203  21.428  1.00  0.00     0.006 NA
HETATM   27  N12 UNL     1     -33.757  13.949  21.603  1.00  0.00    -0.116 N 
ATOM     28  H12 UNL     1     -34.708  13.596  21.492  1.00  0.00     0.202 HD
ENDBRANCH   7  22
TORSDOF 4
ENDMDL
MODEL 3
REMARK VINA RESULT: -7.578636968      1.967      3.263
REMARK  4 active torsions:
REMARK  status: ('A' for Active; 'I' for Inactive)
REMARK    1  A    between atoms: N2_4  and  C1_6 
REMARK    2  A    between atoms: C1_6  and  N3_7 
REMARK    3  A    between atoms: C3_13  and  N6_14 
REMARK       I    between atoms: N6_14  and  C4_16 
REMARK       I    between atoms: C4_16  and  N8_20 
REMARK    4  A    between atoms: N8_20  and  C5_22 
ROOT
HETATM    1  N6  UNL     1     -30.993   9.379  21.928  1.00  0.00    -0.020 N 
ATOM      2  H6  UNL     1     -31.150   8.562  21.339  1.00  0.00     0.203 HD
HETATM    3  C4  UNL     1     -32.090  10.171  22.393  1.00  0.00     0.705 C 
HETATM    4  N7  UNL     1     -32.641   9.839  23.513  1.00  0.00    -0.234 N 
ATOM      5  H71 UNL     1     -33.424  10.403  23.844  1.00  0.00     0.174 HD
ATOM      6  H72 UNL     1     -32.332   9.045  24.072  1.00  0.00     0.174 HD
HETATM    7  N8  UNL     1     -32.516  11.264  21.623  1.00  0.00    -0.020 N 
ATOM      8  H8  UNL     1     -31.805  11.854  21.191  1.00  0.00     0.203 HD
ENDROOT
BRANCH   1   9
HETATM    9  C3  UNL     1     -29.792   9.728  22.275  1.00  0.00     0.716 A 
HETATM   10  N3  UNL     1     -28.703   9.005  21.989  1.00  0.00    -0.103 N 
HETATM   11  N4  UNL     1     -27.645   9.643  22.487  1.00  0.00    -0.278 N 
HETATM   12  C2  UNL     1     -28.049  10.777  23.097  1.00  0.00     0.215 A 
ATOM     13  H4  UNL     1     -26.678   9.324  22.419  1.00  0.00     0.188 HD
HETATM   14  N5  UNL     1     -29.401  10.817  22.956  1.00  0.00    -0.184 N 
ATOM     15  H5  UNL     1     -30.015  11.551  23.308  1.00  0.00     0.185 HD
BRANCH  10  16
HETATM   16  C1  UNL     1     -28.603   7.764  21.280  1.00  0.00     0.306 C 
BRANCH  16  17
HETATM   17  N2  UNL     1     -29.092   6.654  22.034  1.00  0.00    -0.322 N 
HETATM   18  N1  UNL     1     -30.123   6.079  21.658  1.00  0.00    -0.348 N 
ATOM     19  H12 UNL     1     -30.602   6.405  20.820  1.00  0.00     0.176 HD
ATOM     20  H11 UNL     1     -30.472   5.286  22.196  1.00  0.00     0.176 HD
ATOM     21  H2  UNL     1     -28.600   6.340  22.870  1.00  0.00     0.181 HD
ENDBRANCH  16  17
ENDBRANCH  10  16
ENDBRANCH   1   9
BRANCH   7  22
HETATM   22  C5  UNL     1     -33.755  11.566  21.430  1.00  0.00     0.722 A 
HETATM   23  N9  UNL     1     -34.605  12.280  22.189  1.00  0.00    -0.116 N 
HETATM   24  N10 UNL     1     -35.799  12.354  21.623  1.00  0.00     0.006 NA
ATOM     25  H9  UNL     1     -34.362  12.709  23.083  1.00  0.00     0.202 HD
HETATM   26  N11 UNL     1     -35.699  11.676  20.488  1.00  0.00     0.006 NA
HETATM   27  N12 UNL     1     -34.472  11.192  20.355  1.00  0.00    -0.116 N 
ATOM     28  H12 UNL     1     -34.131  10.633  19.573  1.00  0.00     0.202 HD
ENDBRANCH   7  22
TORSDOF 4
ENDMDL
MODEL 4
REMARK VINA RESULT: -7.526872871      2.306      7.065
REMARK  4 active torsions:
REMARK  status: ('A' for Active; 'I' for Inactive)
REMARK    1  A    between atoms: N2_4  and  C1_6 
REMARK    2  A    between atoms: C1_6  and  N3_7 
REMARK    3  A    between atoms: C3_13  and  N6_14 
REMARK       I    between atoms: N6_14  and  C4_16 
REMARK       I    between atoms: C4_16  and  N8_20 
REMARK    4  A    between atoms: N8_20  and  C5_22 
ROOT
HETATM    1  N6  UNL     1     -30.020   8.513  21.783  1.00  0.00    -0.020 N 
ATOM      2  H6  UNL     1     -29.888   8.579  20.774  1.00  0.00     0.203 HD
HETATM    3  C4  UNL     1     -28.903   8.341  22.659  1.00  0.00     0.705 C 
HETATM    4  N7  UNL     1     -28.315   9.402  23.105  1.00  0.00    -0.234 N 
ATOM      5  H71 UNL     1     -27.519   9.279  23.729  1.00  0.00     0.174 HD
ATOM      6  H72 UNL     1     -28.611  10.347  22.859  1.00  0.00     0.174 HD
HETATM    7  N8  UNL     1     -28.496   7.041  22.998  1.00  0.00    -0.020 N 
ATOM      8  H8  UNL     1     -29.217   6.348  23.196  1.00  0.00     0.203 HD
ENDROOT
BRANCH   1   9
HETATM    9  C3  UNL     1     -31.205   8.585  22.305  1.00  0.00     0.716 A 
HETATM   10  N3  UNL     1     -31.849   9.739  22.518  1.00  0.00    -0.103 N 
HETATM   11  N4  UNL     1     -33.032   9.454  23.061  1.00  0.00    -0.278 N 
HETATM   12  C2  UNL     1     -33.153   8.118  23.202  1.00  0.00     0.215 A 
ATOM     13  H4  UNL     1     -33.737  10.141  23.329  1.00  0.00     0.188 HD
HETATM   14  N5  UNL     1     -31.998   7.584  22.723  1.00  0.00    -0.184 N 
ATOM     15  H5  UNL     1     -31.771   6.591  22.687  1.00  0.00     0.185 HD
BRANCH  10  16
HETATM   16  C1  UNL     1     -31.419  11.077  22.240  1.00  0.00     0.306 C 
BRANCH  16  17
HETATM   17  N2  UNL     1     -31.838  11.537  20.954  1.00  0.00    -0.322 N 
HETATM   18  N1  UNL     1     -30.983  11.929  20.148  1.00  0.00    -0.348 N 
ATOM     19  H12 UNL     1     -29.999  11.917  20.414  1.00  0.00     0.176 HD
ATOM     20  H11 UNL     1     -31.281  12.258  19.230  1.00  0.00     0.176 HD
ATOM     21  H2  UNL     1     -32.826  11.543  20.703  1.00  0.00     0.181 HD
ENDBRANCH  16  17
ENDBRANCH  10  16
ENDBRANCH   1   9
BRANCH   7  22
HETATM   22  C5  UNL     1     -27.262   6.672  23.074  1.00  0.00     0.722 A 
HETATM   23  N9  UNL     1     -26.471   6.497  24.148  1.00  0.00    -0.116 N 
HETATM   24  N10 UNL     1     -25.259   6.109  23.785  1.00  0.00     0.006 NA
ATOM     25  H9  UNL     1     -26.766   6.643  25.114  1.00  0.00     0.202 HD
HETATM   26  N11 UNL     1     -25.288   6.038  22.462  1.00  0.00     0.006 NA
HETATM   27  N12 UNL     1     -26.488   6.376  22.015  1.00  0.00    -0.116 N 
ATOM     28  H12 UNL     1     -26.776   6.405  21.036  1.00  0.00     0.202 HD
ENDBRANCH   7  22
TORSDOF 4
ENDMDL
MODEL 5
REMARK VINA RESULT: -7.515705805      2.601      6.878
REMARK  4 active torsions:
REMARK  status: ('A' for Active; 'I' for Inactive)
REMARK    1  A    between atoms: N2_4  and  C1_6 
REMARK    2  A    between atoms: C1_6  and  N3_7 
REMARK    3  A    between atoms: C3_13  and  N6_14 
REMARK       I    between atoms: N6_14  and  C4_16 
REMARK       I    between atoms: C4_16  and  N8_20 
REMARK    4  A    between atoms: N8_20  and  C5_22 
ROOT
HETATM    1  N6  UNL     1     -29.828   9.235  21.432  1.00  0.00    -0.020 N 
ATOM      2  H6  UNL     1     -29.851   8.900  20.468  1.00  0.00     0.203 HD
HETATM    3  C4  UNL     1     -28.713   8.951  22.281  1.00  0.00     0.705 C 
HETATM    4  N7  UNL     1     -27.728   9.787  22.282  1.00  0.00    -0.234 N 
ATOM      5  H71 UNL     1     -26.932   9.584  22.888  1.00  0.00     0.174 HD
ATOM      6  H72 UNL     1     -27.712  10.629  21.708  1.00  0.00     0.174 HD
HETATM    7  N8  UNL     1     -28.735   7.792  23.072  1.00  0.00    -0.020 N 
ATOM      8  H8  UNL     1     -29.610   7.541  23.532  1.00  0.00     0.203 HD
ENDROOT
BRANCH   1   9
HETATM    9  C3  UNL     1     -30.811   9.929  21.918  1.00  0.00     0.716 A 
HETATM   10  N3  UNL     1     -31.915   9.379  22.439  1.00  0.00    -0.103 N 
HETATM   11  N4  UNL     1     -32.713  10.366  22.842  1.00  0.00    -0.278 N 
HETATM   12  C2  UNL     1     -32.128  11.553  22.581  1.00  0.00     0.215 A 
ATOM     13  H4  UNL     1     -33.626  10.244  23.281  1.00  0.00     0.188 HD
HETATM   14  N5  UNL     1     -30.933  11.263  22.000  1.00  0.00    -0.184 N 
ATOM     15  H5  UNL     1     -30.246  11.945  21.680  1.00  0.00     0.185 HD
BRANCH  10  16
HETATM   16  C1  UNL     1     -32.254   7.994  22.579  1.00  0.00     0.306 C 
BRANCH  16  17
HETATM   17  N2  UNL     1     -32.849   7.448  21.401  1.00  0.00    -0.322 N 
HETATM   18  N1  UNL     1     -33.276   6.285  21.426  1.00  0.00    -0.348 N 
ATOM     19  H12 UNL     1     -33.196   5.739  22.283  1.00  0.00     0.176 HD
ATOM     20  H11 UNL     1     -33.701   5.895  20.585  1.00  0.00     0.176 HD
ATOM     21  H2  UNL     1     -32.921   8.008  20.551  1.00  0.00     0.181 HD
ENDBRANCH  16  17
ENDBRANCH  10  16
ENDBRANCH   1   9
BRANCH   7  22
HETATM   22  C5  UNL     1     -27.713   7.025  23.250  1.00  0.00     0.722 A 
HETATM   23  N9  UNL     1     -26.946   6.377  22.355  1.00  0.00    -0.116 N 
HETATM   24  N10 UNL     1     -25.989   5.691  22.961  1.00  0.00     0.006 NA
ATOM     25  H9  UNL     1     -27.082   6.410  21.345  1.00  0.00     0.202 HD
HETATM   26  N11 UNL     1     -26.158   5.912  24.257  1.00  0.00     0.006 NA
HETATM   27  N12 UNL     1     -27.194   6.714  24.451  1.00  0.00    -0.116 N 
ATOM     28  H12 UNL     1     -27.538   7.039  25.354  1.00  0.00     0.202 HD
ENDBRANCH   7  22
TORSDOF 4
ENDMDL
