MODEL 1
REMARK VINA RESULT: -5.723132796      0.000      0.000
REMARK  5 active torsions:
REMARK  status: ('A' for Active; 'I' for Inactive)
REMARK    1  A    between atoms: N1_2  and  C2_5 
REMARK    2  A    between atoms: C2_5  and  C4_7 
REMARK    3  A    between atoms: C4_7  and  C5_8 
REMARK    4  A    between atoms: C4_7  and  N2_13 
REMARK    5  A    between atoms: C5_8  and  C7_10 
ROOT
HETATM    1  C4  UNL     1      18.703  -3.557  -3.162  1.00  0.00     0.257 C 
ENDROOT
BRANCH   1   2
HETATM    2  C2  UNL     1      18.345  -5.005  -3.199  1.00  0.00     0.215 C 
HETATM    3  C3  UNL     1      19.045  -5.863  -4.193  1.00  0.00     0.042 C 
BRANCH   2   4
HETATM    4  N1  UNL     1      18.756  -5.517  -1.867  1.00  0.00    -0.073 N 
HETATM    5  C1  UNL     1      17.596  -5.829  -1.064  1.00  0.00     0.267 C 
ATOM      6  H12 UNL     1      19.385  -4.872  -1.390  1.00  0.00     0.277 HD
ATOM      7  H11 UNL     1      19.388  -6.314  -1.946  1.00  0.00     0.277 HD
ENDBRANCH   2   4
ENDBRANCH   1   2
BRANCH   1   8
HETATM    8  C5  UNL     1      19.888  -3.116  -3.930  1.00  0.00     0.021 C 
HETATM    9  C6  UNL     1      20.998  -2.516  -3.117  1.00  0.00     0.012 C 
BRANCH   8  10
HETATM   10  C7  UNL     1      19.568  -2.334  -5.188  1.00  0.00    -0.009 A 
HETATM   11  C8  UNL     1      20.240  -2.803  -6.479  1.00  0.00     0.005 A 
HETATM   12  C9  UNL     1      20.590  -1.477  -5.853  1.00  0.00     0.005 A 
ENDBRANCH   8  10
ENDBRANCH   1   8
BRANCH   1  13
HETATM   13  N2  UNL     1      17.504  -2.833  -3.351  1.00  0.00     0.095 N 
HETATM   14  C10 UNL     1      17.030  -1.965  -2.352  1.00  0.00     0.273 C 
HETATM   15  C11 UNL     1      15.837  -1.321  -3.087  1.00  0.00     0.032 C 
HETATM   16  C12 UNL     1      15.429  -2.348  -4.145  1.00  0.00     0.032 C 
HETATM   17  C13 UNL     1      16.353  -3.527  -3.796  1.00  0.00     0.273 C 
ENDBRANCH   1  13
TORSDOF 5
ENDMDL
MODEL 2
REMARK VINA RESULT: -5.649946277      1.563      4.120
REMARK  5 active torsions:
REMARK  status: ('A' for Active; 'I' for Inactive)
REMARK    1  A    between atoms: N1_2  and  C2_5 
REMARK    2  A    between atoms: C2_5  and  C4_7 
REMARK    3  A    between atoms: C4_7  and  C5_8 
REMARK    4  A    between atoms: C4_7  and  N2_13 
REMARK    5  A    between atoms: C5_8  and  C7_10 
ROOT
HETATM    1  C4  UNL     1      18.662  -3.689  -4.264  1.00  0.00     0.257 C 
ENDROOT
BRANCH   1   2
HETATM    2  C2  UNL     1      19.146  -5.101  -4.265  1.00  0.00     0.215 C 
HETATM    3  C3  UNL     1      18.368  -6.095  -5.053  1.00  0.00     0.042 C 
BRANCH   2   4
HETATM    4  N1  UNL     1      20.480  -5.029  -4.914  1.00  0.00    -0.073 N 
HETATM    5  C1  UNL     1      20.711  -6.200  -5.726  1.00  0.00     0.267 C 
ATOM      6  H12 UNL     1      21.226  -4.886  -4.232  1.00  0.00     0.277 HD
ATOM      7  H11 UNL     1      20.596  -4.168  -5.447  1.00  0.00     0.277 HD
ENDBRANCH   2   4
ENDBRANCH   1   2
BRANCH   1   8
HETATM    8  C5  UNL     1      17.776  -3.260  -3.159  1.00  0.00     0.021 C 
HETATM    9  C6  UNL     1      17.664  -4.220  -2.011  1.00  0.00     0.012 C 
BRANCH   8  10
HETATM   10  C7  UNL     1      16.443  -2.691  -3.606  1.00  0.00    -0.009 A 
HETATM   11  C8  UNL     1      16.244  -1.185  -3.426  1.00  0.00     0.005 A 
HETATM   12  C9  UNL     1      15.447  -2.180  -2.622  1.00  0.00     0.005 A 
ENDBRANCH   8  10
ENDBRANCH   1   8
BRANCH   1  13
HETATM   13  N2  UNL     1      19.779  -2.873  -4.550  1.00  0.00     0.095 N 
HETATM   14  C10 UNL     1      20.544  -2.319  -3.508  1.00  0.00     0.273 C 
HETATM   15  C11 UNL     1      21.692  -1.682  -4.315  1.00  0.00     0.032 C 
HETATM   16  C12 UNL     1      21.101  -1.423  -5.702  1.00  0.00     0.032 C 
HETATM   17  C13 UNL     1      19.630  -1.817  -5.482  1.00  0.00     0.273 C 
ENDBRANCH   1  13
TORSDOF 5
ENDMDL
MODEL 3
REMARK VINA RESULT: -5.625405463      1.625      4.213
REMARK  5 active torsions:
REMARK  status: ('A' for Active; 'I' for Inactive)
REMARK    1  A    between atoms: N1_2  and  C2_5 
REMARK    2  A    between atoms: C2_5  and  C4_7 
REMARK    3  A    between atoms: C4_7  and  C5_8 
REMARK    4  A    between atoms: C4_7  and  N2_13 
REMARK    5  A    between atoms: C5_8  and  C7_10 
ROOT
HETATM    1  C4  UNL     1      18.541  -4.335  -3.818  1.00  0.00     0.257 C 
ENDROOT
BRANCH   1   2
HETATM    2  C2  UNL     1      19.125  -5.629  -4.279  1.00  0.00     0.215 C 
HETATM    3  C3  UNL     1      18.408  -6.363  -5.357  1.00  0.00     0.042 C 
BRANCH   2   4
HETATM    4  N1  UNL     1      20.440  -5.250  -4.858  1.00  0.00    -0.073 N 
HETATM    5  C1  UNL     1      20.760  -6.098  -5.983  1.00  0.00     0.267 C 
ATOM      6  H12 UNL     1      21.179  -5.256  -4.155  1.00  0.00     0.277 HD
ATOM      7  H11 UNL     1      20.474  -4.262  -5.106  1.00  0.00     0.277 HD
ENDBRANCH   2   4
ENDBRANCH   1   2
BRANCH   1   8
HETATM    8  C5  UNL     1      17.925  -4.292  -2.474  1.00  0.00     0.021 C 
HETATM    9  C6  UNL     1      18.312  -5.409  -1.549  1.00  0.00     0.012 C 
BRANCH   8  10
HETATM   10  C7  UNL     1      16.438  -3.992  -2.472  1.00  0.00    -0.009 A 
HETATM   11  C8  UNL     1      16.031  -2.546  -2.184  1.00  0.00     0.005 A 
HETATM   12  C9  UNL     1      15.715  -3.656  -1.213  1.00  0.00     0.005 A 
ENDBRANCH   8  10
ENDBRANCH   1   8
BRANCH   1  13
HETATM   13  N2  UNL     1      19.481  -3.327  -4.130  1.00  0.00     0.095 N 
HETATM   14  C10 UNL     1      20.247  -2.727  -3.115  1.00  0.00     0.273 C 
HETATM   15  C11 UNL     1      21.195  -1.854  -3.961  1.00  0.00     0.032 C 
HETATM   16  C12 UNL     1      20.436  -1.603  -5.266  1.00  0.00     0.032 C 
HETATM   17  C13 UNL     1      19.076  -2.250  -4.955  1.00  0.00     0.273 C 
ENDBRANCH   1  13
TORSDOF 5
ENDMDL
MODEL 4
REMARK VINA RESULT: -5.487869912      1.299      4.156
REMARK  5 active torsions:
REMARK  status: ('A' for Active; 'I' for Inactive)
REMARK    1  A    between atoms: N1_2  and  C2_5 
REMARK    2  A    between atoms: C2_5  and  C4_7 
REMARK    3  A    between atoms: C4_7  and  C5_8 
REMARK    4  A    between atoms: C4_7  and  N2_13 
REMARK    5  A    between atoms: C5_8  and  C7_10 
ROOT
HETATM    1  C4  UNL     1      18.165  -3.328  -3.301  1.00  0.00     0.257 C 
ENDROOT
BRANCH   1   2
HETATM    2  C2  UNL     1      16.946  -2.647  -3.827  1.00  0.00     0.215 C 
HETATM    3  C3  UNL     1      15.751  -3.489  -4.104  1.00  0.00     0.042 C 
BRANCH   2   4
HETATM    4  N1  UNL     1      16.542  -1.725  -2.734  1.00  0.00    -0.073 N 
HETATM    5  C1  UNL     1      15.359  -0.986  -3.106  1.00  0.00     0.267 C 
ATOM      6  H12 UNL     1      17.305  -1.106  -2.458  1.00  0.00     0.277 HD
ATOM      7  H11 UNL     1      16.419  -2.217  -1.849  1.00  0.00     0.277 HD
ENDBRANCH   2   4
ENDBRANCH   1   2
BRANCH   1   8
HETATM    8  C5  UNL     1      18.101  -4.789  -3.078  1.00  0.00     0.021 C 
HETATM    9  C6  UNL     1      18.393  -5.243  -1.678  1.00  0.00     0.012 C 
BRANCH   8  10
HETATM   10  C7  UNL     1      18.794  -5.619  -4.141  1.00  0.00    -0.009 A 
HETATM   11  C8  UNL     1      17.905  -6.225  -5.228  1.00  0.00     0.005 A 
HETATM   12  C9  UNL     1      18.609  -7.096  -4.218  1.00  0.00     0.005 A 
ENDBRANCH   8  10
ENDBRANCH   1   8
BRANCH   1  13
HETATM   13  N2  UNL     1      19.262  -2.835  -4.042  1.00  0.00     0.095 N 
HETATM   14  C10 UNL     1      20.462  -2.489  -3.396  1.00  0.00     0.273 C 
HETATM   15  C11 UNL     1      21.355  -2.182  -4.614  1.00  0.00     0.032 C 
HETATM   16  C12 UNL     1      20.380  -1.793  -5.727  1.00  0.00     0.032 C 
HETATM   17  C13 UNL     1      19.042  -1.787  -4.969  1.00  0.00     0.273 C 
ENDBRANCH   1  13
TORSDOF 5
ENDMDL
MODEL 5
REMARK VINA RESULT: -5.476981020      1.931      3.893
REMARK  5 active torsions:
REMARK  status: ('A' for Active; 'I' for Inactive)
REMARK    1  A    between atoms: N1_2  and  C2_5 
REMARK    2  A    between atoms: C2_5  and  C4_7 
REMARK    3  A    between atoms: C4_7  and  C5_8 
REMARK    4  A    between atoms: C4_7  and  N2_13 
REMARK    5  A    between atoms: C5_8  and  C7_10 
ROOT
HETATM    1  C4  UNL     1      19.857  -4.375  -4.417  1.00  0.00     0.257 C 
ENDROOT
BRANCH   1   2
HETATM    2  C2  UNL     1      18.706  -3.861  -3.620  1.00  0.00     0.215 C 
HETATM    3  C3  UNL     1      17.350  -4.371  -3.960  1.00  0.00     0.042 C 
BRANCH   2   4
HETATM    4  N1  UNL     1      18.978  -4.335  -2.239  1.00  0.00    -0.073 N 
HETATM    5  C1  UNL     1      17.901  -5.175  -1.770  1.00  0.00     0.267 C 
ATOM      6  H12 UNL     1      19.159  -3.559  -1.600  1.00  0.00     0.277 HD
ATOM      7  H11 UNL     1      19.882  -4.802  -2.169  1.00  0.00     0.277 HD
ENDBRANCH   2   4
ENDBRANCH   1   2
BRANCH   1   8
HETATM    8  C5  UNL     1      19.587  -5.415  -5.434  1.00  0.00     0.021 C 
HETATM    9  C6  UNL     1      19.207  -6.763  -4.895  1.00  0.00     0.012 C 
BRANCH   8  10
HETATM   10  C7  UNL     1      20.604  -5.477  -6.557  1.00  0.00    -0.009 A 
HETATM   11  C8  UNL     1      20.141  -4.990  -7.931  1.00  0.00     0.005 A 
HETATM   12  C9  UNL     1      20.461  -6.442  -7.684  1.00  0.00     0.005 A 
ENDBRANCH   8  10
ENDBRANCH   1   8
BRANCH   1  13
HETATM   13  N2  UNL     1      20.606  -3.249  -4.828  1.00  0.00     0.095 N 
HETATM   14  C10 UNL     1      21.683  -2.787  -4.051  1.00  0.00     0.273 C 
HETATM   15  C11 UNL     1      22.246  -1.693  -4.979  1.00  0.00     0.032 C 
HETATM   16  C12 UNL     1      21.060  -1.267  -5.847  1.00  0.00     0.032 C 
HETATM   17  C13 UNL     1      19.915  -2.075  -5.213  1.00  0.00     0.273 C 
ENDBRANCH   1  13
TORSDOF 5
ENDMDL
