MODEL 1
REMARK VINA RESULT: -6.238835503      0.000      0.000
REMARK  4 active torsions:
REMARK  status: ('A' for Active; 'I' for Inactive)
REMARK    1  A    between atoms: O1_1  and  C1_3 
REMARK    2  A    between atoms: C3_6  and  O3_7 
REMARK    3  A    between atoms: O3_7  and  C4_8 
REMARK    4  A    between atoms: C4_8  and  C5_9 
ROOT
HETATM    1  O3  UNL     1      35.038  59.900  15.789  1.00  0.00    -0.338 OA
ENDROOT
BRANCH   1   2
HETATM    2  C3  UNL     1      34.148  59.157  16.554  1.00  0.00     0.415 C 
HETATM    3  O2  UNL     1      32.922  59.057  15.905  1.00  0.00    -0.334 OA
HETATM    4  C2  UNL     1      31.927  59.342  16.807  1.00  0.00     0.234 C 
HETATM    5  C1  UNL     1      32.633  59.225  18.139  1.00  0.00     0.286 C 
HETATM    6  O4  UNL     1      33.908  59.734  17.797  1.00  0.00    -0.306 OA
BRANCH   5   7
HETATM    7  O1  UNL     1      32.022  60.073  19.089  1.00  0.00    -0.369 OA
ATOM      8  H1  UNL     1      32.118  59.709  19.962  1.00  0.00     0.212 HD
ENDBRANCH   5   7
ENDBRANCH   1   2
BRANCH   1   9
HETATM    9  C4  UNL     1      35.950  60.488  16.624  1.00  0.00     0.184 C 
BRANCH   9  10
HETATM   10  C5  UNL     1      37.203  60.937  16.000  1.00  0.00     0.011 C 
HETATM   11  C6  UNL     1      38.470  60.485  16.629  1.00  0.00     0.043 C 
HETATM   12  C7  UNL     1      39.454  61.575  16.182  1.00  0.00     0.273 C 
HETATM   13  N1  UNL     1      38.679  62.487  15.336  1.00  0.00     0.089 N 
HETATM   14  C8  UNL     1      38.362  61.743  14.126  1.00  0.00     0.273 C 
HETATM   15  C10 UNL     1      37.388  62.463  16.050  1.00  0.00     0.284 C 
HETATM   16  C9  UNL     1      37.292  60.718  14.515  1.00  0.00     0.043 C 
ENDBRANCH   9  10
ENDBRANCH   1   9
TORSDOF 4
ENDMDL
MODEL 2
REMARK VINA RESULT: -6.165313953      0.741      1.601
REMARK  4 active torsions:
REMARK  status: ('A' for Active; 'I' for Inactive)
REMARK    1  A    between atoms: O1_1  and  C1_3 
REMARK    2  A    between atoms: C3_6  and  O3_7 
REMARK    3  A    between atoms: O3_7  and  C4_8 
REMARK    4  A    between atoms: C4_8  and  C5_9 
ROOT
HETATM    1  O3  UNL     1      35.333  60.100  15.970  1.00  0.00    -0.338 OA
ENDROOT
BRANCH   1   2
HETATM    2  C3  UNL     1      34.438  59.270  16.633  1.00  0.00     0.415 C 
HETATM    3  O2  UNL     1      33.296  59.079  15.863  1.00  0.00    -0.334 OA
HETATM    4  C2  UNL     1      32.196  59.261  16.663  1.00  0.00     0.234 C 
HETATM    5  C1  UNL     1      32.774  59.179  18.058  1.00  0.00     0.286 C 
HETATM    6  O4  UNL     1      34.028  59.800  17.851  1.00  0.00    -0.306 OA
BRANCH   5   7
HETATM    7  O1  UNL     1      32.000  59.954  18.951  1.00  0.00    -0.369 OA
ATOM      8  H1  UNL     1      31.101  59.646  18.956  1.00  0.00     0.212 HD
ENDBRANCH   5   7
ENDBRANCH   1   2
BRANCH   1   9
HETATM    9  C4  UNL     1      36.077  60.776  16.899  1.00  0.00     0.184 C 
BRANCH   9  10
HETATM   10  C5  UNL     1      37.316  61.397  16.410  1.00  0.00     0.011 C 
HETATM   11  C6  UNL     1      37.225  62.190  15.158  1.00  0.00     0.043 C 
HETATM   12  C7  UNL     1      38.666  62.125  14.635  1.00  0.00     0.273 C 
HETATM   13  N1  UNL     1      39.418  61.360  15.633  1.00  0.00     0.089 N 
HETATM   14  C8  UNL     1      39.483  62.200  16.820  1.00  0.00     0.273 C 
HETATM   15  C10 UNL     1      38.393  60.371  16.021  1.00  0.00     0.284 C 
HETATM   16  C9  UNL     1      38.079  62.192  17.434  1.00  0.00     0.043 C 
ENDBRANCH   9  10
ENDBRANCH   1   9
TORSDOF 4
ENDMDL
MODEL 3
REMARK VINA RESULT: -5.795650888      3.385      5.736
REMARK  4 active torsions:
REMARK  status: ('A' for Active; 'I' for Inactive)
REMARK    1  A    between atoms: O1_1  and  C1_3 
REMARK    2  A    between atoms: C3_6  and  O3_7 
REMARK    3  A    between atoms: O3_7  and  C4_8 
REMARK    4  A    between atoms: C4_8  and  C5_9 
ROOT
HETATM    1  O3  UNL     1      35.761  61.531  16.807  1.00  0.00    -0.338 OA
ENDROOT
BRANCH   1   2
HETATM    2  C3  UNL     1      36.751  61.339  15.853  1.00  0.00     0.415 C 
HETATM    3  O2  UNL     1      37.893  60.808  16.441  1.00  0.00    -0.334 OA
HETATM    4  C2  UNL     1      38.982  61.517  15.999  1.00  0.00     0.234 C 
HETATM    5  C1  UNL     1      38.441  62.252  14.793  1.00  0.00     0.286 C 
HETATM    6  O4  UNL     1      37.124  62.527  15.232  1.00  0.00    -0.306 OA
BRANCH   5   7
HETATM    7  O1  UNL     1      39.143  63.464  14.607  1.00  0.00    -0.369 OA
ATOM      8  H1  UNL     1      38.742  63.970  13.910  1.00  0.00     0.212 HD
ENDBRANCH   5   7
ENDBRANCH   1   2
BRANCH   1   9
HETATM    9  C4  UNL     1      35.615  60.376  17.528  1.00  0.00     0.184 C 
BRANCH   9  10
HETATM   10  C5  UNL     1      35.413  60.537  18.975  1.00  0.00     0.011 C 
HETATM   11  C6  UNL     1      34.124  61.129  19.415  1.00  0.00     0.043 C 
HETATM   12  C7  UNL     1      34.494  61.714  20.784  1.00  0.00     0.273 C 
HETATM   13  N1  UNL     1      35.902  61.369  20.998  1.00  0.00     0.089 N 
HETATM   14  C8  UNL     1      35.941  59.925  21.178  1.00  0.00     0.273 C 
HETATM   15  C10 UNL     1      36.410  61.513  19.620  1.00  0.00     0.284 C 
HETATM   16  C9  UNL     1      35.689  59.308  19.798  1.00  0.00     0.043 C 
ENDBRANCH   9  10
ENDBRANCH   1   9
TORSDOF 4
ENDMDL
MODEL 4
REMARK VINA RESULT: -5.681550854      3.654      4.631
REMARK  4 active torsions:
REMARK  status: ('A' for Active; 'I' for Inactive)
REMARK    1  A    between atoms: O1_1  and  C1_3 
REMARK    2  A    between atoms: C3_6  and  O3_7 
REMARK    3  A    between atoms: O3_7  and  C4_8 
REMARK    4  A    between atoms: C4_8  and  C5_9 
ROOT
HETATM    1  O3  UNL     1      33.725  61.161  19.225  1.00  0.00    -0.338 OA
ENDROOT
BRANCH   1   2
HETATM    2  C3  UNL     1      33.396  59.906  18.729  1.00  0.00     0.415 C 
HETATM    3  O2  UNL     1      34.465  59.373  18.016  1.00  0.00    -0.334 OA
HETATM    4  C2  UNL     1      33.992  58.880  16.826  1.00  0.00     0.234 C 
HETATM    5  C1  UNL     1      32.500  58.800  17.060  1.00  0.00     0.286 C 
HETATM    6  O4  UNL     1      32.307  59.947  17.865  1.00  0.00    -0.306 OA
BRANCH   5   7
HETATM    7  O1  UNL     1      31.807  58.953  15.839  1.00  0.00    -0.369 OA
ATOM      8  H1  UNL     1      30.949  59.330  15.995  1.00  0.00     0.212 HD
ENDBRANCH   5   7
ENDBRANCH   1   2
BRANCH   1   9
HETATM    9  C4  UNL     1      35.074  61.348  19.089  1.00  0.00     0.184 C 
BRANCH   9  10
HETATM   10  C5  UNL     1      35.800  61.738  20.306  1.00  0.00     0.011 C 
HETATM   11  C6  UNL     1      35.236  62.860  21.099  1.00  0.00     0.043 C 
HETATM   12  C7  UNL     1      36.476  63.384  21.835  1.00  0.00     0.273 C 
HETATM   13  N1  UNL     1      37.579  62.508  21.431  1.00  0.00     0.089 N 
HETATM   14  C8  UNL     1      37.303  61.210  22.029  1.00  0.00     0.273 C 
HETATM   15  C10 UNL     1      37.213  62.272  20.020  1.00  0.00     0.284 C 
HETATM   16  C9  UNL     1      36.138  60.606  21.238  1.00  0.00     0.043 C 
ENDBRANCH   9  10
ENDBRANCH   1   9
TORSDOF 4
ENDMDL
MODEL 5
REMARK VINA RESULT: -5.618552249      3.473      5.687
REMARK  4 active torsions:
REMARK  status: ('A' for Active; 'I' for Inactive)
REMARK    1  A    between atoms: O1_1  and  C1_3 
REMARK    2  A    between atoms: C3_6  and  O3_7 
REMARK    3  A    between atoms: O3_7  and  C4_8 
REMARK    4  A    between atoms: C4_8  and  C5_9 
ROOT
HETATM    1  O3  UNL     1      35.853  61.550  16.705  1.00  0.00    -0.338 OA
ENDROOT
BRANCH   1   2
HETATM    2  C3  UNL     1      36.802  61.375  15.707  1.00  0.00     0.415 C 
HETATM    3  O2  UNL     1      37.954  60.799  16.232  1.00  0.00    -0.334 OA
HETATM    4  C2  UNL     1      39.040  61.502  15.774  1.00  0.00     0.234 C 
HETATM    5  C1  UNL     1      38.470  62.292  14.618  1.00  0.00     0.286 C 
HETATM    6  O4  UNL     1      37.177  62.577  15.116  1.00  0.00    -0.306 OA
BRANCH   5   7
HETATM    7  O1  UNL     1      39.190  63.495  14.449  1.00  0.00    -0.369 OA
ATOM      8  H1  UNL     1      39.318  63.673  13.524  1.00  0.00     0.212 HD
ENDBRANCH   5   7
ENDBRANCH   1   2
BRANCH   1   9
HETATM    9  C4  UNL     1      35.923  60.492  17.570  1.00  0.00     0.184 C 
BRANCH   9  10
HETATM   10  C5  UNL     1      35.830  60.817  19.001  1.00  0.00     0.011 C 
HETATM   11  C6  UNL     1      35.741  59.676  19.948  1.00  0.00     0.043 C 
HETATM   12  C7  UNL     1      35.046  60.319  21.155  1.00  0.00     0.273 C 
HETATM   13  N1  UNL     1      34.852  61.728  20.800  1.00  0.00     0.089 N 
HETATM   14  C8  UNL     1      36.181  62.321  20.767  1.00  0.00     0.273 C 
HETATM   15  C10 UNL     1      34.550  61.588  19.362  1.00  0.00     0.284 C 
HETATM   16  C9  UNL     1      36.864  61.787  19.504  1.00  0.00     0.043 C 
ENDBRANCH   9  10
ENDBRANCH   1   9
TORSDOF 4
ENDMDL
