MODEL 1
REMARK VINA RESULT: -8.872701957      0.000      0.000
REMARK  12 active torsions:
REMARK  status: ('A' for Active; 'I' for Inactive)
REMARK    1  A    between atoms: C2_2  and  C3_3 
REMARK    2  A    between atoms: C3_3  and  C4_4 
REMARK    3  A    between atoms: C4_4  and  C5_5 
REMARK    4  A    between atoms: C7_10  and  C8_11 
REMARK    5  A    between atoms: C8_11  and  C9_12 
REMARK    6  A    between atoms: C13_19  and  C14_20 
REMARK    7  A    between atoms: C14_20  and  C15_21 
REMARK    8  A    between atoms: C23_37  and  O5_38 
REMARK    9  A    between atoms: C24_40  and  C25_41 
REMARK   10  A    between atoms: C25_41  and  C26_42 
REMARK   11  A    between atoms: C30_49  and  C31_50 
REMARK   12  A    between atoms: C31_50  and  C32_51 
ROOT
HETATM    1  C5  UNL     1      14.598  20.551  19.307  1.00  0.00     0.155 C 
HETATM    2  N1  UNL     1      13.688  20.669  18.187  1.00  0.00    -0.348 N 
ATOM      3  H1  UNL     1      13.856  21.487  17.602  1.00  0.00     0.163 HD
HETATM    4  C6  UNL     1      12.629  19.878  17.759  1.00  0.00     0.241 C 
HETATM    5  O1  UNL     1      11.467  20.453  17.761  1.00  0.00    -0.271 OA
HETATM    6  C7  UNL     1      12.574  18.471  17.284  1.00  0.00     0.177 C 
HETATM    7  N2  UNL     1      11.201  18.123  16.900  1.00  0.00    -0.346 N 
ATOM      8  H2  UNL     1      10.586  17.780  17.638  1.00  0.00     0.163 HD
HETATM    9  C12 UNL     1      10.655  18.219  15.603  1.00  0.00     0.241 C 
HETATM   10  O2  UNL     1       9.864  17.334  15.161  1.00  0.00    -0.271 OA
HETATM   11  C13 UNL     1      10.903  19.298  14.611  1.00  0.00     0.177 C 
HETATM   12  N3  UNL     1      11.394  18.782  13.348  1.00  0.00    -0.346 N 
ATOM     13  H3  UNL     1      10.692  18.350  12.747  1.00  0.00     0.163 HD
HETATM   14  C18 UNL     1      12.692  18.795  12.841  1.00  0.00     0.236 C 
HETATM   15  O3  UNL     1      13.169  17.671  12.472  1.00  0.00    -0.272 OA
HETATM   16  C19 UNL     1      13.620  19.927  12.658  1.00  0.00     0.225 C 
HETATM   17  N4  UNL     1      14.070  20.529  13.885  1.00  0.00    -0.351 N 
ATOM     18  H4  UNL     1      13.950  19.974  14.732  1.00  0.00     0.163 HD
HETATM   19  C20 UNL     1      14.653  21.788  14.049  1.00  0.00     0.240 C 
HETATM   20  O4  UNL     1      14.195  22.578  14.916  1.00  0.00    -0.271 OA
HETATM   21  C21 UNL     1      15.810  22.310  13.267  1.00  0.00     0.171 C 
HETATM   22  C22 UNL     1      15.402  22.544  11.815  1.00  0.00     0.042 C 
HETATM   23  N5  UNL     1      16.282  23.544  13.800  1.00  0.00    -0.360 N 
ATOM     24  H5  UNL     1      16.407  24.282  13.106  1.00  0.00     0.162 HD
HETATM   25  C23 UNL     1      16.604  23.921  15.113  1.00  0.00     0.135 C 
HETATM   26  C24 UNL     1      17.570  23.302  16.049  1.00  0.00     0.159 C 
HETATM   27  N6  UNL     1      17.371  21.921  16.330  1.00  0.00    -0.348 N 
ATOM     28  H6  UNL     1      17.352  21.307  15.515  1.00  0.00     0.163 HD
HETATM   29  C29 UNL     1      17.196  21.281  17.568  1.00  0.00     0.229 C 
HETATM   30  O6  UNL     1      17.339  19.996  17.568  1.00  0.00    -0.273 OA
HETATM   31  C30 UNL     1      16.876  21.852  18.873  1.00  0.00     0.150 C 
HETATM   32  C35 UNL     1      15.521  21.741  19.370  1.00  0.00     0.162 C 
HETATM   33  O7  UNL     1      14.975  22.709  19.937  1.00  0.00    -0.295 OA
ENDROOT
BRANCH   1  34
HETATM   34  C4  UNL     1      13.883  20.374  20.623  1.00  0.00     0.033 C 
BRANCH  34  35
HETATM   35  C3  UNL     1      14.841  19.821  21.646  1.00  0.00     0.002 C 
BRANCH  35  36
HETATM   36  C2  UNL     1      14.788  18.283  21.519  1.00  0.00    -0.004 C 
HETATM   37  C1  UNL     1      13.736  17.765  22.501  1.00  0.00     0.005 C 
ENDBRANCH  35  36
ENDBRANCH  34  35
ENDBRANCH   1  34
BRANCH  31  38
HETATM   38  C31 UNL     1      17.923  21.419  19.902  1.00  0.00     0.025 C 
BRANCH  38  39
HETATM   39  C32 UNL     1      19.102  22.327  19.999  1.00  0.00    -0.021 C 
HETATM   40  C33 UNL     1      18.800  23.689  20.547  1.00  0.00     0.009 C 
HETATM   41  C34 UNL     1      20.128  21.641  20.877  1.00  0.00     0.009 C 
ENDBRANCH  38  39
ENDBRANCH  31  38
BRANCH   6  42
HETATM   42  C8  UNL     1      13.193  17.497  18.208  1.00  0.00     0.038 C 
BRANCH  42  43
HETATM   43  C9  UNL     1      12.285  16.703  19.086  1.00  0.00    -0.020 C 
HETATM   44  C10 UNL     1      11.436  15.665  18.457  1.00  0.00     0.009 C 
HETATM   45  C11 UNL     1      11.491  17.608  20.028  1.00  0.00     0.009 C 
ENDBRANCH  42  43
ENDBRANCH   6  42
BRANCH  26  46
HETATM   46  C25 UNL     1      18.971  23.671  15.628  1.00  0.00     0.037 C 
BRANCH  46  47
HETATM   47  C26 UNL     1      19.210  25.082  15.232  1.00  0.00    -0.020 C 
HETATM   48  C27 UNL     1      19.728  25.780  16.523  1.00  0.00     0.009 C 
HETATM   49  C28 UNL     1      20.413  25.206  14.283  1.00  0.00     0.009 C 
ENDBRANCH  46  47
ENDBRANCH  26  46
BRANCH  11  50
HETATM   50  C14 UNL     1       9.589  20.036  14.440  1.00  0.00     0.038 C 
BRANCH  50  51
HETATM   51  C15 UNL     1       9.731  21.526  14.549  1.00  0.00    -0.020 C 
HETATM   52  C16 UNL     1       9.115  21.960  15.877  1.00  0.00     0.009 C 
HETATM   53  C17 UNL     1      11.172  21.987  14.581  1.00  0.00     0.009 C 
ENDBRANCH  50  51
ENDBRANCH  11  50
BRANCH  25  54
HETATM   54  O5  UNL     1      15.989  24.954  15.607  1.00  0.00    -0.348 OA
ATOM     55  H5  UNL     1      15.634  24.873  16.484  1.00  0.00     0.219 HD
ENDBRANCH  25  54
TORSDOF 12
ENDMDL
MODEL 2
REMARK VINA RESULT: -7.730845037      0.754      1.070
REMARK  12 active torsions:
REMARK  status: ('A' for Active; 'I' for Inactive)
REMARK    1  A    between atoms: C2_2  and  C3_3 
REMARK    2  A    between atoms: C3_3  and  C4_4 
REMARK    3  A    between atoms: C4_4  and  C5_5 
REMARK    4  A    between atoms: C7_10  and  C8_11 
REMARK    5  A    between atoms: C8_11  and  C9_12 
REMARK    6  A    between atoms: C13_19  and  C14_20 
REMARK    7  A    between atoms: C14_20  and  C15_21 
REMARK    8  A    between atoms: C23_37  and  O5_38 
REMARK    9  A    between atoms: C24_40  and  C25_41 
REMARK   10  A    between atoms: C25_41  and  C26_42 
REMARK   11  A    between atoms: C30_49  and  C31_50 
REMARK   12  A    between atoms: C31_50  and  C32_51 
ROOT
HETATM    1  C5  UNL     1      14.445  20.502  19.265  1.00  0.00     0.155 C 
HETATM    2  N1  UNL     1      13.539  20.516  18.135  1.00  0.00    -0.348 N 
ATOM      3  H1  UNL     1      13.677  21.305  17.503  1.00  0.00     0.163 HD
HETATM    4  C6  UNL     1      12.517  19.658  17.749  1.00  0.00     0.241 C 
HETATM    5  O1  UNL     1      11.332  20.182  17.711  1.00  0.00    -0.271 OA
HETATM    6  C7  UNL     1      12.524  18.224  17.357  1.00  0.00     0.177 C 
HETATM    7  N2  UNL     1      11.170  17.797  16.988  1.00  0.00    -0.346 N 
ATOM      8  H2  UNL     1      10.564  17.472  17.741  1.00  0.00     0.163 HD
HETATM    9  C12 UNL     1      10.630  17.794  15.684  1.00  0.00     0.241 C 
HETATM   10  O2  UNL     1       9.880  16.852  15.292  1.00  0.00    -0.271 OA
HETATM   11  C13 UNL     1      10.840  18.823  14.632  1.00  0.00     0.177 C 
HETATM   12  N3  UNL     1      11.362  18.255  13.404  1.00  0.00    -0.346 N 
ATOM     13  H3  UNL     1      10.683  17.759  12.826  1.00  0.00     0.163 HD
HETATM   14  C18 UNL     1      12.661  18.293  12.903  1.00  0.00     0.236 C 
HETATM   15  O3  UNL     1      13.188  17.170  12.604  1.00  0.00    -0.272 OA
HETATM   16  C19 UNL     1      13.543  19.450  12.659  1.00  0.00     0.225 C 
HETATM   17  N4  UNL     1      13.959  20.141  13.851  1.00  0.00    -0.351 N 
ATOM     18  H4  UNL     1      13.855  19.632  14.728  1.00  0.00     0.163 HD
HETATM   19  C20 UNL     1      14.487  21.431  13.943  1.00  0.00     0.240 C 
HETATM   20  O4  UNL     1      13.991  22.250  14.760  1.00  0.00    -0.271 OA
HETATM   21  C21 UNL     1      15.627  21.954  13.137  1.00  0.00     0.171 C 
HETATM   22  C22 UNL     1      15.220  22.086  11.672  1.00  0.00     0.042 C 
HETATM   23  N5  UNL     1      16.043  23.236  13.599  1.00  0.00    -0.360 N 
ATOM     24  H5  UNL     1      16.143  23.937  12.864  1.00  0.00     0.162 HD
HETATM   25  C23 UNL     1      16.340  23.702  14.890  1.00  0.00     0.135 C 
HETATM   26  C24 UNL     1      17.324  23.180  15.865  1.00  0.00     0.159 C 
HETATM   27  N6  UNL     1      17.180  21.811  16.226  1.00  0.00    -0.348 N 
ATOM     28  H6  UNL     1      17.193  21.150  15.448  1.00  0.00     0.163 HD
HETATM   29  C29 UNL     1      17.023  21.238  17.499  1.00  0.00     0.229 C 
HETATM   30  O6  UNL     1      17.220  19.962  17.575  1.00  0.00    -0.273 OA
HETATM   31  C30 UNL     1      16.670  21.870  18.766  1.00  0.00     0.150 C 
HETATM   32  C35 UNL     1      15.317  21.732  19.262  1.00  0.00     0.162 C 
HETATM   33  O7  UNL     1      14.727  22.708  19.768  1.00  0.00    -0.295 OA
ENDROOT
BRANCH   1  34
HETATM   34  C4  UNL     1      13.728  20.373  20.585  1.00  0.00     0.033 C 
BRANCH  34  35
HETATM   35  C3  UNL     1      14.703  19.930  21.645  1.00  0.00     0.002 C 
BRANCH  35  36
HETATM   36  C2  UNL     1      14.807  18.392  21.538  1.00  0.00    -0.004 C 
HETATM   37  C1  UNL     1      13.827  17.782  22.540  1.00  0.00     0.005 C 
ENDBRANCH  35  36
ENDBRANCH  34  35
ENDBRANCH   1  34
BRANCH  31  38
HETATM   38  C31 UNL     1      17.726  21.542  19.824  1.00  0.00     0.025 C 
BRANCH  38  39
HETATM   39  C32 UNL     1      18.959  22.378  19.741  1.00  0.00    -0.021 C 
HETATM   40  C33 UNL     1      18.748  23.836  20.014  1.00  0.00     0.009 C 
HETATM   41  C34 UNL     1      19.954  21.813  20.734  1.00  0.00     0.009 C 
ENDBRANCH  38  39
ENDBRANCH  31  38
BRANCH   6  42
HETATM   42  C8  UNL     1      13.176  17.333  18.340  1.00  0.00     0.038 C 
BRANCH  42  43
HETATM   43  C9  UNL     1      12.297  16.584  19.284  1.00  0.00    -0.020 C 
HETATM   44  C10 UNL     1      11.399  15.545  18.730  1.00  0.00     0.009 C 
HETATM   45  C11 UNL     1      11.568  17.533  20.235  1.00  0.00     0.009 C 
ENDBRANCH  42  43
ENDBRANCH   6  42
BRANCH  26  46
HETATM   46  C25 UNL     1      18.711  23.583  15.430  1.00  0.00     0.037 C 
BRANCH  46  47
HETATM   47  C26 UNL     1      18.972  25.033  15.251  1.00  0.00    -0.020 C 
HETATM   48  C27 UNL     1      19.387  25.544  16.661  1.00  0.00     0.009 C 
HETATM   49  C28 UNL     1      20.241  25.281  14.422  1.00  0.00     0.009 C 
ENDBRANCH  46  47
ENDBRANCH  26  46
BRANCH  11  50
HETATM   50  C14 UNL     1       9.498  19.494  14.411  1.00  0.00     0.038 C 
BRANCH  50  51
HETATM   51  C15 UNL     1       8.510  18.616  13.700  1.00  0.00    -0.020 C 
HETATM   52  C16 UNL     1       7.139  18.842  14.333  1.00  0.00     0.009 C 
HETATM   53  C17 UNL     1       8.359  18.956  12.232  1.00  0.00     0.009 C 
ENDBRANCH  50  51
ENDBRANCH  11  50
BRANCH  25  54
HETATM   54  O5  UNL     1      15.679  24.736  15.318  1.00  0.00    -0.348 OA
ATOM     55  H5  UNL     1      15.241  24.657  16.158  1.00  0.00     0.219 HD
ENDBRANCH  25  54
TORSDOF 12
ENDMDL
MODEL 3
REMARK VINA RESULT: -7.573410159      1.349      1.733
REMARK  12 active torsions:
REMARK  status: ('A' for Active; 'I' for Inactive)
REMARK    1  A    between atoms: C2_2  and  C3_3 
REMARK    2  A    between atoms: C3_3  and  C4_4 
REMARK    3  A    between atoms: C4_4  and  C5_5 
REMARK    4  A    between atoms: C7_10  and  C8_11 
REMARK    5  A    between atoms: C8_11  and  C9_12 
REMARK    6  A    between atoms: C13_19  and  C14_20 
REMARK    7  A    between atoms: C14_20  and  C15_21 
REMARK    8  A    between atoms: C23_37  and  O5_38 
REMARK    9  A    between atoms: C24_40  and  C25_41 
REMARK   10  A    between atoms: C25_41  and  C26_42 
REMARK   11  A    between atoms: C30_49  and  C31_50 
REMARK   12  A    between atoms: C31_50  and  C32_51 
ROOT
HETATM    1  C5  UNL     1      16.053  21.832  19.158  1.00  0.00     0.155 C 
HETATM    2  N1  UNL     1      14.995  21.743  18.174  1.00  0.00    -0.348 N 
ATOM      3  H1  UNL     1      15.000  22.500  17.490  1.00  0.00     0.163 HD
HETATM    4  C6  UNL     1      13.973  20.821  17.984  1.00  0.00     0.241 C 
HETATM    5  O1  UNL     1      12.770  21.290  18.095  1.00  0.00    -0.271 OA
HETATM    6  C7  UNL     1      13.997  19.369  17.668  1.00  0.00     0.177 C 
HETATM    7  N2  UNL     1      12.627  18.863  17.522  1.00  0.00    -0.346 N 
ATOM      8  H2  UNL     1      12.153  18.556  18.372  1.00  0.00     0.163 HD
HETATM    9  C12 UNL     1      11.906  18.763  16.314  1.00  0.00     0.241 C 
HETATM   10  O2  UNL     1      11.156  17.769  16.083  1.00  0.00    -0.271 OA
HETATM   11  C13 UNL     1      11.910  19.739  15.192  1.00  0.00     0.177 C 
HETATM   12  N3  UNL     1      12.277  19.125  13.930  1.00  0.00    -0.346 N 
ATOM     13  H3  UNL     1      11.549  18.569  13.484  1.00  0.00     0.163 HD
HETATM   14  C18 UNL     1      13.488  19.191  13.244  1.00  0.00     0.236 C 
HETATM   15  O3  UNL     1      14.023  18.077  12.927  1.00  0.00    -0.272 OA
HETATM   16  C19 UNL     1      14.266  20.369  12.816  1.00  0.00     0.225 C 
HETATM   17  N4  UNL     1      14.812  21.144  13.898  1.00  0.00    -0.351 N 
ATOM     18  H4  UNL     1      14.862  20.682  14.805  1.00  0.00     0.163 HD
HETATM   19  C20 UNL     1      15.283  22.459  13.848  1.00  0.00     0.240 C 
HETATM   20  O4  UNL     1      14.868  23.301  14.687  1.00  0.00    -0.271 OA
HETATM   21  C21 UNL     1      16.266  22.984  12.859  1.00  0.00     0.171 C 
HETATM   22  C22 UNL     1      15.647  23.015  11.465  1.00  0.00     0.042 C 
HETATM   23  N5  UNL     1      16.679  24.307  13.190  1.00  0.00    -0.360 N 
ATOM     24  H5  UNL     1      16.636  24.969  12.415  1.00  0.00     0.162 HD
HETATM   25  C23 UNL     1      17.134  24.858  14.399  1.00  0.00     0.135 C 
HETATM   26  C24 UNL     1      18.273  24.435  15.244  1.00  0.00     0.159 C 
HETATM   27  N6  UNL     1      18.253  23.083  15.690  1.00  0.00    -0.348 N 
ATOM     28  H6  UNL     1      18.187  22.381  14.953  1.00  0.00     0.163 HD
HETATM   29  C29 UNL     1      18.310  22.577  16.999  1.00  0.00     0.229 C 
HETATM   30  O6  UNL     1      18.580  21.317  17.109  1.00  0.00    -0.273 OA
HETATM   31  C30 UNL     1      18.111  23.264  18.272  1.00  0.00     0.150 C 
HETATM   32  C35 UNL     1      16.852  23.095  18.966  1.00  0.00     0.162 C 
HETATM   33  O7  UNL     1      16.292  24.072  19.504  1.00  0.00    -0.295 OA
ENDROOT
BRANCH   1  34
HETATM   34  C4  UNL     1      15.542  21.746  20.574  1.00  0.00     0.033 C 
BRANCH  34  35
HETATM   35  C3  UNL     1      15.516  20.306  21.013  1.00  0.00     0.002 C 
BRANCH  35  36
HETATM   36  C2  UNL     1      14.151  20.074  21.698  1.00  0.00    -0.004 C 
HETATM   37  C1  UNL     1      14.306  18.909  22.676  1.00  0.00     0.005 C 
ENDBRANCH  35  36
ENDBRANCH  34  35
ENDBRANCH   1  34
BRANCH  31  38
HETATM   38  C31 UNL     1      19.324  23.043  19.178  1.00  0.00     0.025 C 
BRANCH  38  39
HETATM   39  C32 UNL     1      19.740  24.247  19.953  1.00  0.00    -0.021 C 
HETATM   40  C33 UNL     1      19.488  24.162  21.428  1.00  0.00     0.009 C 
HETATM   41  C34 UNL     1      21.220  24.455  19.701  1.00  0.00     0.009 C 
ENDBRANCH  38  39
ENDBRANCH  31  38
BRANCH   6  42
HETATM   42  C8  UNL     1      14.828  18.563  18.588  1.00  0.00     0.038 C 
BRANCH  42  43
HETATM   43  C9  UNL     1      14.210  17.349  19.194  1.00  0.00    -0.020 C 
HETATM   44  C10 UNL     1      12.819  17.447  19.694  1.00  0.00     0.009 C 
HETATM   45  C11 UNL     1      15.146  16.697  20.210  1.00  0.00     0.009 C 
ENDBRANCH  42  43
ENDBRANCH   6  42
BRANCH  26  46
HETATM   46  C25 UNL     1      19.561  24.872  14.591  1.00  0.00     0.037 C 
BRANCH  46  47
HETATM   47  C26 UNL     1      20.330  25.949  15.262  1.00  0.00    -0.020 C 
HETATM   48  C27 UNL     1      19.959  27.249  14.492  1.00  0.00     0.009 C 
HETATM   49  C28 UNL     1      19.790  26.235  16.672  1.00  0.00     0.009 C 
ENDBRANCH  46  47
ENDBRANCH  26  46
BRANCH  11  50
HETATM   50  C14 UNL     1      10.517  20.338  15.137  1.00  0.00     0.038 C 
BRANCH  50  51
HETATM   51  C15 UNL     1      10.390  21.443  14.130  1.00  0.00    -0.020 C 
HETATM   52  C16 UNL     1       9.199  22.310  14.532  1.00  0.00     0.009 C 
HETATM   53  C17 UNL     1      11.592  22.364  14.100  1.00  0.00     0.009 C 
ENDBRANCH  50  51
ENDBRANCH  11  50
BRANCH  25  54
HETATM   54  O5  UNL     1      16.489  25.885  14.868  1.00  0.00    -0.348 OA
ATOM     55  H5  UNL     1      16.222  26.553  14.248  1.00  0.00     0.219 HD
ENDBRANCH  25  54
TORSDOF 12
ENDMDL
MODEL 4
REMARK VINA RESULT: -7.235259788      2.831      7.537
REMARK  12 active torsions:
REMARK  status: ('A' for Active; 'I' for Inactive)
REMARK    1  A    between atoms: C2_2  and  C3_3 
REMARK    2  A    between atoms: C3_3  and  C4_4 
REMARK    3  A    between atoms: C4_4  and  C5_5 
REMARK    4  A    between atoms: C7_10  and  C8_11 
REMARK    5  A    between atoms: C8_11  and  C9_12 
REMARK    6  A    between atoms: C13_19  and  C14_20 
REMARK    7  A    between atoms: C14_20  and  C15_21 
REMARK    8  A    between atoms: C23_37  and  O5_38 
REMARK    9  A    between atoms: C24_40  and  C25_41 
REMARK   10  A    between atoms: C25_41  and  C26_42 
REMARK   11  A    between atoms: C30_49  and  C31_50 
REMARK   12  A    between atoms: C31_50  and  C32_51 
ROOT
HETATM    1  C5  UNL     1      12.795  20.183  14.390  1.00  0.00     0.155 C 
HETATM    2  N1  UNL     1      12.368  18.829  14.107  1.00  0.00    -0.348 N 
ATOM      3  H1  UNL     1      12.674  18.145  14.800  1.00  0.00     0.163 HD
HETATM    4  C6  UNL     1      11.620  18.284  13.071  1.00  0.00     0.241 C 
HETATM    5  O1  UNL     1      12.237  17.413  12.335  1.00  0.00    -0.271 OA
HETATM    6  C7  UNL     1      10.216  18.510  12.640  1.00  0.00     0.177 C 
HETATM    7  N2  UNL     1       9.892  17.639  11.504  1.00  0.00    -0.346 N 
ATOM      8  H2  UNL     1      10.117  17.989  10.573  1.00  0.00     0.163 HD
HETATM    9  C12 UNL     1       9.298  16.362  11.584  1.00  0.00     0.241 C 
HETATM   10  O2  UNL     1       8.432  15.992  10.737  1.00  0.00    -0.271 OA
HETATM   11  C13 UNL     1       9.573  15.315  12.603  1.00  0.00     0.177 C 
HETATM   12  N3  UNL     1       8.368  14.883  13.286  1.00  0.00    -0.346 N 
ATOM     13  H3  UNL     1       7.766  14.253  12.757  1.00  0.00     0.163 HD
HETATM   14  C18 UNL     1       7.920  15.210  14.564  1.00  0.00     0.236 C 
HETATM   15  O3  UNL     1       6.737  15.679  14.649  1.00  0.00    -0.272 OA
HETATM   16  C19 UNL     1       8.612  15.095  15.862  1.00  0.00     0.225 C 
HETATM   17  N4  UNL     1       9.743  15.972  16.011  1.00  0.00    -0.351 N 
ATOM     18  H4  UNL     1       9.794  16.759  15.364  1.00  0.00     0.163 HD
HETATM   19  C20 UNL     1      10.781  15.869  16.941  1.00  0.00     0.240 C 
HETATM   20  O4  UNL     1      11.976  15.914  16.547  1.00  0.00    -0.271 OA
HETATM   21  C21 UNL     1      10.605  15.702  18.411  1.00  0.00     0.171 C 
HETATM   22  C22 UNL     1      10.017  14.328  18.720  1.00  0.00     0.042 C 
HETATM   23  N5  UNL     1      11.848  15.818  19.098  1.00  0.00    -0.360 N 
ATOM     24  H5  UNL     1      12.033  15.067  19.764  1.00  0.00     0.162 HD
HETATM   25  C23 UNL     1      12.863  16.784  19.017  1.00  0.00     0.135 C 
HETATM   26  C24 UNL     1      12.772  18.249  19.214  1.00  0.00     0.159 C 
HETATM   27  N6  UNL     1      11.841  18.934  18.384  1.00  0.00    -0.348 N 
ATOM     28  H6  UNL     1      10.880  18.594  18.433  1.00  0.00     0.163 HD
HETATM   29  C29 UNL     1      12.054  20.011  17.509  1.00  0.00     0.229 C 
HETATM   30  O6  UNL     1      10.994  20.637  17.110  1.00  0.00    -0.273 OA
HETATM   31  C30 UNL     1      13.304  20.543  16.975  1.00  0.00     0.150 C 
HETATM   32  C35 UNL     1      13.675  20.219  15.613  1.00  0.00     0.162 C 
HETATM   33  O7  UNL     1      14.854  19.923  15.333  1.00  0.00    -0.295 OA
ENDROOT
BRANCH   1  34
HETATM   34  C4  UNL     1      13.498  20.828  13.222  1.00  0.00     0.033 C 
BRANCH  34  35
HETATM   35  C3  UNL     1      13.790  22.271  13.544  1.00  0.00     0.002 C 
BRANCH  35  36
HETATM   36  C2  UNL     1      15.238  22.545  13.082  1.00  0.00    -0.004 C 
HETATM   37  C1  UNL     1      16.013  23.113  14.272  1.00  0.00     0.005 C 
ENDBRANCH  35  36
ENDBRANCH  34  35
ENDBRANCH   1  34
BRANCH  31  38
HETATM   38  C31 UNL     1      13.407  22.039  17.279  1.00  0.00     0.025 C 
BRANCH  38  39
HETATM   39  C32 UNL     1      14.310  22.375  18.417  1.00  0.00    -0.021 C 
HETATM   40  C33 UNL     1      15.119  21.225  18.936  1.00  0.00     0.009 C 
HETATM   41  C34 UNL     1      15.236  23.478  17.947  1.00  0.00     0.009 C 
ENDBRANCH  38  39
ENDBRANCH  31  38
BRANCH   6  42
HETATM   42  C8  UNL     1       9.876  19.930  12.410  1.00  0.00     0.038 C 
BRANCH  42  43
HETATM   43  C9  UNL     1       9.268  20.687  13.542  1.00  0.00    -0.020 C 
HETATM   44  C10 UNL     1      10.023  21.830  14.105  1.00  0.00     0.009 C 
HETATM   45  C11 UNL     1       8.751  19.744  14.627  1.00  0.00     0.009 C 
ENDBRANCH  42  43
ENDBRANCH   6  42
BRANCH  26  46
HETATM   46  C25 UNL     1      12.649  18.541  20.689  1.00  0.00     0.037 C 
BRANCH  46  47
HETATM   47  C26 UNL     1      13.809  18.197  21.548  1.00  0.00    -0.020 C 
HETATM   48  C27 UNL     1      14.205  19.531  22.243  1.00  0.00     0.009 C 
HETATM   49  C28 UNL     1      13.391  17.316  22.736  1.00  0.00     0.009 C 
ENDBRANCH  46  47
ENDBRANCH  26  46
BRANCH  11  50
HETATM   50  C14 UNL     1      10.243  14.166  11.873  1.00  0.00     0.038 C 
BRANCH  50  51
HETATM   51  C15 UNL     1      11.174  13.376  12.745  1.00  0.00    -0.020 C 
HETATM   52  C16 UNL     1      11.902  14.355  13.663  1.00  0.00     0.009 C 
HETATM   53  C17 UNL     1      10.456  12.399  13.652  1.00  0.00     0.009 C 
ENDBRANCH  50  51
ENDBRANCH  11  50
BRANCH  25  54
HETATM   54  O5  UNL     1      14.062  16.369  18.734  1.00  0.00    -0.348 OA
ATOM     55  H5  UNL     1      14.765  17.008  18.768  1.00  0.00     0.219 HD
ENDBRANCH  25  54
TORSDOF 12
ENDMDL
MODEL 5
REMARK VINA RESULT: -7.005835723      2.310      7.081
REMARK  12 active torsions:
REMARK  status: ('A' for Active; 'I' for Inactive)
REMARK    1  A    between atoms: C2_2  and  C3_3 
REMARK    2  A    between atoms: C3_3  and  C4_4 
REMARK    3  A    between atoms: C4_4  and  C5_5 
REMARK    4  A    between atoms: C7_10  and  C8_11 
REMARK    5  A    between atoms: C8_11  and  C9_12 
REMARK    6  A    between atoms: C13_19  and  C14_20 
REMARK    7  A    between atoms: C14_20  and  C15_21 
REMARK    8  A    between atoms: C23_37  and  O5_38 
REMARK    9  A    between atoms: C24_40  and  C25_41 
REMARK   10  A    between atoms: C25_41  and  C26_42 
REMARK   11  A    between atoms: C30_49  and  C31_50 
REMARK   12  A    between atoms: C31_50  and  C32_51 
ROOT
HETATM    1  C5  UNL     1      14.207  20.685  15.384  1.00  0.00     0.155 C 
HETATM    2  N1  UNL     1      13.691  19.434  14.870  1.00  0.00    -0.348 N 
ATOM      3  H1  UNL     1      13.733  18.664  15.538  1.00  0.00     0.163 HD
HETATM    4  C6  UNL     1      13.150  19.083  13.639  1.00  0.00     0.241 C 
HETATM    5  O1  UNL     1      13.810  18.187  12.974  1.00  0.00    -0.271 OA
HETATM    6  C7  UNL     1      11.931  19.547  12.927  1.00  0.00     0.177 C 
HETATM    7  N2  UNL     1      11.781  18.819  11.662  1.00  0.00    -0.346 N 
ATOM      8  H2  UNL     1      12.265  19.199  10.848  1.00  0.00     0.163 HD
HETATM    9  C12 UNL     1      11.028  17.642  11.468  1.00  0.00     0.241 C 
HETATM   10  O2  UNL     1      10.349  17.468  10.413  1.00  0.00    -0.271 OA
HETATM   11  C13 UNL     1      10.915  16.494  12.406  1.00  0.00     0.177 C 
HETATM   12  N3  UNL     1       9.537  16.197  12.748  1.00  0.00    -0.346 N 
ATOM     13  H3  UNL     1       9.003  15.704  12.032  1.00  0.00     0.163 HD
HETATM   14  C18 UNL     1       8.841  16.492  13.918  1.00  0.00     0.236 C 
HETATM   15  O3  UNL     1       7.741  17.125  13.782  1.00  0.00    -0.272 OA
HETATM   16  C19 UNL     1       9.181  16.181  15.320  1.00  0.00     0.225 C 
HETATM   17  N4  UNL     1      10.346  16.867  15.814  1.00  0.00    -0.351 N 
ATOM     18  H4  UNL     1      10.650  17.682  15.283  1.00  0.00     0.163 HD
HETATM   19  C20 UNL     1      11.109  16.542  16.938  1.00  0.00     0.240 C 
HETATM   20  O4  UNL     1      12.359  16.439  16.833  1.00  0.00    -0.271 OA
HETATM   21  C21 UNL     1      10.566  16.296  18.305  1.00  0.00     0.171 C 
HETATM   22  C22 UNL     1       9.752  15.006  18.324  1.00  0.00     0.042 C 
HETATM   23  N5  UNL     1      11.613  16.175  19.264  1.00  0.00    -0.360 N 
ATOM     24  H5  UNL     1      11.536  15.359  19.871  1.00  0.00     0.162 HD
HETATM   25  C23 UNL     1      12.732  16.984  19.518  1.00  0.00     0.135 C 
HETATM   26  C24 UNL     1      12.784  18.427  19.844  1.00  0.00     0.159 C 
HETATM   27  N6  UNL     1      12.173  19.302  18.902  1.00  0.00    -0.348 N 
ATOM     28  H6  UNL     1      11.193  19.106  18.695  1.00  0.00     0.163 HD
HETATM   29  C29 UNL     1      12.725  20.397  18.217  1.00  0.00     0.229 C 
HETATM   30  O6  UNL     1      11.880  21.201  17.657  1.00  0.00    -0.273 OA
HETATM   31  C30 UNL     1      14.124  20.775  18.040  1.00  0.00     0.150 C 
HETATM   32  C35 UNL     1      14.766  20.501  16.772  1.00  0.00     0.162 C 
HETATM   33  O7  UNL     1      15.930  20.054  16.737  1.00  0.00    -0.295 OA
ENDROOT
BRANCH   1  34
HETATM   34  C4  UNL     1      15.245  21.303  14.481  1.00  0.00     0.033 C 
BRANCH  34  35
HETATM   35  C3  UNL     1      15.266  22.795  14.685  1.00  0.00     0.002 C 
BRANCH  35  36
HETATM   36  C2  UNL     1      16.751  23.220  14.712  1.00  0.00    -0.004 C 
HETATM   37  C1  UNL     1      16.813  24.733  14.499  1.00  0.00     0.005 C 
ENDBRANCH  35  36
ENDBRANCH  34  35
ENDBRANCH   1  34
BRANCH  31  38
HETATM   38  C31 UNL     1      14.340  22.213  18.517  1.00  0.00     0.025 C 
BRANCH  38  39
HETATM   39  C32 UNL     1      15.755  22.679  18.440  1.00  0.00    -0.021 C 
HETATM   40  C33 UNL     1      15.918  24.153  18.220  1.00  0.00     0.009 C 
HETATM   41  C34 UNL     1      16.431  22.281  19.736  1.00  0.00     0.009 C 
ENDBRANCH  38  39
ENDBRANCH  31  38
BRANCH   6  42
HETATM   42  C8  UNL     1      11.839  21.015  12.778  1.00  0.00     0.038 C 
BRANCH  42  43
HETATM   43  C9  UNL     1      11.024  21.761  13.779  1.00  0.00    -0.020 C 
HETATM   44  C10 UNL     1      11.724  22.681  14.706  1.00  0.00     0.009 C 
HETATM   45  C11 UNL     1      10.052  20.834  14.507  1.00  0.00     0.009 C 
ENDBRANCH  42  43
ENDBRANCH   6  42
BRANCH  26  46
HETATM   46  C25 UNL     1      12.349  18.625  21.275  1.00  0.00     0.037 C 
BRANCH  46  47
HETATM   47  C26 UNL     1      13.417  18.790  22.292  1.00  0.00    -0.020 C 
HETATM   48  C27 UNL     1      13.601  17.377  22.916  1.00  0.00     0.009 C 
HETATM   49  C28 UNL     1      14.784  19.044  21.638  1.00  0.00     0.009 C 
ENDBRANCH  46  47
ENDBRANCH  26  46
BRANCH  11  50
HETATM   50  C14 UNL     1      11.588  15.316  11.729  1.00  0.00     0.038 C 
BRANCH  50  51
HETATM   51  C15 UNL     1      12.952  15.643  11.197  1.00  0.00    -0.020 C 
HETATM   52  C16 UNL     1      13.985  15.044  12.149  1.00  0.00     0.009 C 
HETATM   53  C17 UNL     1      13.225  15.032   9.838  1.00  0.00     0.009 C 
ENDBRANCH  50  51
ENDBRANCH  11  50
BRANCH  25  54
HETATM   54  O5  UNL     1      13.902  16.417  19.472  1.00  0.00    -0.348 OA
ATOM     55  H5  UNL     1      14.651  16.941  19.729  1.00  0.00     0.219 HD
ENDBRANCH  25  54
TORSDOF 12
ENDMDL
