MODEL 1
REMARK VINA RESULT: -6.317080599      0.000      0.000
REMARK  12 active torsions:
REMARK  status: ('A' for Active; 'I' for Inactive)
REMARK    1  A    between atoms: C2_2  and  C3_3 
REMARK    2  A    between atoms: C3_3  and  C4_4 
REMARK    3  A    between atoms: C4_4  and  C5_5 
REMARK    4  A    between atoms: C5_5  and  N1_6 
REMARK       I    between atoms: N1_6  and  C6_8 
REMARK    5  A    between atoms: C6_8  and  C7_10 
REMARK    6  A    between atoms: C7_10  and  C8_11 
REMARK    7  A    between atoms: C10_16  and  C11_17 
REMARK    8  A    between atoms: C11_17  and  C12_18 
REMARK    9  A    between atoms: C16_25  and  C17_26 
REMARK   10  A    between atoms: C17_26  and  C18_27 
REMARK   11  A    between atoms: C26_41  and  C27_42 
REMARK   12  A    between atoms: C29_44  and  C30_45 
ROOT
HETATM    1  C8  UNL     1      24.384  26.996  17.454  1.00  0.00     0.185 C 
HETATM    2  N2  UNL     1      25.176  28.031  18.136  1.00  0.00    -0.346 N 
ATOM      3  H2  UNL     1      24.747  28.527  18.917  1.00  0.00     0.163 HD
HETATM    4  C9  UNL     1      26.498  28.378  17.774  1.00  0.00     0.241 C 
HETATM    5  O2  UNL     1      26.770  29.622  17.592  1.00  0.00    -0.271 OA
HETATM    6  C10 UNL     1      27.626  27.440  17.578  1.00  0.00     0.177 C 
HETATM    7  N3  UNL     1      28.851  28.136  17.905  1.00  0.00    -0.346 N 
ATOM      8  H3  UNL     1      29.420  28.474  17.129  1.00  0.00     0.163 HD
HETATM    9  C15 UNL     1      29.322  28.385  19.211  1.00  0.00     0.241 C 
HETATM   10  O3  UNL     1      29.950  29.447  19.429  1.00  0.00    -0.271 OA
HETATM   11  C16 UNL     1      29.121  27.470  20.352  1.00  0.00     0.177 C 
HETATM   12  N4  UNL     1      28.028  27.982  21.174  1.00  0.00    -0.346 N 
ATOM     13  H4  UNL     1      27.498  28.752  20.766  1.00  0.00     0.163 HD
HETATM   14  C21 UNL     1      27.607  27.572  22.427  1.00  0.00     0.240 C 
HETATM   15  O4  UNL     1      27.532  28.473  23.349  1.00  0.00    -0.271 OA
HETATM   16  C22 UNL     1      27.212  26.241  22.926  1.00  0.00     0.172 C 
HETATM   17  C23 UNL     1      27.990  26.019  24.230  1.00  0.00     0.042 C 
HETATM   18  N5  UNL     1      27.443  25.129  22.088  1.00  0.00    -0.348 N 
ATOM     19  H5  UNL     1      28.395  24.976  21.753  1.00  0.00     0.163 HD
HETATM   20  C24 UNL     1      26.427  24.194  21.671  1.00  0.00     0.218 C 
HETATM   21  O5  UNL     1      26.745  22.961  21.504  1.00  0.00    -0.274 OA
HETATM   22  C25 UNL     1      25.053  24.593  21.433  1.00  0.00     0.109 C 
HETATM   23  C26 UNL     1      24.529  24.492  20.036  1.00  0.00     0.017 C 
HETATM   24  C29 UNL     1      23.071  24.754  19.934  1.00  0.00     0.093 C 
HETATM   25  N6  UNL     1      22.650  25.618  18.853  1.00  0.00    -0.354 N 
ATOM     26  H6  UNL     1      21.773  25.320  18.426  1.00  0.00     0.162 HD
HETATM   27  C36 UNL     1      23.169  26.746  18.278  1.00  0.00     0.241 C 
HETATM   28  O6  UNL     1      22.538  27.871  18.425  1.00  0.00    -0.271 OA
ENDROOT
BRANCH   1  29
HETATM   29  C7  UNL     1      23.900  27.622  16.125  1.00  0.00     0.137 C 
BRANCH  29  30
HETATM   30  C6  UNL     1      22.718  26.988  15.575  1.00  0.00     0.220 C 
HETATM   31  N1  UNL     1      21.462  27.629  15.725  1.00  0.00    -0.361 N 
ATOM     32  H1  UNL     1      21.408  28.520  16.219  1.00  0.00     0.162 HD
HETATM   33  O1  UNL     1      22.774  25.897  14.975  1.00  0.00    -0.274 OA
BRANCH  31  34
HETATM   34  C5  UNL     1      20.255  27.036  15.188  1.00  0.00     0.122 C 
BRANCH  34  35
HETATM   35  C4  UNL     1      19.549  26.187  16.213  1.00  0.00     0.020 C 
BRANCH  35  36
HETATM   36  C3  UNL     1      19.510  24.737  15.794  1.00  0.00     0.001 C 
BRANCH  36  37
HETATM   37  C2  UNL     1      18.481  23.985  16.616  1.00  0.00    -0.004 C 
HETATM   38  C1  UNL     1      17.752  24.900  17.567  1.00  0.00     0.005 C 
ENDBRANCH  36  37
ENDBRANCH  35  36
ENDBRANCH  34  35
ENDBRANCH  31  34
ENDBRANCH  29  30
ENDBRANCH   1  29
BRANCH   6  39
HETATM   39  C11 UNL     1      27.707  27.017  16.132  1.00  0.00     0.038 C 
BRANCH  39  40
HETATM   40  C12 UNL     1      29.007  27.477  15.498  1.00  0.00    -0.020 C 
HETATM   41  C13 UNL     1      29.762  26.262  14.977  1.00  0.00     0.009 C 
HETATM   42  C14 UNL     1      28.732  28.348  14.291  1.00  0.00     0.009 C 
ENDBRANCH  39  40
ENDBRANCH   6  39
BRANCH  24  43
HETATM   43  C30 UNL     1      22.196  23.536  20.053  1.00  0.00     0.012 C 
HETATM   44  C31 UNL     1      22.040  23.023  21.474  1.00  0.00     0.007 C 
HETATM   45  C32 UNL     1      20.804  22.144  21.443  1.00  0.00     0.001 C 
HETATM   46  C33 UNL     1      20.128  22.442  20.158  1.00  0.00     0.005 C 
HETATM   47  C34 UNL     1      20.743  23.771  19.725  1.00  0.00    -0.013 C 
HETATM   48  C35 UNL     1      20.095  24.830  20.569  1.00  0.00     0.010 C 
ENDBRANCH  24  43
BRANCH  23  49
HETATM   49  C27 UNL     1      25.047  23.274  19.334  1.00  0.00     0.002 C 
HETATM   50  C28 UNL     1      25.979  23.515  18.202  1.00  0.00     0.005 C 
ENDBRANCH  23  49
BRANCH  11  51
HETATM   51  C17 UNL     1      30.368  27.270  21.112  1.00  0.00     0.038 C 
BRANCH  51  52
HETATM   52  C18 UNL     1      31.038  25.979  21.157  1.00  0.00    -0.020 C 
HETATM   53  C19 UNL     1      30.559  24.873  20.261  1.00  0.00     0.009 C 
HETATM   54  C20 UNL     1      31.246  25.441  22.574  1.00  0.00     0.009 C 
ENDBRANCH  51  52
ENDBRANCH  11  51
TORSDOF 12
ENDMDL
MODEL 2
REMARK VINA RESULT: -5.670362027      3.620      6.944
REMARK  12 active torsions:
REMARK  status: ('A' for Active; 'I' for Inactive)
REMARK    1  A    between atoms: C2_2  and  C3_3 
REMARK    2  A    between atoms: C3_3  and  C4_4 
REMARK    3  A    between atoms: C4_4  and  C5_5 
REMARK    4  A    between atoms: C5_5  and  N1_6 
REMARK       I    between atoms: N1_6  and  C6_8 
REMARK    5  A    between atoms: C6_8  and  C7_10 
REMARK    6  A    between atoms: C7_10  and  C8_11 
REMARK    7  A    between atoms: C10_16  and  C11_17 
REMARK    8  A    between atoms: C11_17  and  C12_18 
REMARK    9  A    between atoms: C16_25  and  C17_26 
REMARK   10  A    between atoms: C17_26  and  C18_27 
REMARK   11  A    between atoms: C26_41  and  C27_42 
REMARK   12  A    between atoms: C29_44  and  C30_45 
ROOT
HETATM    1  C8  UNL     1      27.656  24.626  21.860  1.00  0.00     0.185 C 
HETATM    2  N2  UNL     1      28.146  23.442  22.583  1.00  0.00    -0.346 N 
ATOM      3  H2  UNL     1      27.522  22.999  23.258  1.00  0.00     0.163 HD
HETATM    4  C9  UNL     1      29.431  22.882  22.399  1.00  0.00     0.241 C 
HETATM    5  O2  UNL     1      30.147  22.651  23.442  1.00  0.00    -0.271 OA
HETATM    6  C10 UNL     1      30.051  22.526  21.103  1.00  0.00     0.177 C 
HETATM    7  N3  UNL     1      30.958  21.422  21.328  1.00  0.00    -0.346 N 
ATOM      8  H3  UNL     1      31.954  21.636  21.377  1.00  0.00     0.163 HD
HETATM    9  C15 UNL     1      30.576  20.072  21.484  1.00  0.00     0.241 C 
HETATM   10  O3  UNL     1      31.242  19.347  22.258  1.00  0.00    -0.271 OA
HETATM   11  C16 UNL     1      29.430  19.452  20.791  1.00  0.00     0.177 C 
HETATM   12  N4  UNL     1      28.310  19.368  21.724  1.00  0.00    -0.346 N 
ATOM     13  H4  UNL     1      28.434  19.873  22.602  1.00  0.00     0.163 HD
HETATM   14  C21 UNL     1      27.104  18.703  21.588  1.00  0.00     0.240 C 
HETATM   15  O4  UNL     1      26.780  17.870  22.520  1.00  0.00    -0.271 OA
HETATM   16  C22 UNL     1      26.075  18.773  20.533  1.00  0.00     0.172 C 
HETATM   17  C23 UNL     1      25.760  17.324  20.140  1.00  0.00     0.042 C 
HETATM   18  N5  UNL     1      26.390  19.484  19.355  1.00  0.00    -0.348 N 
ATOM     19  H5  UNL     1      27.227  19.208  18.842  1.00  0.00     0.163 HD
HETATM   20  C24 UNL     1      25.608  20.576  18.825  1.00  0.00     0.218 C 
HETATM   21  O5  UNL     1      25.533  20.729  17.552  1.00  0.00    -0.274 OA
HETATM   22  C25 UNL     1      24.900  21.511  19.678  1.00  0.00     0.109 C 
HETATM   23  C26 UNL     1      25.349  22.938  19.671  1.00  0.00     0.017 C 
HETATM   24  C29 UNL     1      24.452  23.840  20.438  1.00  0.00     0.093 C 
HETATM   25  N6  UNL     1      25.099  24.792  21.314  1.00  0.00    -0.354 N 
ATOM     26  H6  UNL     1      24.634  25.700  21.325  1.00  0.00     0.162 HD
HETATM   27  C36 UNL     1      26.195  24.743  22.130  1.00  0.00     0.241 C 
HETATM   28  O6  UNL     1      26.023  24.811  23.415  1.00  0.00    -0.271 OA
ENDROOT
BRANCH   1  29
HETATM   29  C7  UNL     1      28.330  25.851  22.520  1.00  0.00     0.137 C 
BRANCH  29  30
HETATM   30  C6  UNL     1      27.986  27.115  21.899  1.00  0.00     0.220 C 
HETATM   31  N1  UNL     1      28.193  27.274  20.506  1.00  0.00    -0.361 N 
ATOM     32  H1  UNL     1      28.583  26.502  19.964  1.00  0.00     0.162 HD
HETATM   33  O1  UNL     1      27.515  28.064  22.554  1.00  0.00    -0.274 OA
BRANCH  31  34
HETATM   34  C5  UNL     1      27.860  28.517  19.840  1.00  0.00     0.122 C 
BRANCH  34  35
HETATM   35  C4  UNL     1      27.337  28.278  18.448  1.00  0.00     0.020 C 
BRANCH  35  36
HETATM   36  C3  UNL     1      25.917  27.763  18.475  1.00  0.00     0.001 C 
BRANCH  36  37
HETATM   37  C2  UNL     1      25.279  27.927  17.109  1.00  0.00    -0.004 C 
HETATM   38  C1  UNL     1      24.448  26.726  16.734  1.00  0.00     0.005 C 
ENDBRANCH  36  37
ENDBRANCH  35  36
ENDBRANCH  34  35
ENDBRANCH  31  34
ENDBRANCH  29  30
ENDBRANCH   1  29
BRANCH   6  39
HETATM   39  C11 UNL     1      30.858  23.686  20.574  1.00  0.00     0.038 C 
BRANCH  39  40
HETATM   40  C12 UNL     1      30.490  24.000  19.135  1.00  0.00    -0.020 C 
HETATM   41  C13 UNL     1      30.719  25.483  18.877  1.00  0.00     0.009 C 
HETATM   42  C14 UNL     1      31.402  23.262  18.179  1.00  0.00     0.009 C 
ENDBRANCH  39  40
ENDBRANCH   6  39
BRANCH  24  43
HETATM   43  C30 UNL     1      23.350  24.474  19.634  1.00  0.00     0.012 C 
HETATM   44  C31 UNL     1      22.001  23.796  19.791  1.00  0.00     0.007 C 
HETATM   45  C32 UNL     1      20.987  24.820  19.317  1.00  0.00     0.001 C 
HETATM   46  C33 UNL     1      21.719  26.106  19.234  1.00  0.00     0.005 C 
HETATM   47  C34 UNL     1      22.970  25.865  20.075  1.00  0.00    -0.013 C 
HETATM   48  C35 UNL     1      22.536  25.947  21.511  1.00  0.00     0.010 C 
ENDBRANCH  24  43
BRANCH  23  49
HETATM   49  C27 UNL     1      25.751  23.389  18.301  1.00  0.00     0.002 C 
HETATM   50  C28 UNL     1      26.892  24.337  18.230  1.00  0.00     0.005 C 
ENDBRANCH  23  49
BRANCH  11  51
HETATM   51  C17 UNL     1      29.791  18.147  20.208  1.00  0.00     0.038 C 
BRANCH  51  52
HETATM   52  C18 UNL     1      29.652  17.881  18.784  1.00  0.00    -0.020 C 
HETATM   53  C19 UNL     1      28.894  16.663  18.338  1.00  0.00     0.009 C 
HETATM   54  C20 UNL     1      30.964  17.987  18.005  1.00  0.00     0.009 C 
ENDBRANCH  51  52
ENDBRANCH  11  51
TORSDOF 12
ENDMDL
MODEL 3
REMARK VINA RESULT: -5.489545012      2.302      3.330
REMARK  12 active torsions:
REMARK  status: ('A' for Active; 'I' for Inactive)
REMARK    1  A    between atoms: C2_2  and  C3_3 
REMARK    2  A    between atoms: C3_3  and  C4_4 
REMARK    3  A    between atoms: C4_4  and  C5_5 
REMARK    4  A    between atoms: C5_5  and  N1_6 
REMARK       I    between atoms: N1_6  and  C6_8 
REMARK    5  A    between atoms: C6_8  and  C7_10 
REMARK    6  A    between atoms: C7_10  and  C8_11 
REMARK    7  A    between atoms: C10_16  and  C11_17 
REMARK    8  A    between atoms: C11_17  and  C12_18 
REMARK    9  A    between atoms: C16_25  and  C17_26 
REMARK   10  A    between atoms: C17_26  and  C18_27 
REMARK   11  A    between atoms: C26_41  and  C27_42 
REMARK   12  A    between atoms: C29_44  and  C30_45 
ROOT
HETATM    1  C8  UNL     1      26.063  27.893  17.639  1.00  0.00     0.185 C 
HETATM    2  N2  UNL     1      26.099  28.987  18.623  1.00  0.00    -0.346 N 
ATOM      3  H2  UNL     1      25.514  28.905  19.454  1.00  0.00     0.163 HD
HETATM    4  C9  UNL     1      26.898  30.145  18.484  1.00  0.00     0.241 C 
HETATM    5  O2  UNL     1      26.334  31.292  18.632  1.00  0.00    -0.271 OA
HETATM    6  C10 UNL     1      28.346  30.177  18.180  1.00  0.00     0.177 C 
HETATM    7  N3  UNL     1      28.905  31.368  18.780  1.00  0.00    -0.346 N 
ATOM      8  H3  UNL     1      29.088  32.162  18.166  1.00  0.00     0.163 HD
HETATM    9  C15 UNL     1      29.218  31.521  20.148  1.00  0.00     0.241 C 
HETATM   10  O3  UNL     1      29.074  32.649  20.673  1.00  0.00    -0.271 OA
HETATM   11  C16 UNL     1      29.705  30.427  21.012  1.00  0.00     0.177 C 
HETATM   12  N4  UNL     1      28.592  29.941  21.822  1.00  0.00    -0.346 N 
ATOM     13  H4  UNL     1      27.673  30.297  21.561  1.00  0.00     0.163 HD
HETATM   14  C21 UNL     1      28.605  29.066  22.894  1.00  0.00     0.240 C 
HETATM   15  O4  UNL     1      28.060  29.470  23.993  1.00  0.00    -0.271 OA
HETATM   16  C22 UNL     1      29.148  27.700  23.020  1.00  0.00     0.172 C 
HETATM   17  C23 UNL     1      29.992  27.686  24.302  1.00  0.00     0.042 C 
HETATM   18  N5  UNL     1      29.952  27.213  21.967  1.00  0.00    -0.348 N 
ATOM     19  H5  UNL     1      30.769  27.762  21.699  1.00  0.00     0.163 HD
HETATM   20  C24 UNL     1      29.697  25.991  21.242  1.00  0.00     0.218 C 
HETATM   21  O5  UNL     1      30.692  25.300  20.817  1.00  0.00    -0.274 OA
HETATM   22  C25 UNL     1      28.355  25.511  20.975  1.00  0.00     0.109 C 
HETATM   23  C26 UNL     1      27.904  25.460  19.549  1.00  0.00     0.017 C 
HETATM   24  C29 UNL     1      26.589  24.791  19.373  1.00  0.00     0.093 C 
HETATM   25  N6  UNL     1      25.649  25.452  18.494  1.00  0.00    -0.354 N 
ATOM     26  H6  UNL     1      25.112  24.798  17.925  1.00  0.00     0.162 HD
HETATM   27  C36 UNL     1      25.322  26.759  18.258  1.00  0.00     0.241 C 
HETATM   28  O6  UNL     1      24.146  27.183  18.608  1.00  0.00    -0.271 OA
ENDROOT
BRANCH   1  29
HETATM   29  C7  UNL     1      25.200  28.397  16.459  1.00  0.00     0.137 C 
BRANCH  29  30
HETATM   30  C6  UNL     1      24.422  27.356  15.815  1.00  0.00     0.220 C 
HETATM   31  N1  UNL     1      23.032  27.559  15.624  1.00  0.00    -0.361 N 
ATOM     32  H1  UNL     1      22.601  28.428  15.943  1.00  0.00     0.162 HD
HETATM   33  O1  UNL     1      24.938  26.291  15.428  1.00  0.00    -0.274 OA
BRANCH  31  34
HETATM   34  C5  UNL     1      22.214  26.550  14.982  1.00  0.00     0.122 C 
BRANCH  34  35
HETATM   35  C4  UNL     1      21.142  27.169  14.122  1.00  0.00     0.020 C 
BRANCH  35  36
HETATM   36  C3  UNL     1      19.768  26.686  14.525  1.00  0.00     0.001 C 
BRANCH  36  37
HETATM   37  C2  UNL     1      19.886  25.437  15.376  1.00  0.00    -0.004 C 
HETATM   38  C1  UNL     1      18.536  24.828  15.662  1.00  0.00     0.005 C 
ENDBRANCH  36  37
ENDBRANCH  35  36
ENDBRANCH  34  35
ENDBRANCH  31  34
ENDBRANCH  29  30
ENDBRANCH   1  29
BRANCH   6  39
HETATM   39  C11 UNL     1      28.564  30.266  16.689  1.00  0.00     0.038 C 
BRANCH  39  40
HETATM   40  C12 UNL     1      29.275  29.032  16.164  1.00  0.00    -0.020 C 
HETATM   41  C13 UNL     1      28.624  28.603  14.856  1.00  0.00     0.009 C 
HETATM   42  C14 UNL     1      30.716  29.350  15.829  1.00  0.00     0.009 C 
ENDBRANCH  39  40
ENDBRANCH   6  39
BRANCH  24  43
HETATM   43  C30 UNL     1      26.659  23.312  19.112  1.00  0.00     0.012 C 
HETATM   44  C31 UNL     1      27.016  22.485  20.334  1.00  0.00     0.007 C 
HETATM   45  C32 UNL     1      26.578  21.072  19.997  1.00  0.00     0.001 C 
HETATM   46  C33 UNL     1      25.715  21.191  18.798  1.00  0.00     0.005 C 
HETATM   47  C34 UNL     1      25.337  22.670  18.770  1.00  0.00    -0.013 C 
HETATM   48  C35 UNL     1      24.283  22.857  19.823  1.00  0.00     0.010 C 
ENDBRANCH  24  43
BRANCH  23  49
HETATM   49  C27 UNL     1      29.007  25.035  18.631  1.00  0.00     0.002 C 
HETATM   50  C28 UNL     1      29.026  25.670  17.288  1.00  0.00     0.005 C 
ENDBRANCH  23  49
BRANCH  11  51
HETATM   51  C17 UNL     1      30.863  30.851  21.820  1.00  0.00     0.038 C 
BRANCH  51  52
HETATM   52  C18 UNL     1      32.182  30.265  21.632  1.00  0.00    -0.020 C 
HETATM   53  C19 UNL     1      32.469  29.492  20.376  1.00  0.00     0.009 C 
HETATM   54  C20 UNL     1      32.689  29.485  22.845  1.00  0.00     0.009 C 
ENDBRANCH  51  52
ENDBRANCH  11  51
TORSDOF 12
ENDMDL
MODEL 4
REMARK VINA RESULT: -5.467355969      2.190      8.817
REMARK  12 active torsions:
REMARK  status: ('A' for Active; 'I' for Inactive)
REMARK    1  A    between atoms: C2_2  and  C3_3 
REMARK    2  A    between atoms: C3_3  and  C4_4 
REMARK    3  A    between atoms: C4_4  and  C5_5 
REMARK    4  A    between atoms: C5_5  and  N1_6 
REMARK       I    between atoms: N1_6  and  C6_8 
REMARK    5  A    between atoms: C6_8  and  C7_10 
REMARK    6  A    between atoms: C7_10  and  C8_11 
REMARK    7  A    between atoms: C10_16  and  C11_17 
REMARK    8  A    between atoms: C11_17  and  C12_18 
REMARK    9  A    between atoms: C16_25  and  C17_26 
REMARK   10  A    between atoms: C17_26  and  C18_27 
REMARK   11  A    between atoms: C26_41  and  C27_42 
REMARK   12  A    between atoms: C29_44  and  C30_45 
ROOT
HETATM    1  C8  UNL     1      27.587  26.854  20.767  1.00  0.00     0.185 C 
HETATM    2  N2  UNL     1      26.249  26.790  21.376  1.00  0.00    -0.346 N 
ATOM      3  H2  UNL     1      25.751  27.666  21.534  1.00  0.00     0.163 HD
HETATM    4  C9  UNL     1      25.612  25.587  21.755  1.00  0.00     0.241 C 
HETATM    5  O2  UNL     1      25.125  25.505  22.942  1.00  0.00    -0.271 OA
HETATM    6  C10 UNL     1      25.442  24.384  20.908  1.00  0.00     0.177 C 
HETATM    7  N3  UNL     1      24.234  23.707  21.327  1.00  0.00    -0.346 N 
ATOM      8  H3  UNL     1      24.339  22.881  21.916  1.00  0.00     0.163 HD
HETATM    9  C15 UNL     1      22.922  24.097  20.985  1.00  0.00     0.241 C 
HETATM   10  O3  UNL     1      22.006  23.915  21.820  1.00  0.00    -0.271 OA
HETATM   11  C16 UNL     1      22.552  24.716  19.697  1.00  0.00     0.177 C 
HETATM   12  N4  UNL     1      22.406  26.155  19.895  1.00  0.00    -0.346 N 
ATOM     13  H4  UNL     1      22.726  26.506  20.797  1.00  0.00     0.163 HD
HETATM   14  C21 UNL     1      21.896  27.111  19.033  1.00  0.00     0.240 C 
HETATM   15  O4  UNL     1      20.940  27.857  19.478  1.00  0.00    -0.271 OA
HETATM   16  C22 UNL     1      22.257  27.451  17.644  1.00  0.00     0.172 C 
HETATM   17  C23 UNL     1      20.942  27.501  16.855  1.00  0.00     0.042 C 
HETATM   18  N5  UNL     1      23.140  26.585  16.964  1.00  0.00    -0.348 N 
ATOM     19  H5  UNL     1      22.884  25.599  16.900  1.00  0.00     0.163 HD
HETATM   20  C24 UNL     1      24.380  26.997  16.351  1.00  0.00     0.218 C 
HETATM   21  O5  UNL     1      24.771  26.409  15.279  1.00  0.00    -0.274 OA
HETATM   22  C25 UNL     1      25.205  28.055  16.902  1.00  0.00     0.109 C 
HETATM   23  C26 UNL     1      26.560  27.685  17.419  1.00  0.00     0.017 C 
HETATM   24  C29 UNL     1      27.386  28.860  17.794  1.00  0.00     0.093 C 
HETATM   25  N6  UNL     1      28.094  28.768  19.052  1.00  0.00    -0.354 N 
ATOM     26  H6  UNL     1      29.025  29.184  19.015  1.00  0.00     0.162 HD
HETATM   27  C36 UNL     1      27.792  28.247  20.280  1.00  0.00     0.241 C 
HETATM   28  O6  UNL     1      27.637  29.056  21.283  1.00  0.00    -0.271 OA
ENDROOT
BRANCH   1  29
HETATM   29  C7  UNL     1      28.599  26.631  21.915  1.00  0.00     0.137 C 
BRANCH  29  30
HETATM   30  C6  UNL     1      29.619  25.646  21.614  1.00  0.00     0.220 C 
HETATM   31  N1  UNL     1      29.702  25.125  20.298  1.00  0.00    -0.361 N 
ATOM     32  H1  UNL     1      29.044  25.446  19.587  1.00  0.00     0.162 HD
HETATM   33  O1  UNL     1      30.422  25.244  22.477  1.00  0.00    -0.274 OA
BRANCH  31  34
HETATM   34  C5  UNL     1      30.707  24.142  19.948  1.00  0.00     0.122 C 
BRANCH  34  35
HETATM   35  C4  UNL     1      30.696  23.837  18.472  1.00  0.00     0.020 C 
BRANCH  35  36
HETATM   36  C3  UNL     1      31.790  24.585  17.748  1.00  0.00     0.001 C 
BRANCH  36  37
HETATM   37  C2  UNL     1      31.184  25.574  16.771  1.00  0.00    -0.004 C 
HETATM   38  C1  UNL     1      31.021  26.940  17.389  1.00  0.00     0.005 C 
ENDBRANCH  36  37
ENDBRANCH  35  36
ENDBRANCH  34  35
ENDBRANCH  31  34
ENDBRANCH  29  30
ENDBRANCH   1  29
BRANCH   6  39
HETATM   39  C11 UNL     1      26.598  23.435  21.114  1.00  0.00     0.038 C 
BRANCH  39  40
HETATM   40  C12 UNL     1      27.039  22.815  19.800  1.00  0.00    -0.020 C 
HETATM   41  C13 UNL     1      27.709  21.478  20.083  1.00  0.00     0.009 C 
HETATM   42  C14 UNL     1      25.842  22.507  18.928  1.00  0.00     0.009 C 
ENDBRANCH  39  40
ENDBRANCH   6  39
BRANCH  24  43
HETATM   43  C30 UNL     1      28.260  29.399  16.695  1.00  0.00     0.012 C 
HETATM   44  C31 UNL     1      27.549  30.351  15.751  1.00  0.00     0.007 C 
HETATM   45  C32 UNL     1      28.657  31.118  15.053  1.00  0.00     0.001 C 
HETATM   46  C33 UNL     1      29.890  30.842  15.829  1.00  0.00     0.005 C 
HETATM   47  C34 UNL     1      29.367  30.311  17.162  1.00  0.00    -0.013 C 
HETATM   48  C35 UNL     1      28.883  31.507  17.931  1.00  0.00     0.010 C 
ENDBRANCH  24  43
BRANCH  23  49
HETATM   49  C27 UNL     1      27.215  26.641  16.567  1.00  0.00     0.002 C 
HETATM   50  C28 UNL     1      27.583  25.373  17.249  1.00  0.00     0.005 C 
ENDBRANCH  23  49
BRANCH  11  51
HETATM   51  C17 UNL     1      21.349  24.089  19.121  1.00  0.00     0.038 C 
BRANCH  51  52
HETATM   52  C18 UNL     1      20.023  24.654  19.320  1.00  0.00    -0.020 C 
HETATM   53  C19 UNL     1      19.183  24.167  20.467  1.00  0.00     0.009 C 
HETATM   54  C20 UNL     1      19.176  24.705  18.046  1.00  0.00     0.009 C 
ENDBRANCH  51  52
ENDBRANCH  11  51
TORSDOF 12
ENDMDL
MODEL 5
REMARK VINA RESULT: -5.459813961      2.990      5.378
REMARK  12 active torsions:
REMARK  status: ('A' for Active; 'I' for Inactive)
REMARK    1  A    between atoms: C2_2  and  C3_3 
REMARK    2  A    between atoms: C3_3  and  C4_4 
REMARK    3  A    between atoms: C4_4  and  C5_5 
REMARK    4  A    between atoms: C5_5  and  N1_6 
REMARK       I    between atoms: N1_6  and  C6_8 
REMARK    5  A    between atoms: C6_8  and  C7_10 
REMARK    6  A    between atoms: C7_10  and  C8_11 
REMARK    7  A    between atoms: C10_16  and  C11_17 
REMARK    8  A    between atoms: C11_17  and  C12_18 
REMARK    9  A    between atoms: C16_25  and  C17_26 
REMARK   10  A    between atoms: C17_26  and  C18_27 
REMARK   11  A    between atoms: C26_41  and  C27_42 
REMARK   12  A    between atoms: C29_44  and  C30_45 
ROOT
HETATM    1  C8  UNL     1      27.816  26.682  20.546  1.00  0.00     0.185 C 
HETATM    2  N2  UNL     1      28.778  25.915  21.354  1.00  0.00    -0.346 N 
ATOM      3  H2  UNL     1      28.490  25.614  22.285  1.00  0.00     0.163 HD
HETATM    4  C9  UNL     1      30.077  25.571  20.916  1.00  0.00     0.241 C 
HETATM    5  O2  UNL     1      31.068  25.834  21.692  1.00  0.00    -0.271 OA
HETATM    6  C10 UNL     1      30.423  24.926  19.629  1.00  0.00     0.177 C 
HETATM    7  N3  UNL     1      31.625  24.145  19.827  1.00  0.00    -0.346 N 
ATOM      8  H3  UNL     1      32.503  24.542  19.494  1.00  0.00     0.163 HD
HETATM    9  C15 UNL     1      31.679  22.877  20.445  1.00  0.00     0.241 C 
HETATM   10  O3  UNL     1      32.692  22.584  21.122  1.00  0.00    -0.271 OA
HETATM   11  C16 UNL     1      30.611  21.864  20.349  1.00  0.00     0.177 C 
HETATM   12  N4  UNL     1      29.830  21.889  21.582  1.00  0.00    -0.346 N 
ATOM     13  H4  UNL     1      30.028  22.669  22.208  1.00  0.00     0.163 HD
HETATM   14  C21 UNL     1      28.858  21.008  22.023  1.00  0.00     0.240 C 
HETATM   15  O4  UNL     1      29.022  20.485  23.192  1.00  0.00    -0.271 OA
HETATM   16  C22 UNL     1      27.619  20.535  21.378  1.00  0.00     0.172 C 
HETATM   17  C23 UNL     1      27.623  19.005  21.500  1.00  0.00     0.042 C 
HETATM   18  N5  UNL     1      27.418  20.861  20.019  1.00  0.00    -0.348 N 
ATOM     19  H5  UNL     1      28.142  20.589  19.353  1.00  0.00     0.163 HD
HETATM   20  C24 UNL     1      26.260  21.553  19.506  1.00  0.00     0.218 C 
HETATM   21  O5  UNL     1      25.828  21.259  18.333  1.00  0.00    -0.274 OA
HETATM   22  C25 UNL     1      25.562  22.571  20.268  1.00  0.00     0.109 C 
HETATM   23  C26 UNL     1      25.586  23.972  19.744  1.00  0.00     0.017 C 
HETATM   24  C29 UNL     1      24.700  24.896  20.497  1.00  0.00     0.093 C 
HETATM   25  N6  UNL     1      25.260  26.185  20.835  1.00  0.00    -0.354 N 
ATOM     26  H6  UNL     1      24.583  26.945  20.759  1.00  0.00     0.162 HD
HETATM   27  C36 UNL     1      26.497  26.612  21.235  1.00  0.00     0.241 C 
HETATM   28  O6  UNL     1      26.643  27.068  22.442  1.00  0.00    -0.271 OA
ENDROOT
BRANCH   1  29
HETATM   29  C7  UNL     1      28.273  28.158  20.609  1.00  0.00     0.137 C 
BRANCH  29  30
HETATM   30  C6  UNL     1      27.792  28.967  19.506  1.00  0.00     0.220 C 
HETATM   31  N1  UNL     1      27.655  28.371  18.227  1.00  0.00    -0.361 N 
ATOM     32  H1  UNL     1      27.899  27.389  18.101  1.00  0.00     0.162 HD
HETATM   33  O1  UNL     1      27.498  30.169  19.650  1.00  0.00    -0.274 OA
BRANCH  31  34
HETATM   34  C5  UNL     1      27.175  29.139  17.096  1.00  0.00     0.122 C 
BRANCH  34  35
HETATM   35  C4  UNL     1      25.742  28.806  16.768  1.00  0.00     0.020 C 
BRANCH  35  36
HETATM   36  C3  UNL     1      25.653  27.853  15.599  1.00  0.00     0.001 C 
BRANCH  36  37
HETATM   37  C2  UNL     1      24.376  27.040  15.688  1.00  0.00    -0.004 C 
HETATM   38  C1  UNL     1      23.672  27.250  17.005  1.00  0.00     0.005 C 
ENDBRANCH  36  37
ENDBRANCH  35  36
ENDBRANCH  34  35
ENDBRANCH  31  34
ENDBRANCH  29  30
ENDBRANCH   1  29
BRANCH   6  39
HETATM   39  C11 UNL     1      30.721  25.973  18.584  1.00  0.00     0.038 C 
BRANCH  39  40
HETATM   40  C12 UNL     1      30.929  25.343  17.219  1.00  0.00    -0.020 C 
HETATM   41  C13 UNL     1      29.818  25.804  16.286  1.00  0.00     0.009 C 
HETATM   42  C14 UNL     1      32.223  25.826  16.601  1.00  0.00     0.009 C 
ENDBRANCH  39  40
ENDBRANCH   6  39
BRANCH  24  43
HETATM   43  C30 UNL     1      23.301  25.015  19.957  1.00  0.00     0.012 C 
HETATM   44  C31 UNL     1      22.341  23.967  20.491  1.00  0.00     0.007 C 
HETATM   45  C32 UNL     1      20.956  24.526  20.223  1.00  0.00     0.001 C 
HETATM   46  C33 UNL     1      21.157  25.954  19.878  1.00  0.00     0.005 C 
HETATM   47  C34 UNL     1      22.562  26.256  20.391  1.00  0.00    -0.013 C 
HETATM   48  C35 UNL     1      22.446  26.401  21.882  1.00  0.00     0.010 C 
ENDBRANCH  24  43
BRANCH  23  49
HETATM   49  C27 UNL     1      25.490  24.010  18.250  1.00  0.00     0.002 C 
HETATM   50  C28 UNL     1      26.534  24.796  17.544  1.00  0.00     0.005 C 
ENDBRANCH  23  49
BRANCH  11  51
HETATM   51  C17 UNL     1      31.157  20.529  20.041  1.00  0.00     0.038 C 
BRANCH  51  52
HETATM   52  C18 UNL     1      30.800  19.819  18.822  1.00  0.00    -0.020 C 
HETATM   53  C19 UNL     1      30.344  18.391  18.913  1.00  0.00     0.009 C 
HETATM   54  C20 UNL     1      31.832  19.961  17.701  1.00  0.00     0.009 C 
ENDBRANCH  51  52
ENDBRANCH  11  51
TORSDOF 12
ENDMDL
