MODEL 1
REMARK VINA RESULT: -6.913758731      0.000      0.000
REMARK  3 active torsions:
REMARK  status: ('A' for Active; 'I' for Inactive)
REMARK    1  A    between atoms: N3_10  and  N4_12 
REMARK    2  A    between atoms: C6_17  and  N5_18 
REMARK    3  A    between atoms: N5_18  and  O3_20 
ROOT
HETATM    1  C1  UNL     1      32.517  66.385   8.046  1.00  0.00     0.071 C 
HETATM    2  C2  UNL     1      31.124  66.042   8.412  1.00  0.00     0.042 C 
HETATM    3  N1  UNL     1      30.179  66.237   7.481  1.00  0.00    -0.310 N 
ATOM      4  H1  UNL     1      30.504  66.597   6.584  1.00  0.00     0.170 HD
HETATM    5  C3  UNL     1      28.852  66.015   7.581  1.00  0.00     0.326 C 
HETATM    6  O1  UNL     1      28.152  66.124   6.548  1.00  0.00    -0.247 OA
HETATM    7  N2  UNL     1      28.096  65.673   8.666  1.00  0.00    -0.290 N 
ATOM      8  H2  UNL     1      27.106  65.510   8.484  1.00  0.00     0.172 HD
HETATM    9  C4  UNL     1      28.488  65.525   9.943  1.00  0.00     0.177 C 
HETATM   10  N3  UNL     1      27.574  65.559  10.874  1.00  0.00    -0.289 N 
ATOM     11  H3  UNL     1      27.849  65.448  11.850  1.00  0.00     0.188 HD
HETATM   12  C5  UNL     1      29.771  65.338  10.375  1.00  0.00     0.247 C 
HETATM   13  O2  UNL     1      29.887  64.914  11.543  1.00  0.00    -0.282 OA
HETATM   14  C6  UNL     1      30.962  65.554   9.694  1.00  0.00     0.130 C 
ENDROOT
BRANCH  10  15
HETATM   15  N4  UNL     1      26.226  65.744  10.557  1.00  0.00    -0.344 N 
ATOM     16  H42 UNL     1      25.960  65.780   9.573  1.00  0.00     0.176 HD
ATOM     17  H41 UNL     1      25.520  65.840  11.287  1.00  0.00     0.176 HD
ENDBRANCH  10  15
BRANCH  14  18
HETATM   18  N5  UNL     1      32.173  65.260  10.343  1.00  0.00    -0.263 N 
ATOM     19  H5  UNL     1      32.754  66.034  10.663  1.00  0.00     0.194 HD
BRANCH  18  20
HETATM   20  O3  UNL     1      32.575  64.082  10.548  1.00  0.00    -0.289 OA
ATOM     21  H3  UNL     1      33.309  63.876  11.116  1.00  0.00     0.244 HD
ENDBRANCH  18  20
ENDBRANCH  14  18
TORSDOF 3
ENDMDL
MODEL 2
REMARK VINA RESULT: -6.658269058      1.689      3.878
REMARK  3 active torsions:
REMARK  status: ('A' for Active; 'I' for Inactive)
REMARK    1  A    between atoms: N3_10  and  N4_12 
REMARK    2  A    between atoms: C6_17  and  N5_18 
REMARK    3  A    between atoms: N5_18  and  O3_20 
ROOT
HETATM    1  C1  UNL     1      26.222  65.372   8.071  1.00  0.00     0.071 C 
HETATM    2  C2  UNL     1      27.617  65.519   8.546  1.00  0.00     0.042 C 
HETATM    3  N1  UNL     1      28.529  65.928   7.652  1.00  0.00    -0.310 N 
ATOM      4  H1  UNL     1      28.179  66.117   6.713  1.00  0.00     0.170 HD
HETATM    5  C3  UNL     1      29.851  66.122   7.840  1.00  0.00     0.326 C 
HETATM    6  O1  UNL     1      30.512  66.645   6.914  1.00  0.00    -0.247 OA
HETATM    7  N2  UNL     1      30.638  65.833   8.918  1.00  0.00    -0.290 N 
ATOM      8  H2  UNL     1      31.614  66.119   8.844  1.00  0.00     0.172 HD
HETATM    9  C4  UNL     1      30.294  65.219  10.063  1.00  0.00     0.177 C 
HETATM   10  N3  UNL     1      31.245  64.715  10.800  1.00  0.00    -0.289 N 
ATOM     11  H3  UNL     1      31.007  64.245  11.673  1.00  0.00     0.188 HD
HETATM   12  C5  UNL     1      29.024  65.067  10.545  1.00  0.00     0.247 C 
HETATM   13  O2  UNL     1      28.941  64.757  11.750  1.00  0.00    -0.282 OA
HETATM   14  C6  UNL     1      27.814  65.211   9.878  1.00  0.00     0.130 C 
ENDROOT
BRANCH  10  15
HETATM   15  N4  UNL     1      32.584  64.807  10.414  1.00  0.00    -0.344 N 
ATOM     16  H42 UNL     1      33.135  65.594  10.758  1.00  0.00     0.176 HD
ATOM     17  H41 UNL     1      33.008  64.108   9.803  1.00  0.00     0.176 HD
ENDBRANCH  10  15
BRANCH  14  18
HETATM   18  N5  UNL     1      26.622  65.030  10.598  1.00  0.00    -0.263 N 
ATOM     19  H5  UNL     1      25.954  65.800  10.635  1.00  0.00     0.194 HD
BRANCH  18  20
HETATM   20  O3  UNL     1      26.337  63.959  11.201  1.00  0.00    -0.289 OA
ATOM     21  H3  UNL     1      25.462  63.589  11.216  1.00  0.00     0.244 HD
ENDBRANCH  18  20
ENDBRANCH  14  18
TORSDOF 3
ENDMDL
MODEL 3
REMARK VINA RESULT: -6.645159765      1.767      3.123
REMARK  3 active torsions:
REMARK  status: ('A' for Active; 'I' for Inactive)
REMARK    1  A    between atoms: N3_10  and  N4_12 
REMARK    2  A    between atoms: C6_17  and  N5_18 
REMARK    3  A    between atoms: N5_18  and  O3_20 
ROOT
HETATM    1  C1  UNL     1      32.737  65.092  10.536  1.00  0.00     0.071 C 
HETATM    2  C2  UNL     1      31.363  65.451  10.113  1.00  0.00     0.042 C 
HETATM    3  N1  UNL     1      30.394  65.356  11.034  1.00  0.00    -0.310 N 
ATOM      4  H1  UNL     1      30.688  65.053  11.963  1.00  0.00     0.170 HD
HETATM    5  C3  UNL     1      29.077  65.613  10.887  1.00  0.00     0.326 C 
HETATM    6  O1  UNL     1      28.352  65.603  11.909  1.00  0.00    -0.247 OA
HETATM    7  N2  UNL     1      28.356  65.897   9.763  1.00  0.00    -0.290 N 
ATOM      8  H2  UNL     1      27.368  66.104   9.910  1.00  0.00     0.172 HD
HETATM    9  C4  UNL     1      28.779  65.937   8.487  1.00  0.00     0.177 C 
HETATM   10  N3  UNL     1      27.884  65.863   7.541  1.00  0.00    -0.289 N 
ATOM     11  H3  UNL     1      28.182  65.892   6.566  1.00  0.00     0.188 HD
HETATM   12  C5  UNL     1      30.076  66.050   8.073  1.00  0.00     0.247 C 
HETATM   13  O2  UNL     1      30.231  66.382   6.880  1.00  0.00    -0.282 OA
HETATM   14  C6  UNL     1      31.245  65.847   8.795  1.00  0.00     0.130 C 
ENDROOT
BRANCH  10  15
HETATM   15  N4  UNL     1      26.524  65.746   7.839  1.00  0.00    -0.344 N 
ATOM     16  H42 UNL     1      26.070  64.845   7.687  1.00  0.00     0.176 HD
ATOM     17  H41 UNL     1      25.992  66.537   8.201  1.00  0.00     0.176 HD
ENDBRANCH  10  15
BRANCH  14  18
HETATM   18  N5  UNL     1      32.478  66.053   8.154  1.00  0.00    -0.263 N 
ATOM     19  H5  UNL     1      33.068  66.823   8.471  1.00  0.00     0.194 HD
BRANCH  18  20
HETATM   20  O3  UNL     1      32.891  65.330   7.206  1.00  0.00    -0.289 OA
ATOM     21  H3  UNL     1      32.308  64.873   6.611  1.00  0.00     0.244 HD
ENDBRANCH  18  20
ENDBRANCH  14  18
TORSDOF 3
ENDMDL
MODEL 4
REMARK VINA RESULT: -6.630378137      1.922      4.798
REMARK  3 active torsions:
REMARK  status: ('A' for Active; 'I' for Inactive)
REMARK    1  A    between atoms: N3_10  and  N4_12 
REMARK    2  A    between atoms: C6_17  and  N5_18 
REMARK    3  A    between atoms: N5_18  and  O3_20 
ROOT
HETATM    1  C1  UNL     1      25.902  65.856   9.709  1.00  0.00     0.071 C 
HETATM    2  C2  UNL     1      27.288  65.391   9.946  1.00  0.00     0.042 C 
HETATM    3  N1  UNL     1      27.595  64.985  11.186  1.00  0.00    -0.310 N 
ATOM      4  H1  UNL     1      26.836  65.019  11.867  1.00  0.00     0.170 HD
HETATM    5  C3  UNL     1      28.781  64.536  11.646  1.00  0.00     0.326 C 
HETATM    6  O1  UNL     1      28.829  64.066  12.806  1.00  0.00    -0.247 OA
HETATM    7  N2  UNL     1      30.004  64.500  11.039  1.00  0.00    -0.290 N 
ATOM      8  H2  UNL     1      30.753  64.064  11.576  1.00  0.00     0.172 HD
HETATM    9  C4  UNL     1      30.347  64.965   9.825  1.00  0.00     0.177 C 
HETATM   10  N3  UNL     1      31.613  65.166   9.581  1.00  0.00    -0.289 N 
ATOM     11  H3  UNL     1      31.897  65.519   8.667  1.00  0.00     0.188 HD
HETATM   12  C5  UNL     1      29.490  65.253   8.801  1.00  0.00     0.247 C 
HETATM   13  O2  UNL     1      30.018  65.368   7.676  1.00  0.00    -0.282 OA
HETATM   14  C6  UNL     1      28.114  65.435   8.839  1.00  0.00     0.130 C 
ENDROOT
BRANCH  10  15
HETATM   15  N4  UNL     1      32.587  64.908  10.549  1.00  0.00    -0.344 N 
ATOM     16  H42 UNL     1      32.811  65.643  11.219  1.00  0.00     0.176 HD
ATOM     17  H41 UNL     1      33.065  64.008  10.590  1.00  0.00     0.176 HD
ENDBRANCH  10  15
BRANCH  14  18
HETATM   18  N5  UNL     1      27.434  65.698   7.638  1.00  0.00    -0.263 N 
ATOM     19  H5  UNL     1      26.625  65.125   7.401  1.00  0.00     0.194 HD
BRANCH  18  20
HETATM   20  O3  UNL     1      27.779  66.611   6.839  1.00  0.00    -0.289 OA
ATOM     21  H3  UNL     1      27.744  66.514   5.894  1.00  0.00     0.244 HD
ENDBRANCH  18  20
ENDBRANCH  14  18
TORSDOF 3
ENDMDL
MODEL 5
REMARK VINA RESULT: -6.578934299      1.700      4.656
REMARK  3 active torsions:
REMARK  status: ('A' for Active; 'I' for Inactive)
REMARK    1  A    between atoms: N3_10  and  N4_12 
REMARK    2  A    between atoms: C6_17  and  N5_18 
REMARK    3  A    between atoms: N5_18  and  O3_20 
ROOT
HETATM    1  C1  UNL     1      27.918  64.929  12.167  1.00  0.00     0.071 C 
HETATM    2  C2  UNL     1      28.789  65.028  10.973  1.00  0.00     0.042 C 
HETATM    3  N1  UNL     1      30.113  64.960  11.173  1.00  0.00    -0.310 N 
ATOM      4  H1  UNL     1      30.413  64.831  12.140  1.00  0.00     0.170 HD
HETATM    5  C3  UNL     1      31.100  65.039  10.256  1.00  0.00     0.326 C 
HETATM    6  O1  UNL     1      32.274  64.809  10.625  1.00  0.00    -0.247 OA
HETATM    7  N2  UNL     1      31.042  65.342   8.925  1.00  0.00    -0.290 N 
ATOM      8  H2  UNL     1      31.926  65.291   8.420  1.00  0.00     0.172 HD
HETATM    9  C4  UNL     1      29.970  65.698   8.196  1.00  0.00     0.177 C 
HETATM   10  N3  UNL     1      30.176  66.293   7.053  1.00  0.00    -0.289 N 
ATOM     11  H3  UNL     1      29.377  66.572   6.483  1.00  0.00     0.188 HD
HETATM   12  C5  UNL     1      28.662  65.497   8.536  1.00  0.00     0.247 C 
HETATM   13  O2  UNL     1      27.842  65.610   7.602  1.00  0.00    -0.282 OA
HETATM   14  C6  UNL     1      28.120  65.184   9.775  1.00  0.00     0.130 C 
ENDROOT
BRANCH  10  15
HETATM   15  N4  UNL     1      31.470  66.554   6.596  1.00  0.00    -0.344 N 
ATOM     16  H42 UNL     1      31.890  65.903   5.931  1.00  0.00     0.176 HD
ATOM     17  H41 UNL     1      31.988  67.373   6.914  1.00  0.00     0.176 HD
ENDBRANCH  10  15
BRANCH  14  18
HETATM   18  N5  UNL     1      26.731  64.995   9.876  1.00  0.00    -0.263 N 
ATOM     19  H5  UNL     1      26.201  65.604  10.500  1.00  0.00     0.194 HD
BRANCH  18  20
HETATM   20  O3  UNL     1      26.109  64.108   9.230  1.00  0.00    -0.289 OA
ATOM     21  H3  UNL     1      25.321  64.287   8.730  1.00  0.00     0.244 HD
ENDBRANCH  18  20
ENDBRANCH  14  18
TORSDOF 3
ENDMDL
