MODEL 1
REMARK VINA RESULT: -7.078852738      0.000      0.000
REMARK  6 active torsions:
REMARK  status: ('A' for Active; 'I' for Inactive)
REMARK    1  A    between atoms: C2_2  and  N1_4 
REMARK    2  A    between atoms: N1_4  and  C3_6 
REMARK    3  A    between atoms: C3_6  and  C5_8 
REMARK       I    between atoms: C5_8  and  N2_10 
REMARK    4  A    between atoms: N2_10  and  C6_12 
REMARK    5  A    between atoms: C7_17  and  S2_18 
REMARK    6  A    between atoms: S2_18  and  N5_19 
ROOT
HETATM    1  C6  UNL     1      35.971  -2.802  13.107  1.00  0.00     0.192 A 
HETATM    2  N3  UNL     1      35.953  -3.795  14.004  1.00  0.00    -0.279 N 
ATOM      3  H3  UNL     1      36.436  -3.666  14.893  1.00  0.00     0.189 HD
HETATM    4  N4  UNL     1      35.333  -4.932  13.774  1.00  0.00    -0.273 N 
ATOM      5  H4  UNL     1      35.349  -5.650  14.499  1.00  0.00     0.189 HD
HETATM    6  C7  UNL     1      34.676  -5.193  12.620  1.00  0.00     0.241 A 
HETATM    7  N6  UNL     1      34.686  -4.227  11.704  1.00  0.00    -0.294 N 
ATOM      8  H6  UNL     1      34.204  -4.392  10.820  1.00  0.00     0.171 HD
HETATM    9  C8  UNL     1      35.295  -3.053  11.884  1.00  0.00     0.293 A 
HETATM   10  O4  UNL     1      35.288  -2.141  11.006  1.00  0.00    -0.264 OA
ENDROOT
BRANCH   1  11
HETATM   11  N2  UNL     1      36.372  -1.652  13.313  1.00  0.00    -0.306 N 
HETATM   12  C5  UNL     1      37.514  -0.926  13.199  1.00  0.00     0.245 C 
HETATM   13  O1  UNL     1      38.651  -1.314  13.656  1.00  0.00    -0.271 OA
ATOM     14  H2  UNL     1      35.617  -1.072  13.680  1.00  0.00     0.170 HD
BRANCH  12  15
HETATM   15  C3  UNL     1      37.478   0.434  12.519  1.00  0.00     0.170 C 
HETATM   16  C4  UNL     1      38.904   0.976  12.689  1.00  0.00     0.042 C 
BRANCH  15  17
HETATM   17  N1  UNL     1      36.545   1.255  13.273  1.00  0.00    -0.372 N 
ATOM     18  H1  UNL     1      35.570   1.079  13.032  1.00  0.00     0.161 HD
BRANCH  17  19
HETATM   19  C2  UNL     1      36.696   2.210  14.235  1.00  0.00     0.070 C 
HETATM   20  C1  UNL     1      36.278   3.623  13.875  1.00  0.00     0.081 C 
HETATM   21  S1  UNL     1      37.250   1.971  15.733  1.00  0.00    -0.066 SA
ENDBRANCH  17  19
ENDBRANCH  15  17
ENDBRANCH  12  15
ENDBRANCH   1  11
BRANCH   6  22
HETATM   22  S2  UNL     1      33.856  -6.672  12.311  1.00  0.00     0.290 S 
HETATM   23  O2  UNL     1      34.737  -7.469  11.343  1.00  0.00    -0.198 OA
HETATM   24  O3  UNL     1      33.722  -7.499  13.529  1.00  0.00    -0.198 OA
BRANCH  22  25
HETATM   25  N5  UNL     1      32.316  -6.426  11.563  1.00  0.00    -0.322 N 
ATOM     26  H52 UNL     1      32.092  -6.768  10.629  1.00  0.00     0.169 HD
ATOM     27  H51 UNL     1      31.673  -5.907  12.161  1.00  0.00     0.169 HD
ENDBRANCH  22  25
ENDBRANCH   6  22
TORSDOF 6
ENDMDL
MODEL 2
REMARK VINA RESULT: -6.923893361      2.037      2.843
REMARK  6 active torsions:
REMARK  status: ('A' for Active; 'I' for Inactive)
REMARK    1  A    between atoms: C2_2  and  N1_4 
REMARK    2  A    between atoms: N1_4  and  C3_6 
REMARK    3  A    between atoms: C3_6  and  C5_8 
REMARK       I    between atoms: C5_8  and  N2_10 
REMARK    4  A    between atoms: N2_10  and  C6_12 
REMARK    5  A    between atoms: C7_17  and  S2_18 
REMARK    6  A    between atoms: S2_18  and  N5_19 
ROOT
HETATM    1  C6  UNL     1      36.071  -3.018  13.076  1.00  0.00     0.192 A 
HETATM    2  N3  UNL     1      35.959  -3.994  13.984  1.00  0.00    -0.279 N 
ATOM      3  H3  UNL     1      36.430  -3.889  14.883  1.00  0.00     0.189 HD
HETATM    4  N4  UNL     1      35.262  -5.085  13.754  1.00  0.00    -0.273 N 
ATOM      5  H4  UNL     1      35.207  -5.792  14.488  1.00  0.00     0.189 HD
HETATM    6  C7  UNL     1      34.613  -5.313  12.587  1.00  0.00     0.241 A 
HETATM    7  N6  UNL     1      34.716  -4.363  11.660  1.00  0.00    -0.294 N 
ATOM      8  H6  UNL     1      34.244  -4.504  10.767  1.00  0.00     0.171 HD
HETATM    9  C8  UNL     1      35.407  -3.235  11.841  1.00  0.00     0.293 A 
HETATM   10  O4  UNL     1      35.487  -2.338  10.951  1.00  0.00    -0.264 OA
ENDROOT
BRANCH   1  11
HETATM   11  N2  UNL     1      36.552  -1.898  13.277  1.00  0.00    -0.306 N 
HETATM   12  C5  UNL     1      37.712  -1.341  13.712  1.00  0.00     0.245 C 
HETATM   13  O1  UNL     1      38.312  -1.699  14.791  1.00  0.00    -0.271 OA
ATOM     14  H2  UNL     1      35.873  -1.172  13.048  1.00  0.00     0.170 HD
BRANCH  12  15
HETATM   15  C3  UNL     1      38.352  -0.213  12.916  1.00  0.00     0.170 C 
HETATM   16  C4  UNL     1      37.167   0.668  12.496  1.00  0.00     0.042 C 
BRANCH  15  17
HETATM   17  N1  UNL     1      38.957  -0.820  11.742  1.00  0.00    -0.372 N 
ATOM     18  H1  UNL     1      38.314  -0.896  10.953  1.00  0.00     0.161 HD
BRANCH  17  19
HETATM   19  C2  UNL     1      40.201  -1.309  11.471  1.00  0.00     0.070 C 
HETATM   20  C1  UNL     1      40.402  -2.804  11.627  1.00  0.00     0.081 C 
HETATM   21  S1  UNL     1      41.471  -0.448  10.967  1.00  0.00    -0.066 SA
ENDBRANCH  17  19
ENDBRANCH  15  17
ENDBRANCH  12  15
ENDBRANCH   1  11
BRANCH   6  22
HETATM   22  S2  UNL     1      33.693  -6.731  12.277  1.00  0.00     0.290 S 
HETATM   23  O2  UNL     1      34.504  -7.574  11.287  1.00  0.00    -0.198 OA
HETATM   24  O3  UNL     1      33.524  -7.561  13.489  1.00  0.00    -0.198 OA
BRANCH  22  25
HETATM   25  N5  UNL     1      32.161  -6.375  11.557  1.00  0.00    -0.322 N 
ATOM     26  H52 UNL     1      31.929  -5.462  11.167  1.00  0.00     0.169 HD
ATOM     27  H51 UNL     1      31.531  -7.178  11.571  1.00  0.00     0.169 HD
ENDBRANCH  22  25
ENDBRANCH   6  22
TORSDOF 6
ENDMDL
MODEL 3
REMARK VINA RESULT: -6.698357665      0.851      1.077
REMARK  6 active torsions:
REMARK  status: ('A' for Active; 'I' for Inactive)
REMARK    1  A    between atoms: C2_2  and  N1_4 
REMARK    2  A    between atoms: N1_4  and  C3_6 
REMARK    3  A    between atoms: C3_6  and  C5_8 
REMARK       I    between atoms: C5_8  and  N2_10 
REMARK    4  A    between atoms: N2_10  and  C6_12 
REMARK    5  A    between atoms: C7_17  and  S2_18 
REMARK    6  A    between atoms: S2_18  and  N5_19 
ROOT
HETATM    1  C6  UNL     1      35.998  -2.817  13.086  1.00  0.00     0.192 A 
HETATM    2  N3  UNL     1      36.007  -3.818  13.974  1.00  0.00    -0.279 N 
ATOM      3  H3  UNL     1      36.488  -3.685  14.864  1.00  0.00     0.189 HD
HETATM    4  N4  UNL     1      35.416  -4.969  13.735  1.00  0.00    -0.273 N 
ATOM      5  H4  UNL     1      35.451  -5.692  14.454  1.00  0.00     0.189 HD
HETATM    6  C7  UNL     1      34.764  -5.237  12.579  1.00  0.00     0.241 A 
HETATM    7  N6  UNL     1      34.748  -4.263  11.672  1.00  0.00    -0.294 N 
ATOM      8  H6  UNL     1      34.269  -4.432  10.787  1.00  0.00     0.171 HD
HETATM    9  C8  UNL     1      35.327  -3.075  11.862  1.00  0.00     0.293 A 
HETATM   10  O4  UNL     1      35.294  -2.156  10.992  1.00  0.00    -0.264 OA
ENDROOT
BRANCH   1  11
HETATM   11  N2  UNL     1      36.369  -1.659  13.302  1.00  0.00    -0.306 N 
HETATM   12  C5  UNL     1      37.501  -0.912  13.226  1.00  0.00     0.245 C 
HETATM   13  O1  UNL     1      38.628  -1.276  13.725  1.00  0.00    -0.271 OA
ATOM     14  H2  UNL     1      35.591  -1.093  13.639  1.00  0.00     0.170 HD
BRANCH  12  15
HETATM   15  C3  UNL     1      37.463   0.445  12.540  1.00  0.00     0.170 C 
HETATM   16  C4  UNL     1      38.891   0.986  12.699  1.00  0.00     0.042 C 
BRANCH  15  17
HETATM   17  N1  UNL     1      36.536   1.271  13.295  1.00  0.00    -0.372 N 
ATOM     18  H1  UNL     1      35.559   1.098  13.058  1.00  0.00     0.161 HD
BRANCH  17  19
HETATM   19  C2  UNL     1      36.694   2.229  14.253  1.00  0.00     0.070 C 
HETATM   20  C1  UNL     1      36.289   3.644  13.887  1.00  0.00     0.081 C 
HETATM   21  S1  UNL     1      37.243   1.991  15.753  1.00  0.00    -0.066 SA
ENDBRANCH  17  19
ENDBRANCH  15  17
ENDBRANCH  12  15
ENDBRANCH   1  11
BRANCH   6  22
HETATM   22  S2  UNL     1      33.982  -6.733  12.258  1.00  0.00     0.290 S 
HETATM   23  O2  UNL     1      32.491  -6.422  12.088  1.00  0.00    -0.198 OA
HETATM   24  O3  UNL     1      34.430  -7.333  10.983  1.00  0.00    -0.198 OA
BRANCH  22  25
HETATM   25  N5  UNL     1      34.155  -7.858  13.561  1.00  0.00    -0.322 N 
ATOM     26  H52 UNL     1      33.662  -7.760  14.448  1.00  0.00     0.169 HD
ATOM     27  H51 UNL     1      34.799  -8.616  13.335  1.00  0.00     0.169 HD
ENDBRANCH  22  25
ENDBRANCH   6  22
TORSDOF 6
ENDMDL
MODEL 4
REMARK VINA RESULT: -6.690440142      1.117      1.117
REMARK  6 active torsions:
REMARK  status: ('A' for Active; 'I' for Inactive)
REMARK    1  A    between atoms: C2_2  and  N1_4 
REMARK    2  A    between atoms: N1_4  and  C3_6 
REMARK    3  A    between atoms: C3_6  and  C5_8 
REMARK       I    between atoms: C5_8  and  N2_10 
REMARK    4  A    between atoms: N2_10  and  C6_12 
REMARK    5  A    between atoms: C7_17  and  S2_18 
REMARK    6  A    between atoms: S2_18  and  N5_19 
ROOT
HETATM    1  C6  UNL     1      36.028  -2.770  12.968  1.00  0.00     0.192 A 
HETATM    2  N3  UNL     1      35.993  -3.708  13.921  1.00  0.00    -0.279 N 
ATOM      3  H3  UNL     1      36.468  -3.532  14.806  1.00  0.00     0.189 HD
HETATM    4  N4  UNL     1      35.366  -4.851  13.751  1.00  0.00    -0.273 N 
ATOM      5  H4  UNL     1      35.368  -5.526  14.517  1.00  0.00     0.189 HD
HETATM    6  C7  UNL     1      34.717  -5.174  12.607  1.00  0.00     0.241 A 
HETATM    7  N6  UNL     1      34.745  -4.263  11.637  1.00  0.00    -0.294 N 
ATOM      8  H6  UNL     1      34.270  -4.476  10.759  1.00  0.00     0.171 HD
HETATM    9  C8  UNL     1      35.362  -3.086  11.755  1.00  0.00     0.293 A 
HETATM   10  O4  UNL     1      35.371  -2.227  10.825  1.00  0.00    -0.264 OA
ENDROOT
BRANCH   1  11
HETATM   11  N2  UNL     1      36.437  -1.613  13.111  1.00  0.00    -0.306 N 
HETATM   12  C5  UNL     1      37.574  -0.961  13.469  1.00  0.00     0.245 C 
HETATM   13  O1  UNL     1      38.250  -1.241  14.526  1.00  0.00    -0.271 OA
ATOM     14  H2  UNL     1      35.698  -0.944  12.895  1.00  0.00     0.170 HD
BRANCH  12  15
HETATM   15  C3  UNL     1      38.092   0.181  12.607  1.00  0.00     0.170 C 
HETATM   16  C4  UNL     1      39.489  -0.282  12.171  1.00  0.00     0.042 C 
BRANCH  15  17
HETATM   17  N1  UNL     1      38.205   1.342  13.475  1.00  0.00    -0.372 N 
ATOM     18  H1  UNL     1      38.579   1.119  14.397  1.00  0.00     0.161 HD
BRANCH  17  19
HETATM   19  C2  UNL     1      37.918   2.666  13.317  1.00  0.00     0.070 C 
HETATM   20  C1  UNL     1      36.580   3.148  13.844  1.00  0.00     0.081 C 
HETATM   21  S1  UNL     1      38.884   3.774  12.649  1.00  0.00    -0.066 SA
ENDBRANCH  17  19
ENDBRANCH  15  17
ENDBRANCH  12  15
ENDBRANCH   1  11
BRANCH   6  22
HETATM   22  S2  UNL     1      33.888  -6.661  12.377  1.00  0.00     0.290 S 
HETATM   23  O2  UNL     1      34.760  -7.511  11.446  1.00  0.00    -0.198 OA
HETATM   24  O3  UNL     1      33.755  -7.427  13.635  1.00  0.00    -0.198 OA
BRANCH  22  25
HETATM   25  N5  UNL     1      32.345  -6.444  11.625  1.00  0.00    -0.322 N 
ATOM     26  H52 UNL     1      32.013  -5.540  11.291  1.00  0.00     0.169 HD
ATOM     27  H51 UNL     1      31.821  -7.316  11.558  1.00  0.00     0.169 HD
ENDBRANCH  22  25
ENDBRANCH   6  22
TORSDOF 6
ENDMDL
MODEL 5
REMARK VINA RESULT: -6.254857733      1.332      1.952
REMARK  6 active torsions:
REMARK  status: ('A' for Active; 'I' for Inactive)
REMARK    1  A    between atoms: C2_2  and  N1_4 
REMARK    2  A    between atoms: N1_4  and  C3_6 
REMARK    3  A    between atoms: C3_6  and  C5_8 
REMARK       I    between atoms: C5_8  and  N2_10 
REMARK    4  A    between atoms: N2_10  and  C6_12 
REMARK    5  A    between atoms: C7_17  and  S2_18 
REMARK    6  A    between atoms: S2_18  and  N5_19 
ROOT
HETATM    1  C6  UNL     1      36.418  -2.944  12.378  1.00  0.00     0.192 A 
HETATM    2  N3  UNL     1      35.473  -3.171  11.459  1.00  0.00    -0.279 N 
ATOM      3  H3  UNL     1      35.301  -2.466  10.742  1.00  0.00     0.189 HD
HETATM    4  N4  UNL     1      34.758  -4.275  11.451  1.00  0.00    -0.273 N 
ATOM      5  H4  UNL     1      34.056  -4.395  10.720  1.00  0.00     0.189 HD
HETATM    6  C7  UNL     1      34.911  -5.260  12.368  1.00  0.00     0.241 A 
HETATM    7  N6  UNL     1      35.838  -5.056  13.302  1.00  0.00    -0.294 N 
ATOM      8  H6  UNL     1      35.977  -5.775  14.013  1.00  0.00     0.171 HD
HETATM    9  C8  UNL     1      36.594  -3.957  13.357  1.00  0.00     0.293 A 
HETATM   10  O4  UNL     1      37.477  -3.783  14.247  1.00  0.00    -0.264 OA
ENDROOT
BRANCH   1  11
HETATM   11  N2  UNL     1      37.245  -2.026  12.350  1.00  0.00    -0.306 N 
HETATM   12  C5  UNL     1      37.303  -0.705  12.041  1.00  0.00     0.245 C 
HETATM   13  O1  UNL     1      36.843  -0.210  10.948  1.00  0.00    -0.271 OA
ATOM     14  H2  UNL     1      38.160  -2.362  12.649  1.00  0.00     0.170 HD
BRANCH  12  15
HETATM   15  C3  UNL     1      37.963   0.267  13.008  1.00  0.00     0.170 C 
HETATM   16  C4  UNL     1      38.783  -0.633  13.943  1.00  0.00     0.042 C 
BRANCH  15  17
HETATM   17  N1  UNL     1      36.893   0.908  13.753  1.00  0.00    -0.372 N 
ATOM     18  H1  UNL     1      36.018   0.385  13.729  1.00  0.00     0.161 HD
BRANCH  17  19
HETATM   19  C2  UNL     1      36.811   2.060  14.479  1.00  0.00     0.070 C 
HETATM   20  C1  UNL     1      37.171   1.975  15.950  1.00  0.00     0.081 C 
HETATM   21  S1  UNL     1      36.397   3.514  13.910  1.00  0.00    -0.066 SA
ENDBRANCH  17  19
ENDBRANCH  15  17
ENDBRANCH  12  15
ENDBRANCH   1  11
BRANCH   6  22
HETATM   22  S2  UNL     1      33.989  -6.709  12.364  1.00  0.00     0.290 S 
HETATM   23  O2  UNL     1      34.757  -7.716  11.500  1.00  0.00    -0.198 OA
HETATM   24  O3  UNL     1      33.889  -7.310  13.712  1.00  0.00    -0.198 OA
BRANCH  22  25
HETATM   25  N5  UNL     1      32.420  -6.488  11.672  1.00  0.00    -0.322 N 
ATOM     26  H52 UNL     1      31.890  -5.622  11.763  1.00  0.00     0.169 HD
ATOM     27  H51 UNL     1      32.097  -7.316  11.171  1.00  0.00     0.169 HD
ENDBRANCH  22  25
ENDBRANCH   6  22
TORSDOF 6
ENDMDL
