MODEL 1
REMARK VINA RESULT: -7.559833569      0.000      0.000
REMARK  7 active torsions:
REMARK  status: ('A' for Active; 'I' for Inactive)
REMARK    1  A    between atoms: O1_2  and  C2_3 
REMARK    2  A    between atoms: C2_3  and  C3_4 
REMARK    3  A    between atoms: C3_4  and  C4_5 
REMARK    4  A    between atoms: C4_5  and  C5_6 
REMARK    5  A    between atoms: C10_11  and  C12_13 
REMARK    6  A    between atoms: C21_24  and  O4_25 
REMARK    7  A    between atoms: C22_27  and  C23_28 
ROOT
HETATM    1  C5  UNL     1      38.912  27.154  39.084  1.00  0.00     0.091 C 
HETATM    2  C6  UNL     1      39.251  25.807  38.588  1.00  0.00     0.017 C 
HETATM    3  C7  UNL     1      39.245  24.801  39.687  1.00  0.00     0.008 C 
HETATM    4  C8  UNL     1      39.734  23.425  39.223  1.00  0.00     0.007 C 
HETATM    5  C9  UNL     1      38.680  23.005  38.237  1.00  0.00     0.013 C 
HETATM    6  C10 UNL     1      38.589  21.526  38.089  1.00  0.00     0.049 C 
HETATM    7  C11 UNL     1      39.940  20.812  38.217  1.00  0.00     0.027 C 
HETATM    8  C13 UNL     1      37.902  21.070  36.854  1.00  0.00     0.020 C 
HETATM    9  C14 UNL     1      37.216  22.125  36.064  1.00  0.00     0.002 C 
HETATM   10  C15 UNL     1      37.938  23.414  35.888  1.00  0.00     0.010 C 
HETATM   11  C16 UNL     1      38.819  23.845  37.040  1.00  0.00    -0.031 C 
HETATM   12  C17 UNL     1      40.260  23.790  36.572  1.00  0.00     0.016 C 
HETATM   13  C18 UNL     1      38.549  25.329  37.348  1.00  0.00    -0.029 C 
HETATM   14  C19 UNL     1      37.047  25.361  37.683  1.00  0.00     0.016 C 
HETATM   15  C20 UNL     1      38.738  26.044  36.084  1.00  0.00     0.043 C 
HETATM   16  C21 UNL     1      39.917  26.853  35.769  1.00  0.00     0.139 C 
HETATM   17  C22 UNL     1      39.603  28.346  35.957  1.00  0.00     0.175 C 
HETATM   18  C25 UNL     1      40.136  28.703  37.278  1.00  0.00     0.233 C 
HETATM   19  O6  UNL     1      40.933  29.681  37.291  1.00  0.00    -0.272 OA
HETATM   20  N1  UNL     1      39.915  28.141  38.554  1.00  0.00    -0.351 N 
HETATM   21  C26 UNL     1      40.858  28.613  39.565  1.00  0.00     0.153 C 
ENDROOT
BRANCH   1  22
HETATM   22  C4  UNL     1      38.737  27.551  40.471  1.00  0.00     0.028 C 
BRANCH  22  23
HETATM   23  C3  UNL     1      39.429  26.878  41.609  1.00  0.00     0.028 C 
BRANCH  23  24
HETATM   24  C2  UNL     1      39.714  27.874  42.752  1.00  0.00     0.167 C 
BRANCH  24  25
HETATM   25  O1  UNL     1      40.227  27.176  43.818  1.00  0.00    -0.396 OA
HETATM   26  C1  UNL     1      40.081  25.820  43.788  1.00  0.00     0.201 C 
ENDBRANCH  24  25
ENDBRANCH  23  24
ENDBRANCH  22  23
ENDBRANCH   1  22
BRANCH  17  27
HETATM   27  C23 UNL     1      40.028  29.190  34.858  1.00  0.00     0.138 C 
HETATM   28  C24 UNL     1      39.028  29.972  34.080  1.00  0.00     0.092 C 
HETATM   29  O5  UNL     1      41.191  29.319  34.501  1.00  0.00    -0.297 OA
ENDBRANCH  17  27
BRANCH  16  30
HETATM   30  O4  UNL     1      40.323  26.770  34.426  1.00  0.00    -0.394 OA
ATOM     31  H4  UNL     1      41.265  26.741  34.309  1.00  0.00     0.210 HD
ENDBRANCH  16  30
BRANCH   6  32
HETATM   32  C12 UNL     1      37.828  21.041  39.280  1.00  0.00     0.181 C 
HETATM   33  O2  UNL     1      37.043  21.753  39.945  1.00  0.00    -0.647 OA
HETATM   34  O3  UNL     1      38.013  19.724  39.654  1.00  0.00    -0.647 OA
ENDBRANCH   6  32
TORSDOF 7
ENDMDL
MODEL 2
REMARK VINA RESULT: -7.380158588     11.790     14.309
REMARK  7 active torsions:
REMARK  status: ('A' for Active; 'I' for Inactive)
REMARK    1  A    between atoms: O1_2  and  C2_3 
REMARK    2  A    between atoms: C2_3  and  C3_4 
REMARK    3  A    between atoms: C3_4  and  C4_5 
REMARK    4  A    between atoms: C4_5  and  C5_6 
REMARK    5  A    between atoms: C10_11  and  C12_13 
REMARK    6  A    between atoms: C21_24  and  O4_25 
REMARK    7  A    between atoms: C22_27  and  C23_28 
ROOT
HETATM    1  C5  UNL     1      49.769  28.062  29.419  1.00  0.00     0.091 C 
HETATM    2  C6  UNL     1      49.694  27.162  30.585  1.00  0.00     0.017 C 
HETATM    3  C7  UNL     1      48.966  25.903  30.260  1.00  0.00     0.008 C 
HETATM    4  C8  UNL     1      48.751  25.018  31.491  1.00  0.00     0.007 C 
HETATM    5  C9  UNL     1      50.150  24.629  31.881  1.00  0.00     0.013 C 
HETATM    6  C10 UNL     1      50.201  23.351  32.642  1.00  0.00     0.049 C 
HETATM    7  C11 UNL     1      48.992  23.135  33.561  1.00  0.00     0.027 C 
HETATM    8  C13 UNL     1      51.453  23.139  33.412  1.00  0.00     0.020 C 
HETATM    9  C14 UNL     1      52.551  24.104  33.144  1.00  0.00     0.002 C 
HETATM   10  C15 UNL     1      52.177  25.538  33.022  1.00  0.00     0.010 C 
HETATM   11  C16 UNL     1      50.817  25.821  32.422  1.00  0.00    -0.031 C 
HETATM   12  C17 UNL     1      49.942  26.417  33.506  1.00  0.00     0.016 C 
HETATM   13  C18 UNL     1      50.959  26.929  31.361  1.00  0.00    -0.029 C 
HETATM   14  C19 UNL     1      51.961  26.336  30.354  1.00  0.00     0.016 C 
HETATM   15  C20 UNL     1      51.618  28.050  32.035  1.00  0.00     0.043 C 
HETATM   16  C21 UNL     1      50.925  29.264  32.470  1.00  0.00     0.139 C 
HETATM   17  C22 UNL     1      51.174  30.405  31.471  1.00  0.00     0.175 C 
HETATM   18  C25 UNL     1      49.986  30.448  30.608  1.00  0.00     0.233 C 
HETATM   19  O6  UNL     1      49.415  31.571  30.534  1.00  0.00    -0.272 OA
HETATM   20  N1  UNL     1      49.358  29.447  29.838  1.00  0.00    -0.351 N 
HETATM   21  C26 UNL     1      48.036  29.834  29.351  1.00  0.00     0.153 C 
ENDROOT
BRANCH   1  22
HETATM   22  C4  UNL     1      49.109  27.879  28.137  1.00  0.00     0.028 C 
BRANCH  22  23
HETATM   23  C3  UNL     1      49.799  27.333  26.931  1.00  0.00     0.028 C 
BRANCH  23  24
HETATM   24  C2  UNL     1      49.201  25.973  26.519  1.00  0.00     0.167 C 
BRANCH  24  25
HETATM   25  O1  UNL     1      49.292  25.854  25.154  1.00  0.00    -0.396 OA
HETATM   26  C1  UNL     1      50.367  26.448  24.559  1.00  0.00     0.201 C 
ENDBRANCH  24  25
ENDBRANCH  23  24
ENDBRANCH  22  23
ENDBRANCH   1  22
BRANCH  17  27
HETATM   27  C23 UNL     1      51.555  31.663  32.081  1.00  0.00     0.138 C 
HETATM   28  C24 UNL     1      52.842  32.318  31.717  1.00  0.00     0.092 C 
HETATM   29  O5  UNL     1      50.876  32.259  32.908  1.00  0.00    -0.297 OA
ENDBRANCH  17  27
BRANCH  16  30
HETATM   30  O4  UNL     1      51.397  29.785  33.687  1.00  0.00    -0.394 OA
ATOM     31  H4  UNL     1      52.043  30.474  33.586  1.00  0.00     0.210 HD
ENDBRANCH  16  30
BRANCH   6  32
HETATM   32  C12 UNL     1      50.061  22.263  31.626  1.00  0.00     0.181 C 
HETATM   33  O2  UNL     1      50.715  22.214  30.562  1.00  0.00    -0.647 OA
HETATM   34  O3  UNL     1      49.150  21.260  31.898  1.00  0.00    -0.647 OA
ENDBRANCH   6  32
TORSDOF 7
ENDMDL
MODEL 3
REMARK VINA RESULT: -7.344089211     11.319     13.192
REMARK  7 active torsions:
REMARK  status: ('A' for Active; 'I' for Inactive)
REMARK    1  A    between atoms: O1_2  and  C2_3 
REMARK    2  A    between atoms: C2_3  and  C3_4 
REMARK    3  A    between atoms: C3_4  and  C4_5 
REMARK    4  A    between atoms: C4_5  and  C5_6 
REMARK    5  A    between atoms: C10_11  and  C12_13 
REMARK    6  A    between atoms: C21_24  and  O4_25 
REMARK    7  A    between atoms: C22_27  and  C23_28 
ROOT
HETATM    1  C5  UNL     1      49.789  25.576  31.812  1.00  0.00     0.091 C 
HETATM    2  C6  UNL     1      50.046  24.757  30.612  1.00  0.00     0.017 C 
HETATM    3  C7  UNL     1      50.914  23.587  30.923  1.00  0.00     0.008 C 
HETATM    4  C8  UNL     1      51.311  22.804  29.667  1.00  0.00     0.007 C 
HETATM    5  C9  UNL     1      49.999  22.260  29.176  1.00  0.00     0.013 C 
HETATM    6  C10 UNL     1      50.158  21.028  28.355  1.00  0.00     0.049 C 
HETATM    7  C11 UNL     1      51.433  21.020  27.502  1.00  0.00     0.027 C 
HETATM    8  C13 UNL     1      48.988  20.698  27.501  1.00  0.00     0.020 C 
HETATM    9  C14 UNL     1      47.759  21.497  27.746  1.00  0.00     0.002 C 
HETATM   10  C15 UNL     1      47.934  22.959  27.956  1.00  0.00     0.010 C 
HETATM   11  C16 UNL     1      49.211  23.383  28.651  1.00  0.00    -0.031 C 
HETATM   12  C17 UNL     1      50.057  24.144  27.650  1.00  0.00     0.016 C 
HETATM   13  C18 UNL     1      48.866  24.404  29.751  1.00  0.00    -0.029 C 
HETATM   14  C19 UNL     1      47.898  23.634  30.667  1.00  0.00     0.016 C 
HETATM   15  C20 UNL     1      48.103  25.466  29.090  1.00  0.00     0.043 C 
HETATM   16  C21 UNL     1      48.652  26.781  28.755  1.00  0.00     0.139 C 
HETATM   17  C22 UNL     1      48.201  27.824  29.789  1.00  0.00     0.175 C 
HETATM   18  C25 UNL     1      49.324  27.974  30.723  1.00  0.00     0.233 C 
HETATM   19  O6  UNL     1      49.737  29.155  30.884  1.00  0.00    -0.272 OA
HETATM   20  N1  UNL     1      50.036  27.022  31.483  1.00  0.00    -0.351 N 
HETATM   21  C26 UNL     1      51.267  27.550  32.067  1.00  0.00     0.153 C 
ENDROOT
BRANCH   1  22
HETATM   22  C4  UNL     1      50.397  25.411  33.122  1.00  0.00     0.028 C 
BRANCH  22  23
HETATM   23  C3  UNL     1      49.606  25.219  34.373  1.00  0.00     0.028 C 
BRANCH  23  24
HETATM   24  C2  UNL     1      48.675  23.996  34.258  1.00  0.00     0.167 C 
BRANCH  24  25
HETATM   25  O1  UNL     1      49.447  22.880  34.049  1.00  0.00    -0.396 OA
HETATM   26  C1  UNL     1      48.788  21.737  33.702  1.00  0.00     0.201 C 
ENDBRANCH  24  25
ENDBRANCH  23  24
ENDBRANCH  22  23
ENDBRANCH   1  22
BRANCH  17  27
HETATM   27  C23 UNL     1      47.691  29.054  29.216  1.00  0.00     0.138 C 
HETATM   28  C24 UNL     1      46.275  29.457  29.435  1.00  0.00     0.092 C 
HETATM   29  O5  UNL     1      48.358  29.823  28.535  1.00  0.00    -0.297 OA
ENDBRANCH  17  27
BRANCH  16  30
HETATM   30  O4  UNL     1      48.182  27.301  27.537  1.00  0.00    -0.394 OA
ATOM     31  H4  UNL     1      48.281  28.242  27.457  1.00  0.00     0.210 HD
ENDBRANCH  16  30
BRANCH   6  32
HETATM   32  C12 UNL     1      50.385  19.915  29.326  1.00  0.00     0.181 C 
HETATM   33  O2  UNL     1      51.361  19.135  29.277  1.00  0.00    -0.647 OA
HETATM   34  O3  UNL     1      49.450  19.754  30.330  1.00  0.00    -0.647 OA
ENDBRANCH   6  32
TORSDOF 7
ENDMDL
MODEL 4
REMARK VINA RESULT: -7.234216852     12.343     16.770
REMARK  7 active torsions:
REMARK  status: ('A' for Active; 'I' for Inactive)
REMARK    1  A    between atoms: O1_2  and  C2_3 
REMARK    2  A    between atoms: C2_3  and  C3_4 
REMARK    3  A    between atoms: C3_4  and  C4_5 
REMARK    4  A    between atoms: C4_5  and  C5_6 
REMARK    5  A    between atoms: C10_11  and  C12_13 
REMARK    6  A    between atoms: C21_24  and  O4_25 
REMARK    7  A    between atoms: C22_27  and  C23_28 
ROOT
HETATM    1  C5  UNL     1      48.163  31.338  29.445  1.00  0.00     0.091 C 
HETATM    2  C6  UNL     1      49.466  31.807  28.939  1.00  0.00     0.017 C 
HETATM    3  C7  UNL     1      49.312  32.982  28.035  1.00  0.00     0.008 C 
HETATM    4  C8  UNL     1      50.636  33.396  27.385  1.00  0.00     0.007 C 
HETATM    5  C9  UNL     1      51.463  33.848  28.555  1.00  0.00     0.013 C 
HETATM    6  C10 UNL     1      52.525  34.817  28.169  1.00  0.00     0.049 C 
HETATM    7  C11 UNL     1      53.122  34.553  26.781  1.00  0.00     0.027 C 
HETATM    8  C13 UNL     1      53.621  34.963  29.161  1.00  0.00     0.020 C 
HETATM    9  C14 UNL     1      53.399  34.305  30.474  1.00  0.00     0.002 C 
HETATM   10  C15 UNL     1      52.806  32.941  30.456  1.00  0.00     0.010 C 
HETATM   11  C16 UNL     1      51.820  32.660  29.343  1.00  0.00    -0.031 C 
HETATM   12  C17 UNL     1      52.440  31.632  28.418  1.00  0.00     0.016 C 
HETATM   13  C18 UNL     1      50.576  31.973  29.938  1.00  0.00    -0.029 C 
HETATM   14  C19 UNL     1      50.060  32.993  30.969  1.00  0.00     0.016 C 
HETATM   15  C20 UNL     1      51.073  30.809  30.675  1.00  0.00     0.043 C 
HETATM   16  C21 UNL     1      50.972  29.430  30.191  1.00  0.00     0.139 C 
HETATM   17  C22 UNL     1      49.804  28.709  30.883  1.00  0.00     0.175 C 
HETATM   18  C25 UNL     1      48.684  28.761  29.934  1.00  0.00     0.233 C 
HETATM   19  O6  UNL     1      48.167  27.645  29.650  1.00  0.00    -0.272 OA
HETATM   20  N1  UNL     1      48.074  29.847  29.272  1.00  0.00    -0.351 N 
HETATM   21  C26 UNL     1      47.176  29.438  28.195  1.00  0.00     0.153 C 
ENDROOT
BRANCH   1  22
HETATM   22  C4  UNL     1      46.850  31.811  29.037  1.00  0.00     0.028 C 
BRANCH  22  23
HETATM   23  C3  UNL     1      45.949  32.599  29.928  1.00  0.00     0.028 C 
BRANCH  23  24
HETATM   24  C2  UNL     1      46.534  33.998  30.211  1.00  0.00     0.167 C 
BRANCH  24  25
HETATM   25  O1  UNL     1      45.791  34.586  31.206  1.00  0.00    -0.396 OA
HETATM   26  C1  UNL     1      44.743  33.862  31.695  1.00  0.00     0.201 C 
ENDBRANCH  24  25
ENDBRANCH  23  24
ENDBRANCH  22  23
ENDBRANCH   1  22
BRANCH  17  27
HETATM   27  C23 UNL     1      50.133  27.395  31.398  1.00  0.00     0.138 C 
HETATM   28  C24 UNL     1      50.186  27.153  32.866  1.00  0.00     0.092 C 
HETATM   29  O5  UNL     1      50.382  26.424  30.695  1.00  0.00    -0.297 OA
ENDBRANCH  17  27
BRANCH  16  30
HETATM   30  O4  UNL     1      52.085  28.632  30.508  1.00  0.00    -0.394 OA
ATOM     31  H4  UNL     1      51.860  27.760  30.810  1.00  0.00     0.210 HD
ENDBRANCH  16  30
BRANCH   6  32
HETATM   32  C12 UNL     1      51.837  36.134  28.003  1.00  0.00     0.181 C 
HETATM   33  O2  UNL     1      50.965  36.569  28.786  1.00  0.00    -0.647 OA
HETATM   34  O3  UNL     1      52.201  36.903  26.914  1.00  0.00    -0.647 OA
ENDBRANCH   6  32
TORSDOF 7
ENDMDL
MODEL 5
REMARK VINA RESULT: -7.231519989     12.298     15.302
REMARK  7 active torsions:
REMARK  status: ('A' for Active; 'I' for Inactive)
REMARK    1  A    between atoms: O1_2  and  C2_3 
REMARK    2  A    between atoms: C2_3  and  C3_4 
REMARK    3  A    between atoms: C3_4  and  C4_5 
REMARK    4  A    between atoms: C4_5  and  C5_6 
REMARK    5  A    between atoms: C10_11  and  C12_13 
REMARK    6  A    between atoms: C21_24  and  O4_25 
REMARK    7  A    between atoms: C22_27  and  C23_28 
ROOT
HETATM    1  C5  UNL     1      50.395  31.423  30.478  1.00  0.00     0.091 C 
HETATM    2  C6  UNL     1      51.203  30.197  30.343  1.00  0.00     0.017 C 
HETATM    3  C7  UNL     1      52.657  30.478  30.506  1.00  0.00     0.008 C 
HETATM    4  C8  UNL     1      53.525  29.246  30.229  1.00  0.00     0.007 C 
HETATM    5  C9  UNL     1      53.134  28.299  31.329  1.00  0.00     0.013 C 
HETATM    6  C10 UNL     1      54.201  27.309  31.642  1.00  0.00     0.049 C 
HETATM    7  C11 UNL     1      55.010  26.869  30.415  1.00  0.00     0.027 C 
HETATM    8  C13 UNL     1      53.735  26.110  32.385  1.00  0.00     0.020 C 
HETATM    9  C14 UNL     1      52.342  26.166  32.899  1.00  0.00     0.002 C 
HETATM   10  C15 UNL     1      51.308  26.729  31.991  1.00  0.00     0.010 C 
HETATM   11  C16 UNL     1      51.769  27.830  31.059  1.00  0.00    -0.031 C 
HETATM   12  C17 UNL     1      51.709  27.298  29.642  1.00  0.00     0.016 C 
HETATM   13  C18 UNL     1      50.748  28.983  31.104  1.00  0.00    -0.029 C 
HETATM   14  C19 UNL     1      50.739  29.399  32.586  1.00  0.00     0.016 C 
HETATM   15  C20 UNL     1      49.447  28.381  30.803  1.00  0.00     0.043 C 
HETATM   16  C21 UNL     1      48.765  28.507  29.514  1.00  0.00     0.139 C 
HETATM   17  C22 UNL     1      47.661  29.573  29.600  1.00  0.00     0.175 C 
HETATM   18  C25 UNL     1      48.238  30.795  29.026  1.00  0.00     0.233 C 
HETATM   19  O6  UNL     1      47.572  31.317  28.090  1.00  0.00    -0.272 OA
HETATM   20  N1  UNL     1      49.421  31.499  29.335  1.00  0.00    -0.351 N 
HETATM   21  C26 UNL     1      49.773  32.506  28.336  1.00  0.00     0.153 C 
ENDROOT
BRANCH   1  22
HETATM   22  C4  UNL     1      50.894  32.784  30.597  1.00  0.00     0.028 C 
BRANCH  22  23
HETATM   23  C3  UNL     1      50.760  33.599  31.840  1.00  0.00     0.028 C 
BRANCH  23  24
HETATM   24  C2  UNL     1      51.815  33.190  32.888  1.00  0.00     0.167 C 
BRANCH  24  25
HETATM   25  O1  UNL     1      52.879  34.052  32.792  1.00  0.00    -0.396 OA
HETATM   26  C1  UNL     1      54.061  33.519  32.367  1.00  0.00     0.201 C 
ENDBRANCH  24  25
ENDBRANCH  23  24
ENDBRANCH  22  23
ENDBRANCH   1  22
BRANCH  17  27
HETATM   27  C23 UNL     1      46.386  29.160  29.047  1.00  0.00     0.138 C 
HETATM   28  C24 UNL     1      45.183  29.064  29.919  1.00  0.00     0.092 C 
HETATM   29  O5  UNL     1      46.208  28.870  27.871  1.00  0.00    -0.297 OA
ENDBRANCH  17  27
BRANCH  16  30
HETATM   30  O4  UNL     1      48.073  27.349  29.119  1.00  0.00    -0.394 OA
ATOM     31  H4  UNL     1      47.439  27.043  29.757  1.00  0.00     0.210 HD
ENDBRANCH  16  30
BRANCH   6  32
HETATM   32  C12 UNL     1      55.206  28.039  32.474  1.00  0.00     0.181 C 
HETATM   33  O2  UNL     1      55.080  28.244  33.701  1.00  0.00    -0.647 OA
HETATM   34  O3  UNL     1      56.336  28.508  31.831  1.00  0.00    -0.647 OA
ENDBRANCH   6  32
TORSDOF 7
ENDMDL
