MODEL 1
REMARK VINA RESULT: -6.608070881      0.000      0.000
REMARK  9 active torsions:
REMARK  status: ('A' for Active; 'I' for Inactive)
REMARK    1  A    between atoms: C2_2  and  C3_3 
REMARK    2  A    between atoms: C3_3  and  C4_4 
REMARK    3  A    between atoms: C4_4  and  C5_6 
REMARK    4  A    between atoms: C11_12  and  N1_13 
REMARK       I    between atoms: N1_13  and  C12_15 
REMARK    5  A    between atoms: C14_18  and  O3_19 
REMARK    6  A    between atoms: C15_21  and  C16_22 
REMARK    7  A    between atoms: C16_22  and  S1_23 
REMARK    8  A    between atoms: S1_23  and  C17_24 
REMARK    9  A    between atoms: C17_24  and  C18_25 
ROOT
HETATM    1  C5  UNL     1      48.750  23.067  29.299  1.00  0.00    -0.015 C 
HETATM    2  C6  UNL     1      48.311  24.267  29.601  1.00  0.00    -0.004 C 
HETATM    3  C7  UNL     1      48.964  25.556  30.005  1.00  0.00     0.015 C 
HETATM    4  C8  UNL     1      48.651  25.678  31.469  1.00  0.00     0.023 C 
HETATM    5  C9  UNL     1      50.414  25.468  29.688  1.00  0.00     0.006 C 
HETATM    6  C10 UNL     1      51.185  26.710  29.931  1.00  0.00     0.034 C 
HETATM    7  C11 UNL     1      50.431  28.022  29.771  1.00  0.00     0.122 C 
HETATM    8  C14 UNL     1      49.283  27.837  28.893  1.00  0.00     0.118 C 
HETATM    9  C15 UNL     1      48.223  28.863  28.788  1.00  0.00     0.060 C 
HETATM   10  C21 UNL     1      47.117  28.430  29.754  1.00  0.00     0.241 C 
HETATM   11  N2  UNL     1      47.111  27.012  29.496  1.00  0.00    -0.062 N 
ATOM     12  H21 UNL     1      46.406  26.745  28.809  1.00  0.00     0.278 HD
ATOM     13  H22 UNL     1      46.752  26.475  30.285  1.00  0.00     0.278 HD
HETATM   14  C22 UNL     1      48.432  26.604  29.111  1.00  0.00     0.169 C 
HETATM   15  C23 UNL     1      48.304  25.935  27.739  1.00  0.00     0.044 C 
HETATM   16  C24 UNL     1      49.506  25.176  27.330  1.00  0.00     0.007 C 
HETATM   17  C25 UNL     1      50.580  24.911  28.292  1.00  0.00    -0.009 C 
HETATM   18  C26 UNL     1      50.995  23.442  28.319  1.00  0.00     0.010 C 
HETATM   19  C27 UNL     1      50.150  22.640  29.281  1.00  0.00     0.042 C 
ENDROOT
BRANCH   9  20
HETATM   20  C16 UNL     1      48.539  30.284  28.783  1.00  0.00     0.083 C 
BRANCH  20  21
HETATM   21  S1  UNL     1      47.128  31.362  28.430  1.00  0.00    -0.168 SA
BRANCH  21  22
HETATM   22  C17 UNL     1      47.003  32.781  29.493  1.00  0.00     0.077 C 
BRANCH  22  23
HETATM   23  C18 UNL     1      45.579  33.161  29.825  1.00  0.00    -0.013 C 
HETATM   24  C19 UNL     1      44.737  31.990  30.246  1.00  0.00     0.010 C 
HETATM   25  C20 UNL     1      45.650  34.134  30.992  1.00  0.00     0.010 C 
ENDBRANCH  22  23
ENDBRANCH  21  22
ENDBRANCH  20  21
ENDBRANCH   9  20
BRANCH   8  26
HETATM   26  O3  UNL     1      49.856  27.798  27.572  1.00  0.00    -0.385 OA
ATOM     27  H3  UNL     1      49.157  27.453  27.027  1.00  0.00     0.210 HD
ENDBRANCH   8  26
BRANCH   7  28
HETATM   28  N1  UNL     1      50.293  28.681  31.022  1.00  0.00    -0.354 N 
HETATM   29  C12 UNL     1      51.015  29.906  31.235  1.00  0.00     0.214 C 
HETATM   30  C13 UNL     1      50.953  30.684  32.496  1.00  0.00     0.117 C 
HETATM   31  O2  UNL     1      51.753  30.378  30.326  1.00  0.00    -0.274 OA
ATOM     32  H1  UNL     1      49.696  28.294  31.753  1.00  0.00     0.163 HD
ENDBRANCH   7  28
BRANCH   1  33
HETATM   33  C4  UNL     1      47.677  22.134  28.963  1.00  0.00     0.155 C 
HETATM   34  O1  UNL     1      47.126  21.424  29.879  1.00  0.00    -0.293 OA
BRANCH  33  35
HETATM   35  C3  UNL     1      47.127  21.905  27.621  1.00  0.00     0.083 C 
BRANCH  35  36
HETATM   36  C2  UNL     1      47.959  20.790  26.985  1.00  0.00     0.003 C 
HETATM   37  C1  UNL     1      48.942  21.329  25.989  1.00  0.00     0.005 C 
ENDBRANCH  35  36
ENDBRANCH  33  35
ENDBRANCH   1  33
TORSDOF 9
ENDMDL
MODEL 2
REMARK VINA RESULT: -6.378888347      1.135      1.495
REMARK  9 active torsions:
REMARK  status: ('A' for Active; 'I' for Inactive)
REMARK    1  A    between atoms: C2_2  and  C3_3 
REMARK    2  A    between atoms: C3_3  and  C4_4 
REMARK    3  A    between atoms: C4_4  and  C5_6 
REMARK    4  A    between atoms: C11_12  and  N1_13 
REMARK       I    between atoms: N1_13  and  C12_15 
REMARK    5  A    between atoms: C14_18  and  O3_19 
REMARK    6  A    between atoms: C15_21  and  C16_22 
REMARK    7  A    between atoms: C16_22  and  S1_23 
REMARK    8  A    between atoms: S1_23  and  C17_24 
REMARK    9  A    between atoms: C17_24  and  C18_25 
ROOT
HETATM    1  C5  UNL     1      49.505  23.620  28.385  1.00  0.00    -0.015 C 
HETATM    2  C6  UNL     1      48.892  24.661  28.899  1.00  0.00    -0.004 C 
HETATM    3  C7  UNL     1      49.344  25.965  29.487  1.00  0.00     0.015 C 
HETATM    4  C8  UNL     1      49.114  25.798  30.961  1.00  0.00     0.023 C 
HETATM    5  C9  UNL     1      50.764  26.186  29.102  1.00  0.00     0.006 C 
HETATM    6  C10 UNL     1      51.329  27.491  29.519  1.00  0.00     0.034 C 
HETATM    7  C11 UNL     1      50.356  28.657  29.609  1.00  0.00     0.122 C 
HETATM    8  C14 UNL     1      49.199  28.412  28.757  1.00  0.00     0.118 C 
HETATM    9  C15 UNL     1      47.976  29.238  28.866  1.00  0.00     0.060 C 
HETATM   10  C21 UNL     1      47.027  28.469  29.789  1.00  0.00     0.241 C 
HETATM   11  N2  UNL     1      47.242  27.132  29.299  1.00  0.00    -0.062 N 
ATOM     12  H21 UNL     1      46.547  26.855  28.606  1.00  0.00     0.278 HD
ATOM     13  H22 UNL     1      47.033  26.422  30.001  1.00  0.00     0.278 HD
HETATM   14  C22 UNL     1      48.584  27.029  28.801  1.00  0.00     0.169 C 
HETATM   15  C23 UNL     1      48.478  26.572  27.342  1.00  0.00     0.044 C 
HETATM   16  C24 UNL     1      49.761  26.112  26.766  1.00  0.00     0.007 C 
HETATM   17  C25 UNL     1      50.926  25.894  27.628  1.00  0.00    -0.009 C 
HETATM   18  C26 UNL     1      51.583  24.535  27.394  1.00  0.00     0.010 C 
HETATM   19  C27 UNL     1      50.953  23.455  28.241  1.00  0.00     0.042 C 
ENDROOT
BRANCH   9  20
HETATM   20  C16 UNL     1      48.048  30.676  29.085  1.00  0.00     0.083 C 
BRANCH  20  21
HETATM   21  S1  UNL     1      46.539  31.573  28.646  1.00  0.00    -0.168 SA
BRANCH  21  22
HETATM   22  C17 UNL     1      46.097  32.868  29.782  1.00  0.00     0.077 C 
BRANCH  22  23
HETATM   23  C18 UNL     1      44.697  32.731  30.335  1.00  0.00    -0.013 C 
HETATM   24  C19 UNL     1      44.300  31.306  30.595  1.00  0.00     0.010 C 
HETATM   25  C20 UNL     1      44.680  33.474  31.661  1.00  0.00     0.010 C 
ENDBRANCH  22  23
ENDBRANCH  21  22
ENDBRANCH  20  21
ENDBRANCH   9  20
BRANCH   8  26
HETATM   26  O3  UNL     1      49.680  28.683  27.427  1.00  0.00    -0.385 OA
ATOM     27  H3  UNL     1      49.949  27.832  27.101  1.00  0.00     0.210 HD
ENDBRANCH   8  26
BRANCH   7  28
HETATM   28  N1  UNL     1      50.194  29.077  30.957  1.00  0.00    -0.354 N 
HETATM   29  C12 UNL     1      50.962  30.200  31.422  1.00  0.00     0.214 C 
HETATM   30  C13 UNL     1      50.880  30.730  32.805  1.00  0.00     0.117 C 
HETATM   31  O2  UNL     1      51.759  30.794  30.645  1.00  0.00    -0.274 OA
ATOM     32  H1  UNL     1      49.547  28.592  31.580  1.00  0.00     0.163 HD
ENDBRANCH   7  28
BRANCH   1  33
HETATM   33  C4  UNL     1      48.584  22.576  27.940  1.00  0.00     0.155 C 
HETATM   34  O1  UNL     1      48.718  22.047  26.779  1.00  0.00    -0.293 OA
BRANCH  33  35
HETATM   35  C3  UNL     1      47.461  22.034  28.715  1.00  0.00     0.083 C 
BRANCH  35  36
HETATM   36  C2  UNL     1      48.060  21.110  29.777  1.00  0.00     0.003 C 
HETATM   37  C1  UNL     1      47.997  21.722  31.145  1.00  0.00     0.005 C 
ENDBRANCH  35  36
ENDBRANCH  33  35
ENDBRANCH   1  33
TORSDOF 9
ENDMDL
MODEL 3
REMARK VINA RESULT: -6.323113246      3.608      7.975
REMARK  9 active torsions:
REMARK  status: ('A' for Active; 'I' for Inactive)
REMARK    1  A    between atoms: C2_2  and  C3_3 
REMARK    2  A    between atoms: C3_3  and  C4_4 
REMARK    3  A    between atoms: C4_4  and  C5_6 
REMARK    4  A    between atoms: C11_12  and  N1_13 
REMARK       I    between atoms: N1_13  and  C12_15 
REMARK    5  A    between atoms: C14_18  and  O3_19 
REMARK    6  A    between atoms: C15_21  and  C16_22 
REMARK    7  A    between atoms: C16_22  and  S1_23 
REMARK    8  A    between atoms: S1_23  and  C17_24 
REMARK    9  A    between atoms: C17_24  and  C18_25 
ROOT
HETATM    1  C5  UNL     1      52.989  33.251  31.130  1.00  0.00    -0.015 C 
HETATM    2  C6  UNL     1      52.946  32.042  30.619  1.00  0.00    -0.004 C 
HETATM    3  C7  UNL     1      52.525  30.697  31.132  1.00  0.00     0.015 C 
HETATM    4  C8  UNL     1      53.821  29.964  31.336  1.00  0.00     0.023 C 
HETATM    5  C9  UNL     1      51.725  30.895  32.370  1.00  0.00     0.006 C 
HETATM    6  C10 UNL     1      51.142  29.659  32.943  1.00  0.00     0.034 C 
HETATM    7  C11 UNL     1      50.795  28.550  31.960  1.00  0.00     0.122 C 
HETATM    8  C14 UNL     1      50.586  29.107  30.629  1.00  0.00     0.118 C 
HETATM    9  C15 UNL     1      50.517  28.236  29.435  1.00  0.00     0.060 C 
HETATM   10  C21 UNL     1      51.925  28.228  28.834  1.00  0.00     0.241 C 
HETATM   11  N2  UNL     1      52.263  29.620  28.991  1.00  0.00    -0.062 N 
ATOM     12  H21 UNL     1      52.073  30.163  28.149  1.00  0.00     0.278 HD
ATOM     13  H22 UNL     1      53.271  29.772  29.033  1.00  0.00     0.278 HD
HETATM   14  C22 UNL     1      51.582  30.138  30.142  1.00  0.00     0.169 C 
HETATM   15  C23 UNL     1      50.749  31.330  29.662  1.00  0.00     0.044 C 
HETATM   16  C24 UNL     1      50.230  32.177  30.760  1.00  0.00     0.007 C 
HETATM   17  C25 UNL     1      50.713  31.993  32.131  1.00  0.00    -0.009 C 
HETATM   18  C26 UNL     1      51.143  33.305  32.783  1.00  0.00     0.010 C 
HETATM   19  C27 UNL     1      52.589  33.628  32.487  1.00  0.00     0.042 C 
ENDROOT
BRANCH   9  20
HETATM   20  C16 UNL     1      49.836  26.950  29.471  1.00  0.00     0.083 C 
BRANCH  20  21
HETATM   21  S1  UNL     1      48.129  26.992  28.870  1.00  0.00    -0.168 SA
BRANCH  21  22
HETATM   22  C17 UNL     1      47.756  28.373  27.814  1.00  0.00     0.077 C 
BRANCH  22  23
HETATM   23  C18 UNL     1      46.516  29.130  28.229  1.00  0.00    -0.013 C 
HETATM   24  C19 UNL     1      46.030  28.763  29.602  1.00  0.00     0.010 C 
HETATM   25  C20 UNL     1      46.890  30.603  28.239  1.00  0.00     0.010 C 
ENDBRANCH  22  23
ENDBRANCH  21  22
ENDBRANCH  20  21
ENDBRANCH   9  20
BRANCH   8  26
HETATM   26  O3  UNL     1      49.275  29.700  30.699  1.00  0.00    -0.385 OA
ATOM     27  H3  UNL     1      48.846  29.406  29.904  1.00  0.00     0.210 HD
ENDBRANCH   8  26
BRANCH   7  28
HETATM   28  N1  UNL     1      51.635  27.421  32.155  1.00  0.00    -0.354 N 
HETATM   29  C12 UNL     1      51.131  26.317  32.925  1.00  0.00     0.214 C 
HETATM   30  C13 UNL     1      51.912  25.086  33.197  1.00  0.00     0.117 C 
HETATM   31  O2  UNL     1      49.969  26.357  33.414  1.00  0.00    -0.274 OA
ATOM     32  H1  UNL     1      52.575  27.395  31.757  1.00  0.00     0.163 HD
ENDBRANCH   7  28
BRANCH   1  33
HETATM   33  C4  UNL     1      53.493  34.251  30.192  1.00  0.00     0.155 C 
HETATM   34  O1  UNL     1      54.498  34.985  30.507  1.00  0.00    -0.293 OA
BRANCH  33  35
HETATM   35  C3  UNL     1      52.951  34.525  28.855  1.00  0.00     0.083 C 
BRANCH  35  36
HETATM   36  C2  UNL     1      51.573  35.159  29.057  1.00  0.00     0.003 C 
HETATM   37  C1  UNL     1      50.600  34.721  28.003  1.00  0.00     0.005 C 
ENDBRANCH  35  36
ENDBRANCH  33  35
ENDBRANCH   1  33
TORSDOF 9
ENDMDL
MODEL 4
REMARK VINA RESULT: -6.227730440      2.179      3.481
REMARK  9 active torsions:
REMARK  status: ('A' for Active; 'I' for Inactive)
REMARK    1  A    between atoms: C2_2  and  C3_3 
REMARK    2  A    between atoms: C3_3  and  C4_4 
REMARK    3  A    between atoms: C4_4  and  C5_6 
REMARK    4  A    between atoms: C11_12  and  N1_13 
REMARK       I    between atoms: N1_13  and  C12_15 
REMARK    5  A    between atoms: C14_18  and  O3_19 
REMARK    6  A    between atoms: C15_21  and  C16_22 
REMARK    7  A    between atoms: C16_22  and  S1_23 
REMARK    8  A    between atoms: S1_23  and  C17_24 
REMARK    9  A    between atoms: C17_24  and  C18_25 
ROOT
HETATM    1  C5  UNL     1      49.087  25.175  29.614  1.00  0.00    -0.015 C 
HETATM    2  C6  UNL     1      49.580  26.286  30.111  1.00  0.00    -0.004 C 
HETATM    3  C7  UNL     1      50.351  27.442  29.545  1.00  0.00     0.015 C 
HETATM    4  C8  UNL     1      51.743  27.242  30.071  1.00  0.00     0.023 C 
HETATM    5  C9  UNL     1      50.237  27.402  28.063  1.00  0.00     0.006 C 
HETATM    6  C10 UNL     1      50.860  28.546  27.356  1.00  0.00     0.034 C 
HETATM    7  C11 UNL     1      50.886  29.874  28.100  1.00  0.00     0.122 C 
HETATM    8  C14 UNL     1      49.830  29.907  29.104  1.00  0.00     0.118 C 
HETATM    9  C15 UNL     1      49.801  30.948  30.154  1.00  0.00     0.060 C 
HETATM   10  C21 UNL     1      50.474  30.331  31.382  1.00  0.00     0.241 C 
HETATM   11  N2  UNL     1      49.911  29.006  31.327  1.00  0.00    -0.062 N 
ATOM     12  H21 UNL     1      49.087  28.910  31.920  1.00  0.00     0.278 HD
ATOM     13  H22 UNL     1      50.500  28.314  31.789  1.00  0.00     0.278 HD
HETATM   14  C22 UNL     1      49.643  28.671  29.958  1.00  0.00     0.169 C 
HETATM   15  C23 UNL     1      48.153  28.325  29.873  1.00  0.00     0.044 C 
HETATM   16  C24 UNL     1      47.766  27.655  28.611  1.00  0.00     0.007 C 
HETATM   17  C25 UNL     1      48.792  27.165  27.686  1.00  0.00    -0.009 C 
HETATM   18  C26 UNL     1      48.553  25.720  27.256  1.00  0.00     0.010 C 
HETATM   19  C27 UNL     1      49.180  24.739  28.219  1.00  0.00     0.042 C 
ENDROOT
BRANCH   9  20
HETATM   20  C16 UNL     1      50.157  32.330  29.863  1.00  0.00     0.083 C 
BRANCH  20  21
HETATM   21  S1  UNL     1      48.870  33.535  30.273  1.00  0.00    -0.168 SA
BRANCH  21  22
HETATM   22  C17 UNL     1      47.678  33.803  28.981  1.00  0.00     0.077 C 
BRANCH  22  23
HETATM   23  C18 UNL     1      46.253  33.545  29.415  1.00  0.00    -0.013 C 
HETATM   24  C19 UNL     1      45.942  32.085  29.588  1.00  0.00     0.010 C 
HETATM   25  C20 UNL     1      46.079  34.227  30.762  1.00  0.00     0.010 C 
ENDBRANCH  22  23
ENDBRANCH  21  22
ENDBRANCH  20  21
ENDBRANCH   9  20
BRANCH   8  26
HETATM   26  O3  UNL     1      48.631  30.152  28.343  1.00  0.00    -0.385 OA
ATOM     27  H3  UNL     1      47.937  29.795  28.886  1.00  0.00     0.210 HD
ENDBRANCH   8  26
BRANCH   7  28
HETATM   28  N1  UNL     1      52.218  30.241  28.430  1.00  0.00    -0.354 N 
HETATM   29  C12 UNL     1      52.859  31.265  27.650  1.00  0.00     0.214 C 
HETATM   30  C13 UNL     1      54.244  31.734  27.897  1.00  0.00     0.117 C 
HETATM   31  O2  UNL     1      52.246  31.820  26.696  1.00  0.00    -0.274 OA
ATOM     32  H1  UNL     1      52.708  29.789  29.202  1.00  0.00     0.163 HD
ENDBRANCH   7  28
BRANCH   1  33
HETATM   33  C4  UNL     1      48.399  24.358  30.611  1.00  0.00     0.155 C 
HETATM   34  O1  UNL     1      47.495  23.523  30.250  1.00  0.00    -0.293 OA
BRANCH  33  35
HETATM   35  C3  UNL     1      48.640  24.387  32.059  1.00  0.00     0.083 C 
BRANCH  35  36
HETATM   36  C2  UNL     1      49.680  23.306  32.357  1.00  0.00     0.003 C 
HETATM   37  C1  UNL     1      51.022  23.898  32.673  1.00  0.00     0.005 C 
ENDBRANCH  35  36
ENDBRANCH  33  35
ENDBRANCH   1  33
TORSDOF 9
ENDMDL
MODEL 5
REMARK VINA RESULT: -6.211927488      3.173      4.494
REMARK  9 active torsions:
REMARK  status: ('A' for Active; 'I' for Inactive)
REMARK    1  A    between atoms: C2_2  and  C3_3 
REMARK    2  A    between atoms: C3_3  and  C4_4 
REMARK    3  A    between atoms: C4_4  and  C5_6 
REMARK    4  A    between atoms: C11_12  and  N1_13 
REMARK       I    between atoms: N1_13  and  C12_15 
REMARK    5  A    between atoms: C14_18  and  O3_19 
REMARK    6  A    between atoms: C15_21  and  C16_22 
REMARK    7  A    between atoms: C16_22  and  S1_23 
REMARK    8  A    between atoms: S1_23  and  C17_24 
REMARK    9  A    between atoms: C17_24  and  C18_25 
ROOT
HETATM    1  C5  UNL     1      51.599  25.520  32.513  1.00  0.00    -0.015 C 
HETATM    2  C6  UNL     1      51.643  26.820  32.694  1.00  0.00    -0.004 C 
HETATM    3  C7  UNL     1      52.194  27.974  31.911  1.00  0.00     0.015 C 
HETATM    4  C8  UNL     1      53.418  28.384  32.680  1.00  0.00     0.023 C 
HETATM    5  C9  UNL     1      52.460  27.515  30.522  1.00  0.00     0.006 C 
HETATM    6  C10 UNL     1      52.910  28.574  29.588  1.00  0.00     0.034 C 
HETATM    7  C11 UNL     1      52.402  29.982  29.858  1.00  0.00     0.122 C 
HETATM    8  C14 UNL     1      51.163  29.930  30.625  1.00  0.00     0.118 C 
HETATM    9  C15 UNL     1      50.605  31.140  31.265  1.00  0.00     0.060 C 
HETATM   10  C21 UNL     1      51.097  31.118  32.714  1.00  0.00     0.241 C 
HETATM   11  N2  UNL     1      50.935  29.716  33.004  1.00  0.00    -0.062 N 
ATOM     12  H21 UNL     1      50.047  29.514  33.464  1.00  0.00     0.278 HD
ATOM     13  H22 UNL     1      51.556  29.400  33.749  1.00  0.00     0.278 HD
HETATM   14  C22 UNL     1      51.108  28.968  31.792  1.00  0.00     0.169 C 
HETATM   15  C23 UNL     1      49.830  28.146  31.597  1.00  0.00     0.044 C 
HETATM   16  C24 UNL     1      49.954  27.082  30.575  1.00  0.00     0.007 C 
HETATM   17  C25 UNL     1      51.266  26.731  30.026  1.00  0.00    -0.009 C 
HETATM   18  C26 UNL     1      51.531  25.227  30.053  1.00  0.00     0.010 C 
HETATM   19  C27 UNL     1      52.140  24.791  31.365  1.00  0.00     0.042 C 
ENDROOT
BRANCH   9  20
HETATM   20  C16 UNL     1      50.642  32.436  30.602  1.00  0.00     0.083 C 
BRANCH  20  21
HETATM   21  S1  UNL     1      49.013  33.124  30.216  1.00  0.00    -0.168 SA
BRANCH  21  22
HETATM   22  C17 UNL     1      48.195  32.348  28.842  1.00  0.00     0.077 C 
BRANCH  22  23
HETATM   23  C18 UNL     1      47.058  31.441  29.252  1.00  0.00    -0.013 C 
HETATM   24  C19 UNL     1      45.802  32.188  29.602  1.00  0.00     0.010 C 
HETATM   25  C20 UNL     1      46.759  30.551  28.056  1.00  0.00     0.010 C 
ENDBRANCH  22  23
ENDBRANCH  21  22
ENDBRANCH  20  21
ENDBRANCH   9  20
BRANCH   8  26
HETATM   26  O3  UNL     1      50.165  29.563  29.652  1.00  0.00    -0.385 OA
ATOM     27  H3  UNL     1      49.787  30.393  29.386  1.00  0.00     0.210 HD
ENDBRANCH   8  26
BRANCH   7  28
HETATM   28  N1  UNL     1      53.467  30.836  30.252  1.00  0.00    -0.354 N 
HETATM   29  C12 UNL     1      53.969  31.789  29.299  1.00  0.00     0.214 C 
HETATM   30  C13 UNL     1      55.075  32.733  29.590  1.00  0.00     0.117 C 
HETATM   31  O2  UNL     1      53.469  31.858  28.142  1.00  0.00    -0.274 OA
ATOM     32  H1  UNL     1      53.866  30.775  31.189  1.00  0.00     0.163 HD
ENDBRANCH   7  28
BRANCH   1  33
HETATM   33  C4  UNL     1      50.930  24.813  33.603  1.00  0.00     0.155 C 
HETATM   34  O1  UNL     1      51.601  24.047  34.385  1.00  0.00    -0.293 OA
BRANCH  33  35
HETATM   35  C3  UNL     1      49.499  24.884  33.923  1.00  0.00     0.083 C 
BRANCH  35  36
HETATM   36  C2  UNL     1      48.742  24.424  32.676  1.00  0.00     0.003 C 
HETATM   37  C1  UNL     1      48.911  22.952  32.435  1.00  0.00     0.005 C 
ENDBRANCH  35  36
ENDBRANCH  33  35
ENDBRANCH   1  33
TORSDOF 9
ENDMDL
