MODEL 1
REMARK VINA RESULT: -7.671807498      0.000      0.000
REMARK  7 active torsions:
REMARK  status: ('A' for Active; 'I' for Inactive)
REMARK    1  A    between atoms: C2_2  and  C3_3 
REMARK    2  A    between atoms: C3_3  and  O1_4 
REMARK    3  A    between atoms: O1_4  and  C4_5 
REMARK    4  A    between atoms: C4_5  and  C5_7 
REMARK    5  A    between atoms: C6_8  and  C7_9 
REMARK    6  A    between atoms: C7_9  and  O3_10 
REMARK    7  A    between atoms: C8_12  and  O4_13 
ROOT
HETATM    1  C7  UNL     1      -5.328   3.883  13.599  1.00  0.00     0.128 C 
HETATM    2  C8  UNL     1      -6.348   4.883  14.121  1.00  0.00     0.161 C 
HETATM    3  C9  UNL     1      -6.346   6.134  13.266  1.00  0.00     0.067 C 
HETATM    4  C10 UNL     1      -4.972   6.695  13.105  1.00  0.00     0.131 C 
HETATM    5  O5  UNL     1      -3.965   5.797  13.447  1.00  0.00    -0.377 OA
HETATM    6  C11 UNL     1      -4.201   4.574  12.851  1.00  0.00     0.165 C 
HETATM    7  C12 UNL     1      -4.458   4.636  11.387  1.00  0.00     0.068 C 
HETATM    8  C13 UNL     1      -4.353   5.996  10.775  1.00  0.00     0.141 A 
HETATM    9  O6  UNL     1      -5.271   6.083   9.689  1.00  0.00    -0.315 OA
HETATM   10  C14 UNL     1      -6.173   7.091   9.871  1.00  0.00     0.259 A 
HETATM   11  O7  UNL     1      -7.152   7.329   9.119  1.00  0.00    -0.265 OA
HETATM   12  C15 UNL     1      -5.843   7.872  11.076  1.00  0.00     0.120 A 
HETATM   13  C16 UNL     1      -4.671   7.127  11.677  1.00  0.00     0.053 A 
ENDROOT
BRANCH   1  14
HETATM   14  C6  UNL     1      -4.855   3.088  14.739  1.00  0.00     0.022 C 
HETATM   15  C5  UNL     1      -4.828   1.766  14.762  1.00  0.00     0.081 C 
BRANCH  15  16
HETATM   16  C4  UNL     1      -4.354   1.007  15.906  1.00  0.00     0.282 C 
HETATM   17  O2  UNL     1      -3.200   1.210  16.365  1.00  0.00    -0.260 OA
BRANCH  16  18
HETATM   18  O1  UNL     1      -5.114   0.044  16.542  1.00  0.00    -0.318 OA
BRANCH  18  19
HETATM   19  C3  UNL     1      -5.993   0.263  17.612  1.00  0.00     0.178 C 
BRANCH  19  20
HETATM   20  C2  UNL     1      -7.248   0.992  17.266  1.00  0.00     0.022 C 
HETATM   21  C1  UNL     1      -7.142   2.482  17.520  1.00  0.00     0.007 C 
ENDBRANCH  19  20
ENDBRANCH  18  19
ENDBRANCH  16  18
ENDBRANCH  15  16
ENDBRANCH   1  14
BRANCH   1  22
HETATM   22  O3  UNL     1      -5.960   2.980  12.711  1.00  0.00    -0.381 OA
ATOM     23  H3  UNL     1      -5.606   3.157  11.848  1.00  0.00     0.211 HD
ENDBRANCH   1  22
BRANCH   2  24
HETATM   24  O4  UNL     1      -6.008   5.197  15.451  1.00  0.00    -0.392 OA
ATOM     25  H4  UNL     1      -6.652   4.793  16.021  1.00  0.00     0.210 HD
ENDBRANCH   2  24
TORSDOF 7
ENDMDL
MODEL 2
REMARK VINA RESULT: -7.558986430      2.028      2.537
REMARK  7 active torsions:
REMARK  status: ('A' for Active; 'I' for Inactive)
REMARK    1  A    between atoms: C2_2  and  C3_3 
REMARK    2  A    between atoms: C3_3  and  O1_4 
REMARK    3  A    between atoms: O1_4  and  C4_5 
REMARK    4  A    between atoms: C4_5  and  C5_7 
REMARK    5  A    between atoms: C6_8  and  C7_9 
REMARK    6  A    between atoms: C7_9  and  O3_10 
REMARK    7  A    between atoms: C8_12  and  O4_13 
ROOT
HETATM    1  C7  UNL     1      -4.227   3.646  13.559  1.00  0.00     0.128 C 
HETATM    2  C8  UNL     1      -3.322   4.773  14.033  1.00  0.00     0.161 C 
HETATM    3  C9  UNL     1      -2.587   5.389  12.860  1.00  0.00     0.067 C 
HETATM    4  C10 UNL     1      -1.890   4.356  12.037  1.00  0.00     0.131 C 
HETATM    5  O5  UNL     1      -2.336   3.061  12.283  1.00  0.00    -0.377 OA
HETATM    6  C11 UNL     1      -3.716   3.026  12.270  1.00  0.00     0.165 C 
HETATM    7  C12 UNL     1      -4.341   3.642  11.068  1.00  0.00     0.068 C 
HETATM    8  C13 UNL     1      -3.385   4.138  10.032  1.00  0.00     0.141 A 
HETATM    9  O6  UNL     1      -3.956   5.273   9.386  1.00  0.00    -0.315 OA
HETATM   10  C14 UNL     1      -3.168   6.379   9.520  1.00  0.00     0.259 A 
HETATM   11  O7  UNL     1      -3.474   7.536   9.135  1.00  0.00    -0.265 OA
HETATM   12  C15 UNL     1      -1.897   6.034  10.181  1.00  0.00     0.120 A 
HETATM   13  C16 UNL     1      -2.064   4.574  10.541  1.00  0.00     0.053 A 
ENDROOT
BRANCH   1  14
HETATM   14  C6  UNL     1      -4.343   2.674  14.653  1.00  0.00     0.022 C 
HETATM   15  C5  UNL     1      -4.460   1.369  14.477  1.00  0.00     0.081 C 
BRANCH  15  16
HETATM   16  C4  UNL     1      -4.573   0.431  15.580  1.00  0.00     0.282 C 
HETATM   17  O2  UNL     1      -4.638  -0.805  15.356  1.00  0.00    -0.260 OA
BRANCH  16  18
HETATM   18  O1  UNL     1      -4.616   0.824  16.905  1.00  0.00    -0.318 OA
BRANCH  18  19
HETATM   19  C3  UNL     1      -5.715   0.696  17.765  1.00  0.00     0.178 C 
BRANCH  19  20
HETATM   20  C2  UNL     1      -7.021   1.149  17.203  1.00  0.00     0.022 C 
HETATM   21  C1  UNL     1      -7.099   2.655  17.057  1.00  0.00     0.007 C 
ENDBRANCH  19  20
ENDBRANCH  18  19
ENDBRANCH  16  18
ENDBRANCH  15  16
ENDBRANCH   1  14
BRANCH   1  22
HETATM   22  O3  UNL     1      -5.528   4.148  13.324  1.00  0.00    -0.381 OA
ATOM     23  H3  UNL     1      -5.494   4.613  12.496  1.00  0.00     0.211 HD
ENDBRANCH   1  22
BRANCH   2  24
HETATM   24  O4  UNL     1      -2.408   4.236  14.959  1.00  0.00    -0.392 OA
ATOM     25  H4  UNL     1      -1.765   4.907  15.160  1.00  0.00     0.210 HD
ENDBRANCH   2  24
TORSDOF 7
ENDMDL
MODEL 3
REMARK VINA RESULT: -7.490991734      2.249      2.877
REMARK  7 active torsions:
REMARK  status: ('A' for Active; 'I' for Inactive)
REMARK    1  A    between atoms: C2_2  and  C3_3 
REMARK    2  A    between atoms: C3_3  and  O1_4 
REMARK    3  A    between atoms: O1_4  and  C4_5 
REMARK    4  A    between atoms: C4_5  and  C5_7 
REMARK    5  A    between atoms: C6_8  and  C7_9 
REMARK    6  A    between atoms: C7_9  and  O3_10 
REMARK    7  A    between atoms: C8_12  and  O4_13 
ROOT
HETATM    1  C7  UNL     1      -3.858   3.338  13.713  1.00  0.00     0.128 C 
HETATM    2  C8  UNL     1      -4.915   4.012  12.851  1.00  0.00     0.161 C 
HETATM    3  C9  UNL     1      -4.651   5.500  12.759  1.00  0.00     0.067 C 
HETATM    4  C10 UNL     1      -4.482   6.120  14.107  1.00  0.00     0.131 C 
HETATM    5  O5  UNL     1      -4.244   5.190  15.115  1.00  0.00    -0.377 OA
HETATM    6  C11 UNL     1      -3.260   4.305  14.720  1.00  0.00     0.165 C 
HETATM    7  C12 UNL     1      -2.019   4.946  14.209  1.00  0.00     0.068 C 
HETATM    8  C13 UNL     1      -1.997   6.439  14.267  1.00  0.00     0.141 A 
HETATM    9  O6  UNL     1      -1.225   6.931  13.175  1.00  0.00    -0.315 OA
HETATM   10  C14 UNL     1      -1.958   7.752  12.368  1.00  0.00     0.259 A 
HETATM   11  O7  UNL     1      -1.558   8.244  11.283  1.00  0.00    -0.265 OA
HETATM   12  C15 UNL     1      -3.293   7.989  12.944  1.00  0.00     0.120 A 
HETATM   13  C16 UNL     1      -3.319   7.099  14.169  1.00  0.00     0.053 A 
ENDROOT
BRANCH   1  14
HETATM   14  C6  UNL     1      -4.476   2.165  14.345  1.00  0.00     0.022 C 
HETATM   15  C5  UNL     1      -4.055   1.624  15.475  1.00  0.00     0.081 C 
BRANCH  15  16
HETATM   16  C4  UNL     1      -4.687   0.463  16.077  1.00  0.00     0.282 C 
HETATM   17  O2  UNL     1      -4.813  -0.601  15.418  1.00  0.00    -0.260 OA
BRANCH  16  18
HETATM   18  O1  UNL     1      -5.176   0.453  17.370  1.00  0.00    -0.318 OA
BRANCH  18  19
HETATM   19  C3  UNL     1      -5.943   1.463  17.967  1.00  0.00     0.178 C 
BRANCH  19  20
HETATM   20  C2  UNL     1      -7.124   1.917  17.177  1.00  0.00     0.022 C 
HETATM   21  C1  UNL     1      -7.039   3.380  16.795  1.00  0.00     0.007 C 
ENDBRANCH  19  20
ENDBRANCH  18  19
ENDBRANCH  16  18
ENDBRANCH  15  16
ENDBRANCH   1  14
BRANCH   1  22
HETATM   22  O3  UNL     1      -2.814   2.852  12.892  1.00  0.00    -0.381 OA
ATOM     23  H3  UNL     1      -2.560   3.570  12.323  1.00  0.00     0.211 HD
ENDBRANCH   1  22
BRANCH   2  24
HETATM   24  O4  UNL     1      -6.173   3.771  13.437  1.00  0.00    -0.392 OA
ATOM     25  H4  UNL     1      -6.772   4.442  13.132  1.00  0.00     0.210 HD
ENDBRANCH   2  24
TORSDOF 7
ENDMDL
MODEL 4
REMARK VINA RESULT: -7.206649414      1.172      1.321
REMARK  7 active torsions:
REMARK  status: ('A' for Active; 'I' for Inactive)
REMARK    1  A    between atoms: C2_2  and  C3_3 
REMARK    2  A    between atoms: C3_3  and  O1_4 
REMARK    3  A    between atoms: O1_4  and  C4_5 
REMARK    4  A    between atoms: C4_5  and  C5_7 
REMARK    5  A    between atoms: C6_8  and  C7_9 
REMARK    6  A    between atoms: C7_9  and  O3_10 
REMARK    7  A    between atoms: C8_12  and  O4_13 
ROOT
HETATM    1  C7  UNL     1      -5.151   3.689  13.574  1.00  0.00     0.128 C 
HETATM    2  C8  UNL     1      -6.156   4.772  13.936  1.00  0.00     0.161 C 
HETATM    3  C9  UNL     1      -5.703   6.114  13.397  1.00  0.00     0.067 C 
HETATM    4  C10 UNL     1      -4.299   6.429  13.797  1.00  0.00     0.131 C 
HETATM    5  O5  UNL     1      -3.593   5.319  14.252  1.00  0.00    -0.377 OA
HETATM    6  C11 UNL     1      -3.758   4.263  13.378  1.00  0.00     0.165 C 
HETATM    7  C12 UNL     1      -3.484   4.588  11.952  1.00  0.00     0.068 C 
HETATM    8  C13 UNL     1      -3.005   5.980  11.693  1.00  0.00     0.141 A 
HETATM    9  O6  UNL     1      -3.473   6.396  10.413  1.00  0.00    -0.315 OA
HETATM   10  C14 UNL     1      -4.249   7.515  10.499  1.00  0.00     0.259 A 
HETATM   11  O7  UNL     1      -4.871   8.039   9.540  1.00  0.00    -0.265 OA
HETATM   12  C15 UNL     1      -4.262   8.033  11.878  1.00  0.00     0.120 A 
HETATM   13  C16 UNL     1      -3.472   7.004  12.656  1.00  0.00     0.053 A 
ENDROOT
BRANCH   1  14
HETATM   14  C6  UNL     1      -5.204   2.661  14.620  1.00  0.00     0.022 C 
HETATM   15  C5  UNL     1      -4.471   1.559  14.615  1.00  0.00     0.081 C 
BRANCH  15  16
HETATM   16  C4  UNL     1      -4.545   0.560  15.666  1.00  0.00     0.282 C 
HETATM   17  O2  UNL     1      -4.705  -0.654  15.375  1.00  0.00    -0.260 OA
BRANCH  16  18
HETATM   18  O1  UNL     1      -4.447   0.867  17.010  1.00  0.00    -0.318 OA
BRANCH  18  19
HETATM   19  C3  UNL     1      -5.473   0.745  17.958  1.00  0.00     0.178 C 
BRANCH  19  20
HETATM   20  C2  UNL     1      -6.547   1.777  17.870  1.00  0.00     0.022 C 
HETATM   21  C1  UNL     1      -7.731   1.313  17.047  1.00  0.00     0.007 C 
ENDBRANCH  19  20
ENDBRANCH  18  19
ENDBRANCH  16  18
ENDBRANCH  15  16
ENDBRANCH   1  14
BRANCH   1  22
HETATM   22  O3  UNL     1      -5.544   3.060  12.369  1.00  0.00    -0.381 OA
ATOM     23  H3  UNL     1      -4.905   2.379  12.197  1.00  0.00     0.211 HD
ENDBRANCH   1  22
BRANCH   2  24
HETATM   24  O4  UNL     1      -6.260   4.817  15.339  1.00  0.00    -0.392 OA
ATOM     25  H4  UNL     1      -5.464   5.209  15.680  1.00  0.00     0.210 HD
ENDBRANCH   2  24
TORSDOF 7
ENDMDL
MODEL 5
REMARK VINA RESULT: -7.034413605      2.007      3.036
REMARK  7 active torsions:
REMARK  status: ('A' for Active; 'I' for Inactive)
REMARK    1  A    between atoms: C2_2  and  C3_3 
REMARK    2  A    between atoms: C3_3  and  O1_4 
REMARK    3  A    between atoms: O1_4  and  C4_5 
REMARK    4  A    between atoms: C4_5  and  C5_7 
REMARK    5  A    between atoms: C6_8  and  C7_9 
REMARK    6  A    between atoms: C7_9  and  O3_10 
REMARK    7  A    between atoms: C8_12  and  O4_13 
ROOT
HETATM    1  C7  UNL     1      -3.730   3.640  14.179  1.00  0.00     0.128 C 
HETATM    2  C8  UNL     1      -3.404   3.446  12.705  1.00  0.00     0.161 C 
HETATM    3  C9  UNL     1      -3.407   4.778  11.985  1.00  0.00     0.067 C 
HETATM    4  C10 UNL     1      -4.666   5.542  12.233  1.00  0.00     0.131 C 
HETATM    5  O5  UNL     1      -5.394   5.068  13.320  1.00  0.00    -0.377 OA
HETATM    6  C11 UNL     1      -4.560   4.891  14.406  1.00  0.00     0.165 C 
HETATM    7  C12 UNL     1      -3.714   6.070  14.737  1.00  0.00     0.068 C 
HETATM    8  C13 UNL     1      -3.945   7.282  13.894  1.00  0.00     0.141 A 
HETATM    9  O6  UNL     1      -2.716   7.990  13.762  1.00  0.00    -0.315 OA
HETATM   10  C14 UNL     1      -2.341   8.113  12.455  1.00  0.00     0.259 A 
HETATM   11  O7  UNL     1      -1.255   8.604  12.058  1.00  0.00    -0.265 OA
HETATM   12  C15 UNL     1      -3.390   7.588  11.563  1.00  0.00     0.120 A 
HETATM   13  C16 UNL     1      -4.419   7.017  12.515  1.00  0.00     0.053 A 
ENDROOT
BRANCH   1  14
HETATM   14  C6  UNL     1      -4.394   2.420  14.655  1.00  0.00     0.022 C 
HETATM   15  C5  UNL     1      -3.951   1.679  15.658  1.00  0.00     0.081 C 
BRANCH  15  16
HETATM   16  C4  UNL     1      -4.630   0.476  16.107  1.00  0.00     0.282 C 
HETATM   17  O2  UNL     1      -4.750  -0.509  15.334  1.00  0.00    -0.260 OA
BRANCH  16  18
HETATM   18  O1  UNL     1      -5.170   0.341  17.373  1.00  0.00    -0.318 OA
BRANCH  18  19
HETATM   19  C3  UNL     1      -5.965   1.288  18.033  1.00  0.00     0.178 C 
BRANCH  19  20
HETATM   20  C2  UNL     1      -7.196   1.707  17.302  1.00  0.00     0.022 C 
HETATM   21  C1  UNL     1      -7.152   3.161  16.876  1.00  0.00     0.007 C 
ENDBRANCH  19  20
ENDBRANCH  18  19
ENDBRANCH  16  18
ENDBRANCH  15  16
ENDBRANCH   1  14
BRANCH   1  22
HETATM   22  O3  UNL     1      -2.531   3.764  14.918  1.00  0.00    -0.381 OA
ATOM     23  H3  UNL     1      -1.977   4.367  14.437  1.00  0.00     0.211 HD
ENDBRANCH   1  22
BRANCH   2  24
HETATM   24  O4  UNL     1      -4.375   2.587  12.155  1.00  0.00    -0.392 OA
ATOM     25  H4  UNL     1      -4.404   1.799  12.684  1.00  0.00     0.210 HD
ENDBRANCH   2  24
TORSDOF 7
ENDMDL
