MODEL 1
REMARK VINA RESULT: -6.757991526      0.000      0.000
REMARK  4 active torsions:
REMARK  status: ('A' for Active; 'I' for Inactive)
REMARK    1  A    between atoms: C2_2  and  O1_3 
REMARK    2  A    between atoms: O1_3  and  C3_4 
REMARK    3  A    between atoms: C3_4  and  C4_6 
REMARK    4  A    between atoms: C11_14  and  O3_15 
ROOT
HETATM    1  C4  UNL     1      -4.903   2.600  13.138  1.00  0.00     0.106 C 
HETATM    2  C5  UNL     1      -5.934   3.111  14.092  1.00  0.00     0.053 C 
HETATM    3  C6  UNL     1      -5.471   4.053  15.127  1.00  0.00     0.171 C 
HETATM    4  F1  UNL     1      -6.488   4.951  15.491  1.00  0.00    -0.249 F 
HETATM    5  C7  UNL     1      -4.266   4.873  14.822  1.00  0.00     0.038 C 
HETATM    6  C8  UNL     1      -3.207   3.903  14.281  1.00  0.00     0.023 C 
HETATM    7  C9  UNL     1      -3.722   3.458  12.951  1.00  0.00     0.063 C 
HETATM    8  C10 UNL     1      -2.673   2.932  12.005  1.00  0.00     0.054 C 
HETATM    9  C11 UNL     1      -1.480   3.859  11.930  1.00  0.00     0.143 C 
HETATM   10  C12 UNL     1      -1.847   5.264  11.558  1.00  0.00     0.210 C 
HETATM   11  O4  UNL     1      -3.161   5.634  11.936  1.00  0.00    -0.318 OA
HETATM   12  C13 UNL     1      -4.147   4.755  12.260  1.00  0.00     0.268 C 
HETATM   13  O5  UNL     1      -5.345   4.943  12.033  1.00  0.00    -0.264 OA
ENDROOT
BRANCH   1  14
HETATM   14  C3  UNL     1      -4.555   1.239  13.545  1.00  0.00     0.264 C 
HETATM   15  O2  UNL     1      -4.764   0.280  12.790  1.00  0.00    -0.265 OA
BRANCH  14  16
HETATM   16  O1  UNL     1      -3.975   0.935  14.788  1.00  0.00    -0.322 OA
BRANCH  16  17
HETATM   17  C2  UNL     1      -4.568  -0.063  15.624  1.00  0.00     0.174 C 
HETATM   18  C1  UNL     1      -5.364   0.598  16.730  1.00  0.00     0.034 C 
ENDBRANCH  16  17
ENDBRANCH  14  16
ENDBRANCH   1  14
BRANCH   9  19
HETATM   19  O3  UNL     1      -0.626   3.305  10.948  1.00  0.00    -0.393 OA
ATOM     20  H3  UNL     1      -1.199   2.900  10.307  1.00  0.00     0.210 HD
ENDBRANCH   9  19
TORSDOF 4
ENDMDL
MODEL 2
REMARK VINA RESULT: -6.565574939      2.191      3.275
REMARK  4 active torsions:
REMARK  status: ('A' for Active; 'I' for Inactive)
REMARK    1  A    between atoms: C2_2  and  O1_3 
REMARK    2  A    between atoms: O1_3  and  C3_4 
REMARK    3  A    between atoms: C3_4  and  C4_6 
REMARK    4  A    between atoms: C11_14  and  O3_15 
ROOT
HETATM    1  C4  UNL     1      -5.100   2.454  15.453  1.00  0.00     0.106 C 
HETATM    2  C5  UNL     1      -4.951   3.913  15.741  1.00  0.00     0.053 C 
HETATM    3  C6  UNL     1      -3.930   4.642  14.965  1.00  0.00     0.171 C 
HETATM    4  F1  UNL     1      -4.293   5.986  14.780  1.00  0.00    -0.249 F 
HETATM    5  C7  UNL     1      -3.575   4.106  13.622  1.00  0.00     0.038 C 
HETATM    6  C8  UNL     1      -3.326   2.603  13.806  1.00  0.00     0.023 C 
HETATM    7  C9  UNL     1      -4.664   2.016  14.117  1.00  0.00     0.063 C 
HETATM    8  C10 UNL     1      -4.794   0.542  13.836  1.00  0.00     0.054 C 
HETATM    9  C11 UNL     1      -4.267   0.191  12.461  1.00  0.00     0.143 C 
HETATM   10  C12 UNL     1      -4.913   0.981  11.363  1.00  0.00     0.210 C 
HETATM   11  O4  UNL     1      -5.383   2.254  11.770  1.00  0.00    -0.318 OA
HETATM   12  C13 UNL     1      -5.593   2.621  13.063  1.00  0.00     0.268 C 
HETATM   13  O5  UNL     1      -6.476   3.403  13.426  1.00  0.00    -0.264 OA
ENDROOT
BRANCH   1  14
HETATM   14  C3  UNL     1      -4.440   1.719  16.532  1.00  0.00     0.264 C 
HETATM   15  O2  UNL     1      -3.213   1.547  16.522  1.00  0.00    -0.265 OA
BRANCH  14  16
HETATM   16  O1  UNL     1      -5.134   1.172  17.624  1.00  0.00    -0.322 OA
BRANCH  16  17
HETATM   17  C2  UNL     1      -6.060   0.102  17.415  1.00  0.00     0.174 C 
HETATM   18  C1  UNL     1      -7.466   0.653  17.299  1.00  0.00     0.034 C 
ENDBRANCH  16  17
ENDBRANCH  14  16
ENDBRANCH   1  14
BRANCH   9  19
HETATM   19  O3  UNL     1      -4.535  -1.188  12.289  1.00  0.00    -0.393 OA
ATOM     20  H3  UNL     1      -3.763  -1.641  12.607  1.00  0.00     0.210 HD
ENDBRANCH   9  19
TORSDOF 4
ENDMDL
MODEL 3
REMARK VINA RESULT: -6.488688377      2.022      4.810
REMARK  4 active torsions:
REMARK  status: ('A' for Active; 'I' for Inactive)
REMARK    1  A    between atoms: C2_2  and  O1_3 
REMARK    2  A    between atoms: O1_3  and  C3_4 
REMARK    3  A    between atoms: C3_4  and  C4_6 
REMARK    4  A    between atoms: C11_14  and  O3_15 
ROOT
HETATM    1  C4  UNL     1      -4.224   4.476  15.058  1.00  0.00     0.106 C 
HETATM    2  C5  UNL     1      -5.012   5.557  14.391  1.00  0.00     0.053 C 
HETATM    3  C6  UNL     1      -6.046   5.129  13.432  1.00  0.00     0.171 C 
HETATM    4  F1  UNL     1      -7.113   6.040  13.391  1.00  0.00    -0.249 F 
HETATM    5  C7  UNL     1      -6.644   3.779  13.621  1.00  0.00     0.038 C 
HETATM    6  C8  UNL     1      -5.471   2.807  13.816  1.00  0.00     0.023 C 
HETATM    7  C9  UNL     1      -4.882   3.162  15.143  1.00  0.00     0.063 C 
HETATM    8  C10 UNL     1      -4.078   2.067  15.796  1.00  0.00     0.054 C 
HETATM    9  C11 UNL     1      -4.821   0.749  15.779  1.00  0.00     0.143 C 
HETATM   10  C12 UNL     1      -6.180   0.830  16.406  1.00  0.00     0.210 C 
HETATM   11  O4  UNL     1      -6.772   2.115  16.332  1.00  0.00    -0.318 OA
HETATM   12  C13 UNL     1      -6.091   3.264  16.075  1.00  0.00     0.268 C 
HETATM   13  O5  UNL     1      -6.389   4.366  16.543  1.00  0.00    -0.264 OA
ENDROOT
BRANCH   1  14
HETATM   14  C3  UNL     1      -2.916   4.413  14.407  1.00  0.00     0.264 C 
HETATM   15  O2  UNL     1      -1.908   4.077  15.044  1.00  0.00    -0.265 OA
BRANCH  14  16
HETATM   16  O1  UNL     1      -2.719   4.719  13.050  1.00  0.00    -0.322 OA
BRANCH  16  17
HETATM   17  C2  UNL     1      -2.251   3.706  12.154  1.00  0.00     0.174 C 
HETATM   18  C1  UNL     1      -3.229   3.540  11.009  1.00  0.00     0.034 C 
ENDBRANCH  16  17
ENDBRANCH  14  16
ENDBRANCH   1  14
BRANCH   9  19
HETATM   19  O3  UNL     1      -4.008  -0.158  16.500  1.00  0.00    -0.393 OA
ATOM     20  H3  UNL     1      -3.835  -0.877  15.904  1.00  0.00     0.210 HD
ENDBRANCH   9  19
TORSDOF 4
ENDMDL
MODEL 4
REMARK VINA RESULT: -6.287330323      1.889      4.624
REMARK  4 active torsions:
REMARK  status: ('A' for Active; 'I' for Inactive)
REMARK    1  A    between atoms: C2_2  and  O1_3 
REMARK    2  A    between atoms: O1_3  and  C3_4 
REMARK    3  A    between atoms: C3_4  and  C4_6 
REMARK    4  A    between atoms: C11_14  and  O3_15 
ROOT
HETATM    1  C4  UNL     1      -3.916   4.976  12.584  1.00  0.00     0.106 C 
HETATM    2  C5  UNL     1      -3.906   6.016  13.657  1.00  0.00     0.053 C 
HETATM    3  C6  UNL     1      -4.886   5.854  14.747  1.00  0.00     0.171 C 
HETATM    4  F1  UNL     1      -4.402   6.388  15.952  1.00  0.00    -0.249 F 
HETATM    5  C7  UNL     1      -5.357   4.475  15.049  1.00  0.00     0.038 C 
HETATM    6  C8  UNL     1      -5.744   3.843  13.705  1.00  0.00     0.023 C 
HETATM    7  C9  UNL     1      -4.456   3.662  12.969  1.00  0.00     0.063 C 
HETATM    8  C10 UNL     1      -4.486   2.621  11.880  1.00  0.00     0.054 C 
HETATM    9  C11 UNL     1      -5.110   1.330  12.365  1.00  0.00     0.143 C 
HETATM   10  C12 UNL     1      -4.443   0.775  13.587  1.00  0.00     0.210 C 
HETATM   11  O4  UNL     1      -3.831   1.756  14.404  1.00  0.00    -0.318 OA
HETATM   12  C13 UNL     1      -3.524   3.017  13.997  1.00  0.00     0.268 C 
HETATM   13  O5  UNL     1      -2.552   3.660  14.404  1.00  0.00    -0.264 OA
ENDROOT
BRANCH   1  14
HETATM   14  C3  UNL     1      -4.592   5.546  11.418  1.00  0.00     0.264 C 
HETATM   15  O2  UNL     1      -3.951   5.854  10.404  1.00  0.00    -0.265 OA
BRANCH  14  16
HETATM   16  O1  UNL     1      -5.976   5.774  11.371  1.00  0.00    -0.322 OA
BRANCH  16  17
HETATM   17  C2  UNL     1      -6.476   7.115  11.358  1.00  0.00     0.174 C 
HETATM   18  C1  UNL     1      -7.736   7.203  12.193  1.00  0.00     0.034 C 
ENDBRANCH  16  17
ENDBRANCH  14  16
ENDBRANCH   1  14
BRANCH   9  19
HETATM   19  O3  UNL     1      -4.988   0.419  11.289  1.00  0.00    -0.393 OA
ATOM     20  H3  UNL     1      -4.092   0.106  11.318  1.00  0.00     0.210 HD
ENDBRANCH   9  19
TORSDOF 4
ENDMDL
MODEL 5
REMARK VINA RESULT: -6.282366035      1.900      2.824
REMARK  4 active torsions:
REMARK  status: ('A' for Active; 'I' for Inactive)
REMARK    1  A    between atoms: C2_2  and  O1_3 
REMARK    2  A    between atoms: O1_3  and  C3_4 
REMARK    3  A    between atoms: C3_4  and  C4_6 
REMARK    4  A    between atoms: C11_14  and  O3_15 
ROOT
HETATM    1  C4  UNL     1      -5.705   4.071  14.705  1.00  0.00     0.106 C 
HETATM    2  C5  UNL     1      -5.213   5.366  15.267  1.00  0.00     0.053 C 
HETATM    3  C6  UNL     1      -3.792   5.688  15.044  1.00  0.00     0.171 C 
HETATM    4  F1  UNL     1      -3.589   7.075  14.967  1.00  0.00    -0.249 F 
HETATM    5  C7  UNL     1      -3.131   5.093  13.850  1.00  0.00     0.038 C 
HETATM    6  C8  UNL     1      -3.483   3.599  13.857  1.00  0.00     0.023 C 
HETATM    7  C9  UNL     1      -4.946   3.537  13.563  1.00  0.00     0.063 C 
HETATM    8  C10 UNL     1      -5.430   2.221  13.012  1.00  0.00     0.054 C 
HETATM    9  C11 UNL     1      -4.548   1.735  11.881  1.00  0.00     0.143 C 
HETATM   10  C12 UNL     1      -4.408   2.734  10.773  1.00  0.00     0.210 C 
HETATM   11  O4  UNL     1      -4.555   4.080  11.189  1.00  0.00    -0.318 OA
HETATM   12  C13 UNL     1      -5.126   4.467  12.362  1.00  0.00     0.268 C 
HETATM   13  O5  UNL     1      -5.771   5.509  12.508  1.00  0.00    -0.264 OA
ENDROOT
BRANCH   1  14
HETATM   14  C3  UNL     1      -5.808   3.118  15.811  1.00  0.00     0.264 C 
HETATM   15  O2  UNL     1      -6.877   2.967  16.418  1.00  0.00    -0.265 OA
BRANCH  14  16
HETATM   16  O1  UNL     1      -4.731   2.329  16.246  1.00  0.00    -0.322 OA
BRANCH  16  17
HETATM   17  C2  UNL     1      -4.961   0.978  16.661  1.00  0.00     0.174 C 
HETATM   18  C1  UNL     1      -4.467   0.022  15.596  1.00  0.00     0.034 C 
ENDBRANCH  16  17
ENDBRANCH  14  16
ENDBRANCH   1  14
BRANCH   9  19
HETATM   19  O3  UNL     1      -5.162   0.556  11.397  1.00  0.00    -0.393 OA
ATOM     20  H3  UNL     1      -6.004   0.506  11.833  1.00  0.00     0.210 HD
ENDBRANCH   9  19
TORSDOF 4
ENDMDL
