MODEL 1
REMARK VINA RESULT: -6.585939070      0.000      0.000
REMARK  5 active torsions:
REMARK  status: ('A' for Active; 'I' for Inactive)
REMARK    1  A    between atoms: C2_2  and  C4_5 
REMARK    2  A    between atoms: C4_5  and  O1_6 
REMARK    3  A    between atoms: C4_5  and  N2_8 
REMARK    4  A    between atoms: C7_11  and  O2_12 
REMARK    5  A    between atoms: C9_15  and  C10_16 
ROOT
HETATM    1  C1  UNL     1     -17.872  -2.661  27.836  1.00  0.00     0.030 C 
HETATM    2  C2  UNL     1     -17.291  -3.107  29.175  1.00  0.00     0.137 C 
HETATM    3  C3  UNL     1     -18.413  -3.293  30.079  1.00  0.00     0.068 C 
HETATM    4  N1  UNL     1     -19.296  -3.446  30.800  1.00  0.00    -0.197 NA
ENDROOT
BRANCH   2   5
HETATM    5  C4  UNL     1     -16.539  -4.437  29.000  1.00  0.00     0.233 C 
BRANCH   5   6
HETATM    6  O1  UNL     1     -16.805  -4.718  27.630  1.00  0.00    -0.376 OA
ATOM      7  H1  UNL     1     -17.166  -3.887  27.344  1.00  0.00     0.212 HD
ENDBRANCH   5   6
BRANCH   5   8
HETATM    8  N2  UNL     1     -15.200  -4.385  29.370  1.00  0.00    -0.381 N 
HETATM    9  C5  UNL     1     -14.392  -5.310  28.649  1.00  0.00     0.122 C 
HETATM   10  C6  UNL     1     -14.389  -6.664  29.255  1.00  0.00     0.051 C 
HETATM   11  C7  UNL     1     -13.908  -6.584  30.674  1.00  0.00     0.121 C 
HETATM   12  C8  UNL     1     -13.646  -5.182  31.082  1.00  0.00     0.057 C 
HETATM   13  C9  UNL     1     -14.705  -4.187  30.647  1.00  0.00     0.091 C 
BRANCH  11  14
HETATM   14  O2  UNL     1     -14.752  -7.259  31.565  1.00  0.00    -0.395 OA
ATOM     15  H2  UNL     1     -14.485  -8.160  31.707  1.00  0.00     0.210 HD
ENDBRANCH  11  14
BRANCH  13  16
HETATM   16  C10 UNL     1     -14.143  -2.835  31.008  1.00  0.00    -0.031 C 
HETATM   17  C11 UNL     1     -12.604  -2.915  31.145  1.00  0.00     0.016 C 
HETATM   18  C12 UNL     1     -14.373  -1.743  30.025  1.00  0.00     0.016 C 
HETATM   19  C13 UNL     1     -14.593  -2.365  32.376  1.00  0.00     0.016 C 
ENDBRANCH  13  16
ENDBRANCH   5   8
ENDBRANCH   2   5
TORSDOF 5
ENDMDL
MODEL 2
REMARK VINA RESULT: -6.554647666      1.088      1.170
REMARK  5 active torsions:
REMARK  status: ('A' for Active; 'I' for Inactive)
REMARK    1  A    between atoms: C2_2  and  C4_5 
REMARK    2  A    between atoms: C4_5  and  O1_6 
REMARK    3  A    between atoms: C4_5  and  N2_8 
REMARK    4  A    between atoms: C7_11  and  O2_12 
REMARK    5  A    between atoms: C9_15  and  C10_16 
ROOT
HETATM    1  C1  UNL     1     -16.450  -2.142  29.456  1.00  0.00     0.030 C 
HETATM    2  C2  UNL     1     -16.841  -3.200  30.483  1.00  0.00     0.137 C 
HETATM    3  C3  UNL     1     -18.291  -3.295  30.457  1.00  0.00     0.068 C 
HETATM    4  N1  UNL     1     -19.438  -3.379  30.440  1.00  0.00    -0.197 NA
ENDROOT
BRANCH   2   5
HETATM    5  C4  UNL     1     -16.224  -4.556  30.097  1.00  0.00     0.233 C 
BRANCH   5   6
HETATM    6  O1  UNL     1     -16.669  -4.678  28.750  1.00  0.00    -0.376 OA
ATOM      7  H1  UNL     1     -17.605  -4.775  28.879  1.00  0.00     0.212 HD
ENDBRANCH   5   6
BRANCH   5   8
HETATM    8  N2  UNL     1     -14.852  -4.634  30.303  1.00  0.00    -0.381 N 
HETATM    9  C5  UNL     1     -14.207  -5.518  29.391  1.00  0.00     0.122 C 
HETATM   10  C6  UNL     1     -14.241  -6.932  29.843  1.00  0.00     0.051 C 
HETATM   11  C7  UNL     1     -13.595  -7.049  31.191  1.00  0.00     0.121 C 
HETATM   12  C8  UNL     1     -13.179  -5.725  31.714  1.00  0.00     0.057 C 
HETATM   13  C9  UNL     1     -14.200  -4.619  31.524  1.00  0.00     0.091 C 
BRANCH  11  14
HETATM   14  O2  UNL     1     -14.381  -7.768  32.102  1.00  0.00    -0.395 OA
ATOM     15  H2  UNL     1     -14.345  -7.405  32.979  1.00  0.00     0.210 HD
ENDBRANCH  11  14
BRANCH  13  16
HETATM   16  C10 UNL     1     -13.495  -3.357  31.957  1.00  0.00    -0.031 C 
HETATM   17  C11 UNL     1     -12.158  -3.705  32.653  1.00  0.00     0.016 C 
HETATM   18  C12 UNL     1     -13.117  -2.411  30.874  1.00  0.00     0.016 C 
HETATM   19  C13 UNL     1     -14.261  -2.602  33.023  1.00  0.00     0.016 C 
ENDBRANCH  13  16
ENDBRANCH   5   8
ENDBRANCH   2   5
TORSDOF 5
ENDMDL
MODEL 3
REMARK VINA RESULT: -6.371526863      1.954      2.532
REMARK  5 active torsions:
REMARK  status: ('A' for Active; 'I' for Inactive)
REMARK    1  A    between atoms: C2_2  and  C4_5 
REMARK    2  A    between atoms: C4_5  and  O1_6 
REMARK    3  A    between atoms: C4_5  and  N2_8 
REMARK    4  A    between atoms: C7_11  and  O2_12 
REMARK    5  A    between atoms: C9_15  and  C10_16 
ROOT
HETATM    1  C1  UNL     1     -16.870  -2.055  30.000  1.00  0.00     0.030 C 
HETATM    2  C2  UNL     1     -16.108  -3.377  29.956  1.00  0.00     0.137 C 
HETATM    3  C3  UNL     1     -16.566  -4.086  28.772  1.00  0.00     0.068 C 
HETATM    4  N1  UNL     1     -16.920  -4.652  27.836  1.00  0.00    -0.197 NA
ENDROOT
BRANCH   2   5
HETATM    5  C4  UNL     1     -14.598  -3.105  29.847  1.00  0.00     0.233 C 
BRANCH   5   6
HETATM    6  O1  UNL     1     -14.541  -1.741  30.248  1.00  0.00    -0.376 OA
ATOM      7  H1  UNL     1     -14.073  -1.358  29.515  1.00  0.00     0.212 HD
ENDBRANCH   5   6
BRANCH   5   8
HETATM    8  N2  UNL     1     -13.808  -3.994  30.568  1.00  0.00    -0.381 N 
HETATM    9  C5  UNL     1     -12.956  -4.774  29.735  1.00  0.00     0.122 C 
HETATM   10  C6  UNL     1     -13.628  -5.984  29.200  1.00  0.00     0.051 C 
HETATM   11  C7  UNL     1     -14.129  -6.830  30.332  1.00  0.00     0.121 C 
HETATM   12  C8  UNL     1     -13.876  -6.188  31.646  1.00  0.00     0.057 C 
HETATM   13  C9  UNL     1     -14.184  -4.704  31.695  1.00  0.00     0.091 C 
BRANCH  11  14
HETATM   14  O2  UNL     1     -15.466  -7.214  30.166  1.00  0.00    -0.395 OA
ATOM     15  H2  UNL     1     -15.900  -6.728  29.474  1.00  0.00     0.210 HD
ENDBRANCH  11  14
BRANCH  13  16
HETATM   16  C10 UNL     1     -13.687  -4.245  33.043  1.00  0.00    -0.031 C 
HETATM   17  C11 UNL     1     -12.951  -5.401  33.762  1.00  0.00     0.016 C 
HETATM   18  C12 UNL     1     -12.707  -3.126  33.036  1.00  0.00     0.016 C 
HETATM   19  C13 UNL     1     -14.816  -3.903  33.993  1.00  0.00     0.016 C 
ENDBRANCH  13  16
ENDBRANCH   5   8
ENDBRANCH   2   5
TORSDOF 5
ENDMDL
MODEL 4
REMARK VINA RESULT: -6.242378144      2.022      4.462
REMARK  5 active torsions:
REMARK  status: ('A' for Active; 'I' for Inactive)
REMARK    1  A    between atoms: C2_2  and  C4_5 
REMARK    2  A    between atoms: C4_5  and  O1_6 
REMARK    3  A    between atoms: C4_5  and  N2_8 
REMARK    4  A    between atoms: C7_11  and  O2_12 
REMARK    5  A    between atoms: C9_15  and  C10_16 
ROOT
HETATM    1  C1  UNL     1     -13.243  -7.145  30.122  1.00  0.00     0.030 C 
HETATM    2  C2  UNL     1     -13.564  -5.739  29.624  1.00  0.00     0.137 C 
HETATM    3  C3  UNL     1     -13.303  -5.731  28.194  1.00  0.00     0.068 C 
HETATM    4  N1  UNL     1     -13.102  -5.717  27.061  1.00  0.00    -0.197 NA
ENDROOT
BRANCH   2   5
HETATM    5  C4  UNL     1     -15.047  -5.420  29.883  1.00  0.00     0.233 C 
BRANCH   5   6
HETATM    6  O1  UNL     1     -15.578  -6.730  30.049  1.00  0.00    -0.376 OA
ATOM      7  H1  UNL     1     -16.332  -6.691  29.472  1.00  0.00     0.212 HD
ENDBRANCH   5   6
BRANCH   5   8
HETATM    8  N2  UNL     1     -15.261  -4.530  30.928  1.00  0.00    -0.381 N 
HETATM    9  C5  UNL     1     -16.508  -3.849  30.827  1.00  0.00     0.122 C 
HETATM   10  C6  UNL     1     -16.434  -2.642  29.966  1.00  0.00     0.051 C 
HETATM   11  C7  UNL     1     -15.396  -1.701  30.498  1.00  0.00     0.121 C 
HETATM   12  C8  UNL     1     -14.697  -2.271  31.677  1.00  0.00     0.057 C 
HETATM   13  C9  UNL     1     -14.310  -3.731  31.539  1.00  0.00     0.091 C 
BRANCH  11  14
HETATM   14  O2  UNL     1     -14.512  -1.259  29.506  1.00  0.00    -0.395 OA
ATOM     15  H2  UNL     1     -14.928  -0.676  28.881  1.00  0.00     0.210 HD
ENDBRANCH  11  14
BRANCH  13  16
HETATM   16  C10 UNL     1     -13.790  -4.127  32.899  1.00  0.00    -0.031 C 
HETATM   17  C11 UNL     1     -14.750  -3.627  34.004  1.00  0.00     0.016 C 
HETATM   18  C12 UNL     1     -13.659  -5.587  33.151  1.00  0.00     0.016 C 
HETATM   19  C13 UNL     1     -12.479  -3.450  33.239  1.00  0.00     0.016 C 
ENDBRANCH  13  16
ENDBRANCH   5   8
ENDBRANCH   2   5
TORSDOF 5
ENDMDL
MODEL 5
REMARK VINA RESULT: -6.154462015      2.105      3.641
REMARK  5 active torsions:
REMARK  status: ('A' for Active; 'I' for Inactive)
REMARK    1  A    between atoms: C2_2  and  C4_5 
REMARK    2  A    between atoms: C4_5  and  O1_6 
REMARK    3  A    between atoms: C4_5  and  N2_8 
REMARK    4  A    between atoms: C7_11  and  O2_12 
REMARK    5  A    between atoms: C9_15  and  C10_16 
ROOT
HETATM    1  C1  UNL     1     -17.549  -2.183  28.780  1.00  0.00     0.030 C 
HETATM    2  C2  UNL     1     -16.170  -2.618  29.267  1.00  0.00     0.137 C 
HETATM    3  C3  UNL     1     -15.483  -1.416  29.712  1.00  0.00     0.068 C 
HETATM    4  N1  UNL     1     -14.934  -0.471  30.069  1.00  0.00    -0.197 NA
ENDROOT
BRANCH   2   5
HETATM    5  C4  UNL     1     -16.317  -3.598  30.444  1.00  0.00     0.233 C 
BRANCH   5   6
HETATM    6  O1  UNL     1     -17.579  -4.185  30.148  1.00  0.00    -0.376 OA
ATOM      7  H1  UNL     1     -17.527  -4.986  30.655  1.00  0.00     0.212 HD
ENDBRANCH   5   6
BRANCH   5   8
HETATM    8  N2  UNL     1     -15.248  -4.474  30.588  1.00  0.00    -0.381 N 
HETATM    9  C5  UNL     1     -14.821  -4.604  31.941  1.00  0.00     0.122 C 
HETATM   10  C6  UNL     1     -13.860  -3.546  32.344  1.00  0.00     0.051 C 
HETATM   11  C7  UNL     1     -12.665  -3.576  31.439  1.00  0.00     0.121 C 
HETATM   12  C8  UNL     1     -12.815  -4.593  30.369  1.00  0.00     0.057 C 
HETATM   13  C9  UNL     1     -14.183  -4.628  29.717  1.00  0.00     0.091 C 
BRANCH  11  14
HETATM   14  O2  UNL     1     -12.338  -2.308  30.940  1.00  0.00    -0.395 OA
ATOM     15  H2  UNL     1     -11.621  -1.904  31.414  1.00  0.00     0.210 HD
ENDBRANCH  11  14
BRANCH  13  16
HETATM   16  C10 UNL     1     -14.154  -5.834  28.811  1.00  0.00    -0.031 C 
HETATM   17  C11 UNL     1     -13.524  -7.040  29.548  1.00  0.00     0.016 C 
HETATM   18  C12 UNL     1     -15.472  -6.333  28.337  1.00  0.00     0.016 C 
HETATM   19  C13 UNL     1     -13.244  -5.639  27.616  1.00  0.00     0.016 C 
ENDBRANCH  13  16
ENDBRANCH   5   8
ENDBRANCH   2   5
TORSDOF 5
ENDMDL
