MODEL 1
REMARK VINA RESULT: -5.795365496      0.000      0.000
REMARK  5 active torsions:
REMARK  status: ('A' for Active; 'I' for Inactive)
REMARK    1  A    between atoms: C2_2  and  C3_3 
REMARK    2  A    between atoms: C5_5  and  O1_6 
REMARK    3  A    between atoms: C7_9  and  O2_10 
REMARK    4  A    between atoms: C8_12  and  O3_13 
REMARK    5  A    between atoms: C9_15  and  O4_16 
ROOT
HETATM    1  C3  UNL     1     -13.922  -5.652  30.343  1.00  0.00    -0.000 C 
HETATM    2  C4  UNL     1     -15.361  -5.579  30.915  1.00  0.00     0.053 C 
HETATM    3  C5  UNL     1     -15.881  -4.407  30.111  1.00  0.00     0.088 C 
HETATM    4  C6  UNL     1     -15.914  -4.638  28.636  1.00  0.00     0.075 C 
HETATM    5  C7  UNL     1     -15.181  -5.840  28.169  1.00  0.00     0.150 C 
HETATM    6  C8  UNL     1     -14.072  -6.325  29.033  1.00  0.00     0.156 C 
HETATM    7  C9  UNL     1     -14.799  -3.373  30.361  1.00  0.00     0.163 C 
HETATM    8  C11 UNL     1     -13.545  -4.230  30.379  1.00  0.00    -0.008 C 
HETATM    9  C12 UNL     1     -12.859  -3.839  31.697  1.00  0.00     0.018 C 
HETATM   10  C13 UNL     1     -12.615  -3.739  29.297  1.00  0.00     0.018 C 
ENDROOT
BRANCH   1  11
HETATM   11  C2  UNL     1     -13.138  -6.496  31.325  1.00  0.00     0.009 C 
HETATM   12  C1  UNL     1     -13.618  -7.884  31.524  1.00  0.00     0.006 C 
ENDBRANCH   1  11
BRANCH   6  13
HETATM   13  O3  UNL     1     -12.919  -6.447  28.274  1.00  0.00    -0.392 OA
ATOM     14  H3  UNL     1     -12.596  -7.330  28.143  1.00  0.00     0.210 HD
ENDBRANCH   6  13
BRANCH   3  15
HETATM   15  O1  UNL     1     -17.114  -3.962  30.606  1.00  0.00    -0.387 OA
ATOM     16  H1  UNL     1     -17.590  -3.471  29.946  1.00  0.00     0.210 HD
ENDBRANCH   3  15
BRANCH   5  17
HETATM   17  O2  UNL     1     -16.150  -6.843  27.912  1.00  0.00    -0.393 OA
ATOM     18  H2  UNL     1     -15.686  -7.592  27.556  1.00  0.00     0.210 HD
ENDBRANCH   5  17
BRANCH   7  19
HETATM   19  O4  UNL     1     -14.731  -2.421  29.379  1.00  0.00    -0.387 OA
HETATM   20  C10 UNL     1     -14.913  -1.133  29.871  1.00  0.00     0.202 C 
ENDBRANCH   7  19
TORSDOF 5
ENDMDL
MODEL 2
REMARK VINA RESULT: -5.766107413      2.127      3.429
REMARK  5 active torsions:
REMARK  status: ('A' for Active; 'I' for Inactive)
REMARK    1  A    between atoms: C2_2  and  C3_3 
REMARK    2  A    between atoms: C5_5  and  O1_6 
REMARK    3  A    between atoms: C7_9  and  O2_10 
REMARK    4  A    between atoms: C8_12  and  O3_13 
REMARK    5  A    between atoms: C9_15  and  O4_16 
ROOT
HETATM    1  C3  UNL     1     -13.984  -4.547  31.587  1.00  0.00    -0.000 C 
HETATM    2  C4  UNL     1     -15.305  -5.106  31.000  1.00  0.00     0.053 C 
HETATM    3  C5  UNL     1     -14.735  -5.923  29.861  1.00  0.00     0.088 C 
HETATM    4  C6  UNL     1     -13.839  -7.038  30.289  1.00  0.00     0.075 C 
HETATM    5  C7  UNL     1     -13.420  -7.000  31.711  1.00  0.00     0.150 C 
HETATM    6  C8  UNL     1     -13.417  -5.666  32.372  1.00  0.00     0.156 C 
HETATM    7  C9  UNL     1     -13.851  -4.899  29.175  1.00  0.00     0.163 C 
HETATM    8  C11 UNL     1     -13.302  -4.119  30.355  1.00  0.00    -0.008 C 
HETATM    9  C12 UNL     1     -13.606  -2.656  29.996  1.00  0.00     0.018 C 
HETATM   10  C13 UNL     1     -11.796  -4.217  30.335  1.00  0.00     0.018 C 
ENDROOT
BRANCH   1  11
HETATM   11  C2  UNL     1     -14.392  -3.387  32.470  1.00  0.00     0.009 C 
HETATM   12  C1  UNL     1     -14.854  -3.735  33.835  1.00  0.00     0.006 C 
ENDBRANCH   1  11
BRANCH   6  13
HETATM   13  O3  UNL     1     -12.177  -5.443  32.947  1.00  0.00    -0.392 OA
ATOM     14  H3  UNL     1     -12.177  -5.229  33.872  1.00  0.00     0.210 HD
ENDBRANCH   6  13
BRANCH   3  15
HETATM   15  O1  UNL     1     -15.748  -6.361  28.997  1.00  0.00    -0.387 OA
ATOM     16  H1  UNL     1     -15.505  -6.226  28.088  1.00  0.00     0.210 HD
ENDBRANCH   3  15
BRANCH   5  17
HETATM   17  O2  UNL     1     -14.214  -7.948  32.404  1.00  0.00    -0.393 OA
ATOM     18  H2  UNL     1     -15.048  -7.997  31.950  1.00  0.00     0.210 HD
ENDBRANCH   5  17
BRANCH   7  19
HETATM   19  O4  UNL     1     -12.840  -5.466  28.445  1.00  0.00    -0.387 OA
HETATM   20  C10 UNL     1     -13.167  -5.610  27.102  1.00  0.00     0.202 C 
ENDBRANCH   7  19
TORSDOF 5
ENDMDL
MODEL 3
REMARK VINA RESULT: -5.682752511      1.197      3.982
REMARK  5 active torsions:
REMARK  status: ('A' for Active; 'I' for Inactive)
REMARK    1  A    between atoms: C2_2  and  C3_3 
REMARK    2  A    between atoms: C5_5  and  O1_6 
REMARK    3  A    between atoms: C7_9  and  O2_10 
REMARK    4  A    between atoms: C8_12  and  O3_13 
REMARK    5  A    between atoms: C9_15  and  O4_16 
ROOT
HETATM    1  C3  UNL     1     -14.314  -3.620  30.062  1.00  0.00    -0.000 C 
HETATM    2  C4  UNL     1     -13.578  -3.920  28.731  1.00  0.00     0.053 C 
HETATM    3  C5  UNL     1     -13.687  -5.429  28.731  1.00  0.00     0.088 C 
HETATM    4  C6  UNL     1     -15.087  -5.946  28.684  1.00  0.00     0.075 C 
HETATM    5  C7  UNL     1     -16.142  -4.934  28.932  1.00  0.00     0.150 C 
HETATM    6  C8  UNL     1     -15.752  -3.743  29.733  1.00  0.00     0.156 C 
HETATM    7  C9  UNL     1     -13.150  -5.765  30.109  1.00  0.00     0.163 C 
HETATM    8  C11 UNL     1     -13.693  -4.620  30.945  1.00  0.00    -0.008 C 
HETATM    9  C12 UNL     1     -12.450  -4.075  31.665  1.00  0.00     0.018 C 
HETATM   10  C13 UNL     1     -14.554  -5.196  32.043  1.00  0.00     0.018 C 
ENDROOT
BRANCH   1  11
HETATM   11  C2  UNL     1     -13.937  -2.198  30.423  1.00  0.00     0.009 C 
HETATM   12  C1  UNL     1     -14.717  -1.127  29.760  1.00  0.00     0.006 C 
ENDBRANCH   1  11
BRANCH   6  13
HETATM   13  O3  UNL     1     -16.635  -3.592  30.790  1.00  0.00    -0.392 OA
ATOM     14  H3  UNL     1     -16.752  -2.708  31.115  1.00  0.00     0.210 HD
ENDBRANCH   6  13
BRANCH   3  15
HETATM   15  O1  UNL     1     -12.880  -5.994  27.734  1.00  0.00    -0.387 OA
ATOM     16  H1  UNL     1     -12.677  -6.900  27.931  1.00  0.00     0.210 HD
ENDBRANCH   3  15
BRANCH   5  17
HETATM   17  O2  UNL     1     -16.687  -4.585  27.670  1.00  0.00    -0.393 OA
ATOM     18  H2  UNL     1     -17.632  -4.641  27.750  1.00  0.00     0.210 HD
ENDBRANCH   5  17
BRANCH   7  19
HETATM   19  O4  UNL     1     -13.595  -6.972  30.579  1.00  0.00    -0.387 OA
HETATM   20  C10 UNL     1     -12.567  -7.892  30.747  1.00  0.00     0.202 C 
ENDBRANCH   7  19
TORSDOF 5
ENDMDL
MODEL 4
REMARK VINA RESULT: -5.510395506      2.250      3.940
REMARK  5 active torsions:
REMARK  status: ('A' for Active; 'I' for Inactive)
REMARK    1  A    between atoms: C2_2  and  C3_3 
REMARK    2  A    between atoms: C5_5  and  O1_6 
REMARK    3  A    between atoms: C7_9  and  O2_10 
REMARK    4  A    between atoms: C8_12  and  O3_13 
REMARK    5  A    between atoms: C9_15  and  O4_16 
ROOT
HETATM    1  C3  UNL     1     -13.778  -3.994  32.182  1.00  0.00    -0.000 C 
HETATM    2  C4  UNL     1     -14.273  -5.416  32.552  1.00  0.00     0.053 C 
HETATM    3  C5  UNL     1     -14.044  -6.104  31.224  1.00  0.00     0.088 C 
HETATM    4  C6  UNL     1     -12.616  -6.143  30.789  1.00  0.00     0.075 C 
HETATM    5  C7  UNL     1     -11.697  -5.271  31.559  1.00  0.00     0.150 C 
HETATM    6  C8  UNL     1     -12.301  -4.087  32.227  1.00  0.00     0.156 C 
HETATM    7  C9  UNL     1     -14.758  -5.160  30.274  1.00  0.00     0.163 C 
HETATM    8  C11 UNL     1     -14.444  -3.805  30.884  1.00  0.00    -0.008 C 
HETATM    9  C12 UNL     1     -15.823  -3.143  31.024  1.00  0.00     0.018 C 
HETATM   10  C13 UNL     1     -13.719  -2.974  29.854  1.00  0.00     0.018 C 
ENDROOT
BRANCH   1  11
HETATM   11  C2  UNL     1     -14.319  -3.082  33.262  1.00  0.00     0.009 C 
HETATM   12  C1  UNL     1     -14.842  -3.748  34.479  1.00  0.00     0.006 C 
ENDBRANCH   1  11
BRANCH   6  13
HETATM   13  O3  UNL     1     -11.606  -2.948  31.856  1.00  0.00    -0.392 OA
ATOM     14  H3  UNL     1     -10.937  -2.650  32.460  1.00  0.00     0.210 HD
ENDBRANCH   6  13
BRANCH   3  15
HETATM   15  O1  UNL     1     -14.640  -7.372  31.202  1.00  0.00    -0.387 OA
ATOM     16  H1  UNL     1     -14.619  -7.744  30.329  1.00  0.00     0.210 HD
ENDBRANCH   3  15
BRANCH   5  17
HETATM   17  O2  UNL     1     -10.994  -6.107  32.464  1.00  0.00    -0.393 OA
ATOM     18  H2  UNL     1     -10.210  -5.637  32.724  1.00  0.00     0.210 HD
ENDBRANCH   5  17
BRANCH   7  19
HETATM   19  O4  UNL     1     -14.294  -5.241  28.988  1.00  0.00    -0.387 OA
HETATM   20  C10 UNL     1     -15.228  -5.792  28.117  1.00  0.00     0.202 C 
ENDBRANCH   7  19
TORSDOF 5
ENDMDL
MODEL 5
REMARK VINA RESULT: -5.475315491      1.985      4.125
REMARK  5 active torsions:
REMARK  status: ('A' for Active; 'I' for Inactive)
REMARK    1  A    between atoms: C2_2  and  C3_3 
REMARK    2  A    between atoms: C5_5  and  O1_6 
REMARK    3  A    between atoms: C7_9  and  O2_10 
REMARK    4  A    between atoms: C8_12  and  O3_13 
REMARK    5  A    between atoms: C9_15  and  O4_16 
ROOT
HETATM    1  C3  UNL     1     -14.404  -3.454  30.587  1.00  0.00    -0.000 C 
HETATM    2  C4  UNL     1     -13.112  -2.904  29.931  1.00  0.00     0.053 C 
HETATM    3  C5  UNL     1     -12.142  -3.980  30.372  1.00  0.00     0.088 C 
HETATM    4  C6  UNL     1     -12.456  -5.343  29.850  1.00  0.00     0.075 C 
HETATM    5  C7  UNL     1     -13.796  -5.491  29.234  1.00  0.00     0.150 C 
HETATM    6  C8  UNL     1     -14.849  -4.543  29.688  1.00  0.00     0.156 C 
HETATM    7  C9  UNL     1     -12.403  -4.019  31.866  1.00  0.00     0.163 C 
HETATM    8  C11 UNL     1     -13.903  -3.794  31.928  1.00  0.00    -0.008 C 
HETATM    9  C12 UNL     1     -14.053  -2.630  32.921  1.00  0.00     0.018 C 
HETATM   10  C13 UNL     1     -14.536  -4.976  32.620  1.00  0.00     0.018 C 
ENDROOT
BRANCH   1  11
HETATM   11  C2  UNL     1     -15.379  -2.296  30.596  1.00  0.00     0.009 C 
HETATM   12  C1  UNL     1     -15.027  -1.138  29.740  1.00  0.00     0.006 C 
ENDBRANCH   1  11
BRANCH   6  13
HETATM   13  O3  UNL     1     -15.963  -5.257  30.099  1.00  0.00    -0.392 OA
ATOM     14  H3  UNL     1     -16.358  -5.825  29.449  1.00  0.00     0.210 HD
ENDBRANCH   6  13
BRANCH   3  15
HETATM   15  O1  UNL     1     -10.818  -3.604  30.110  1.00  0.00    -0.387 OA
ATOM     16  H1  UNL     1     -10.763  -3.068  29.328  1.00  0.00     0.210 HD
ENDBRANCH   3  15
BRANCH   5  17
HETATM   17  O2  UNL     1     -13.612  -5.467  27.829  1.00  0.00    -0.393 OA
ATOM     18  H2  UNL     1     -14.476  -5.453  27.435  1.00  0.00     0.210 HD
ENDBRANCH   5  17
BRANCH   7  19
HETATM   19  O4  UNL     1     -12.060  -5.215  32.438  1.00  0.00    -0.387 OA
HETATM   20  C10 UNL     1     -10.970  -5.105  33.294  1.00  0.00     0.202 C 
ENDBRANCH   7  19
TORSDOF 5
ENDMDL
