MODEL 1
REMARK VINA RESULT: -9.352743953      0.000      0.000
REMARK  13 active torsions:
REMARK  status: ('A' for Active; 'I' for Inactive)
REMARK    1  A    between atoms: C2_2  and  C3_3 
REMARK    2  A    between atoms: C3_3  and  C4_4 
REMARK    3  A    between atoms: C4_4  and  C5_5 
REMARK    4  A    between atoms: C5_5  and  C6_6 
REMARK    5  A    between atoms: C6_6  and  O1_7 
REMARK    6  A    between atoms: O1_7  and  C7_8 
REMARK       I    between atoms: C7_8  and  N1_10 
REMARK    7  A    between atoms: N2_13  and  C10_14 
REMARK    8  A    between atoms: C10_14  and  C11_15 
REMARK    9  A    between atoms: C11_15  and  C12_16 
REMARK   10  A    between atoms: C12_16  and  N3_17 
REMARK       I    between atoms: N3_17  and  C13_19 
REMARK   11  A    between atoms: C13_19  and  C14_21 
REMARK   12  A    between atoms: C14_21  and  N4_22 
REMARK   13  A    between atoms: C19_27  and  C20_28 
ROOT
HETATM    1  N3  UNL     1      14.851  19.964  18.775  1.00  0.00    -0.359 N 
ATOM      2  H3  UNL     1      14.215  20.161  19.548  1.00  0.00     0.162 HD
HETATM    3  C13 UNL     1      15.707  21.002  18.346  1.00  0.00     0.235 C 
HETATM    4  O3  UNL     1      16.512  20.818  17.406  1.00  0.00    -0.272 OA
ENDROOT
BRANCH   1   5
HETATM    5  C12 UNL     1      14.812  18.643  18.194  1.00  0.00     0.128 C 
BRANCH   5   6
HETATM    6  C11 UNL     1      13.751  17.750  18.751  1.00  0.00     0.064 C 
BRANCH   6   7
HETATM    7  C10 UNL     1      12.617  17.459  17.819  1.00  0.00     0.060 C 
BRANCH   7   8
HETATM    8  N2  UNL     1      11.387  18.015  18.216  1.00  0.00    -0.391 N 
HETATM    9  C9  UNL     1      11.188  19.406  18.067  1.00  0.00     0.143 C 
HETATM   10  C8  UNL     1      10.193  19.740  16.963  1.00  0.00     0.168 C 
HETATM   11  N1  UNL     1      10.578  19.041  15.739  1.00  0.00    -0.255 N 
HETATM   12  C7  UNL     1      10.883  19.882  14.672  1.00  0.00     0.377 C 
HETATM   13  N6  UNL     1      10.658  17.677  15.559  1.00  0.00    -0.227 NA
HETATM   14  O2  UNL     1      10.757  21.144  14.817  1.00  0.00    -0.237 OA
HETATM   15  C30 UNL     1       9.879  16.954  16.560  1.00  0.00     0.133 C 
HETATM   16  C31 UNL     1      10.099  17.279  14.284  1.00  0.00     0.136 C 
HETATM   17  C29 UNL     1      10.244  17.206  17.966  1.00  0.00     0.138 C 
BRANCH  12  18
HETATM   18  O1  UNL     1      11.318  19.403  13.472  1.00  0.00    -0.303 OA
BRANCH  18  19
HETATM   19  C6  UNL     1      12.471  19.784  12.818  1.00  0.00     0.180 C 
BRANCH  19  20
HETATM   20  C5  UNL     1      13.610  19.958  13.759  1.00  0.00     0.027 C 
BRANCH  20  21
HETATM   21  C4  UNL     1      14.621  20.943  13.175  1.00  0.00     0.002 C 
BRANCH  21  22
HETATM   22  C3  UNL     1      14.997  22.004  14.157  1.00  0.00    -0.000 C 
BRANCH  22  23
HETATM   23  C2  UNL     1      14.002  22.219  15.251  1.00  0.00    -0.005 C 
HETATM   24  C1  UNL     1      13.242  23.509  14.928  1.00  0.00     0.005 C 
ENDBRANCH  22  23
ENDBRANCH  21  22
ENDBRANCH  20  21
ENDBRANCH  19  20
ENDBRANCH  18  19
ENDBRANCH  12  18
ENDBRANCH   7   8
ENDBRANCH   6   7
ENDBRANCH   5   6
ENDBRANCH   1   5
BRANCH   3  25
HETATM   25  C14 UNL     1      15.671  22.332  18.999  1.00  0.00     0.235 C 
BRANCH  25  26
HETATM   26  N4  UNL     1      16.849  23.114  18.686  1.00  0.00    -0.307 N 
HETATM   27  C15 UNL     1      18.002  22.892  19.364  1.00  0.00     0.022 A 
HETATM   28  C16 UNL     1      19.165  23.569  19.127  1.00  0.00    -0.022 A 
HETATM   29  C28 UNL     1      18.271  21.917  20.482  1.00  0.00     0.058 C 
HETATM   30  C17 UNL     1      19.190  24.542  18.146  1.00  0.00     0.007 A 
HETATM   31  C26 UNL     1      20.264  23.110  20.019  1.00  0.00     0.042 C 
HETATM   32  C18 UNL     1      20.157  25.397  17.646  1.00  0.00     0.046 A 
HETATM   33  C24 UNL     1      18.036  24.793  17.439  1.00  0.00     0.112 A 
HETATM   34  C19 UNL     1      19.588  26.155  16.651  1.00  0.00     0.068 A 
HETATM   35  N5  UNL     1      18.308  25.771  16.545  1.00  0.00    -0.349 N 
ATOM     36  H5  UNL     1      17.635  26.161  15.885  1.00  0.00     0.166 HD
HETATM   37  C25 UNL     1      16.896  24.061  17.738  1.00  0.00     0.276 A 
HETATM   38  O5  UNL     1      15.846  24.291  17.091  1.00  0.00    -0.265 OA
HETATM   39  C27 UNL     1      19.470  22.531  21.179  1.00  0.00     0.011 C 
BRANCH  34  40
HETATM   40  C20 UNL     1      20.269  27.190  15.853  1.00  0.00     0.101 A 
HETATM   41  C21 UNL     1      20.114  27.356  14.481  1.00  0.00     0.041 A 
HETATM   42  C22 UNL     1      20.904  28.418  14.097  1.00  0.00     0.027 A 
HETATM   43  C23 UNL     1      21.505  28.851  15.256  1.00  0.00     0.142 A 
HETATM   44  O4  UNL     1      21.105  28.106  16.252  1.00  0.00    -0.321 OA
ENDBRANCH  34  40
ENDBRANCH  25  26
ENDBRANCH   3  25
TORSDOF 13
ENDMDL
MODEL 2
REMARK VINA RESULT: -9.071002489      1.783      3.687
REMARK  13 active torsions:
REMARK  status: ('A' for Active; 'I' for Inactive)
REMARK    1  A    between atoms: C2_2  and  C3_3 
REMARK    2  A    between atoms: C3_3  and  C4_4 
REMARK    3  A    between atoms: C4_4  and  C5_5 
REMARK    4  A    between atoms: C5_5  and  C6_6 
REMARK    5  A    between atoms: C6_6  and  O1_7 
REMARK    6  A    between atoms: O1_7  and  C7_8 
REMARK       I    between atoms: C7_8  and  N1_10 
REMARK    7  A    between atoms: N2_13  and  C10_14 
REMARK    8  A    between atoms: C10_14  and  C11_15 
REMARK    9  A    between atoms: C11_15  and  C12_16 
REMARK   10  A    between atoms: C12_16  and  N3_17 
REMARK       I    between atoms: N3_17  and  C13_19 
REMARK   11  A    between atoms: C13_19  and  C14_21 
REMARK   12  A    between atoms: C14_21  and  N4_22 
REMARK   13  A    between atoms: C19_27  and  C20_28 
ROOT
HETATM    1  N3  UNL     1      15.020  22.468  14.476  1.00  0.00    -0.359 N 
ATOM      2  H3  UNL     1      14.393  23.272  14.491  1.00  0.00     0.162 HD
HETATM    3  C13 UNL     1      15.791  22.212  15.631  1.00  0.00     0.235 C 
HETATM    4  O3  UNL     1      16.573  21.237  15.674  1.00  0.00    -0.272 OA
ENDROOT
BRANCH   1   5
HETATM    5  C12 UNL     1      15.058  21.668  13.274  1.00  0.00     0.128 C 
BRANCH   5   6
HETATM    6  C11 UNL     1      14.204  20.442  13.316  1.00  0.00     0.064 C 
BRANCH   6   7
HETATM    7  C10 UNL     1      12.994  20.546  14.189  1.00  0.00     0.060 C 
BRANCH   7   8
HETATM    8  N2  UNL     1      11.783  20.259  13.532  1.00  0.00    -0.391 N 
HETATM    9  C9  UNL     1      11.493  18.918  13.193  1.00  0.00     0.143 C 
HETATM   10  C8  UNL     1      10.372  18.329  14.039  1.00  0.00     0.168 C 
HETATM   11  N1  UNL     1      10.665  18.554  15.453  1.00  0.00    -0.255 N 
HETATM   12  C7  UNL     1      10.811  17.388  16.200  1.00  0.00     0.377 C 
HETATM   13  N6  UNL     1      10.801  19.773  16.082  1.00  0.00    -0.227 NA
HETATM   14  O2  UNL     1      10.631  16.259  15.633  1.00  0.00    -0.237 OA
HETATM   15  C30 UNL     1      10.171  20.848  15.320  1.00  0.00     0.133 C 
HETATM   16  C31 UNL     1      10.135  19.780  17.368  1.00  0.00     0.136 C 
HETATM   17  C29 UNL     1      10.666  21.037  13.944  1.00  0.00     0.138 C 
BRANCH  12  18
HETATM   18  O1  UNL     1      11.143  17.410  17.522  1.00  0.00    -0.303 OA
BRANCH  18  19
HETATM   19  C6  UNL     1      12.190  16.726  18.104  1.00  0.00     0.180 C 
BRANCH  19  20
HETATM   20  C5  UNL     1      12.344  17.068  19.543  1.00  0.00     0.027 C 
BRANCH  20  21
HETATM   21  C4  UNL     1      13.564  17.966  19.736  1.00  0.00     0.002 C 
BRANCH  21  22
HETATM   22  C3  UNL     1      14.411  18.030  18.507  1.00  0.00    -0.000 C 
BRANCH  22  23
HETATM   23  C2  UNL     1      14.888  19.401  18.151  1.00  0.00    -0.005 C 
HETATM   24  C1  UNL     1      13.773  20.382  18.525  1.00  0.00     0.005 C 
ENDBRANCH  22  23
ENDBRANCH  21  22
ENDBRANCH  20  21
ENDBRANCH  19  20
ENDBRANCH  18  19
ENDBRANCH  12  18
ENDBRANCH   7   8
ENDBRANCH   6   7
ENDBRANCH   5   6
ENDBRANCH   1   5
BRANCH   3  25
HETATM   25  C14 UNL     1      15.691  23.094  16.818  1.00  0.00     0.235 C 
BRANCH  25  26
HETATM   26  N4  UNL     1      16.952  23.748  17.106  1.00  0.00    -0.307 N 
HETATM   27  C15 UNL     1      17.668  23.374  18.195  1.00  0.00     0.022 A 
HETATM   28  C16 UNL     1      18.873  23.922  18.536  1.00  0.00    -0.022 A 
HETATM   29  C28 UNL     1      17.335  22.339  19.239  1.00  0.00     0.058 C 
HETATM   30  C17 UNL     1      19.409  24.918  17.742  1.00  0.00     0.007 A 
HETATM   31  C26 UNL     1      19.426  23.313  19.776  1.00  0.00     0.042 C 
HETATM   32  C18 UNL     1      20.568  25.673  17.776  1.00  0.00     0.046 A 
HETATM   33  C24 UNL     1      18.707  25.321  16.629  1.00  0.00     0.112 A 
HETATM   34  C19 UNL     1      20.559  26.524  16.697  1.00  0.00     0.068 A 
HETATM   35  N5  UNL     1      19.426  26.291  16.020  1.00  0.00    -0.349 N 
ATOM     36  H5  UNL     1      19.146  26.776  15.167  1.00  0.00     0.166 HD
HETATM   37  C25 UNL     1      17.491  24.714  16.349  1.00  0.00     0.276 A 
HETATM   38  O5  UNL     1      16.854  25.082  15.333  1.00  0.00    -0.265 OA
HETATM   39  C27 UNL     1      18.158  22.790  20.431  1.00  0.00     0.011 C 
BRANCH  34  40
HETATM   40  C20 UNL     1      21.609  27.500  16.355  1.00  0.00     0.101 A 
HETATM   41  C21 UNL     1      21.514  28.430  15.324  1.00  0.00     0.041 A 
HETATM   42  C22 UNL     1      22.682  29.162  15.315  1.00  0.00     0.027 A 
HETATM   43  C23 UNL     1      23.435  28.644  16.343  1.00  0.00     0.142 A 
HETATM   44  O4  UNL     1      22.769  27.679  16.920  1.00  0.00    -0.321 OA
ENDBRANCH  34  40
ENDBRANCH  25  26
ENDBRANCH   3  25
TORSDOF 13
ENDMDL
MODEL 3
REMARK VINA RESULT: -9.017985731      1.409      3.414
REMARK  13 active torsions:
REMARK  status: ('A' for Active; 'I' for Inactive)
REMARK    1  A    between atoms: C2_2  and  C3_3 
REMARK    2  A    between atoms: C3_3  and  C4_4 
REMARK    3  A    between atoms: C4_4  and  C5_5 
REMARK    4  A    between atoms: C5_5  and  C6_6 
REMARK    5  A    between atoms: C6_6  and  O1_7 
REMARK    6  A    between atoms: O1_7  and  C7_8 
REMARK       I    between atoms: C7_8  and  N1_10 
REMARK    7  A    between atoms: N2_13  and  C10_14 
REMARK    8  A    between atoms: C10_14  and  C11_15 
REMARK    9  A    between atoms: C11_15  and  C12_16 
REMARK   10  A    between atoms: C12_16  and  N3_17 
REMARK       I    between atoms: N3_17  and  C13_19 
REMARK   11  A    between atoms: C13_19  and  C14_21 
REMARK   12  A    between atoms: C14_21  and  N4_22 
REMARK   13  A    between atoms: C19_27  and  C20_28 
ROOT
HETATM    1  N3  UNL     1      15.153  20.672  18.673  1.00  0.00    -0.359 N 
ATOM      2  H3  UNL     1      14.345  21.075  19.147  1.00  0.00     0.162 HD
HETATM    3  C13 UNL     1      16.391  21.339  18.801  1.00  0.00     0.235 C 
HETATM    4  O3  UNL     1      17.418  20.889  18.248  1.00  0.00    -0.272 OA
ENDROOT
BRANCH   1   5
HETATM    5  C12 UNL     1      14.952  19.458  17.917  1.00  0.00     0.128 C 
BRANCH   5   6
HETATM    6  C11 UNL     1      13.916  19.559  16.845  1.00  0.00     0.064 C 
BRANCH   6   7
HETATM    7  C10 UNL     1      13.553  20.954  16.447  1.00  0.00     0.060 C 
BRANCH   7   8
HETATM    8  N2  UNL     1      13.522  21.168  15.056  1.00  0.00    -0.391 N 
HETATM    9  C9  UNL     1      13.618  20.052  14.194  1.00  0.00     0.143 C 
HETATM   10  C8  UNL     1      12.308  19.750  13.479  1.00  0.00     0.168 C 
HETATM   11  N1  UNL     1      11.228  19.675  14.460  1.00  0.00    -0.255 N 
HETATM   12  C7  UNL     1      10.597  18.436  14.523  1.00  0.00     0.377 C 
HETATM   13  N6  UNL     1      10.798  20.687  15.292  1.00  0.00    -0.227 NA
HETATM   14  O2  UNL     1      10.954  17.513  13.716  1.00  0.00    -0.237 OA
HETATM   15  C30 UNL     1      11.203  22.001  14.798  1.00  0.00     0.133 C 
HETATM   16  C31 UNL     1       9.353  20.737  15.360  1.00  0.00     0.136 C 
HETATM   17  C29 UNL     1      12.652  22.203  14.617  1.00  0.00     0.138 C 
BRANCH  12  18
HETATM   18  O1  UNL     1       9.608  18.170  15.423  1.00  0.00    -0.303 OA
BRANCH  18  19
HETATM   19  C6  UNL     1       9.671  17.246  16.445  1.00  0.00     0.180 C 
BRANCH  19  20
HETATM   20  C5  UNL     1      10.478  17.741  17.592  1.00  0.00     0.027 C 
BRANCH  20  21
HETATM   21  C4  UNL     1      11.475  16.670  18.027  1.00  0.00     0.002 C 
BRANCH  21  22
HETATM   22  C3  UNL     1      12.223  17.071  19.257  1.00  0.00    -0.000 C 
BRANCH  22  23
HETATM   23  C2  UNL     1      11.628  18.224  19.999  1.00  0.00    -0.005 C 
HETATM   24  C1  UNL     1      12.753  18.873  20.810  1.00  0.00     0.005 C 
ENDBRANCH  22  23
ENDBRANCH  21  22
ENDBRANCH  20  21
ENDBRANCH  19  20
ENDBRANCH  18  19
ENDBRANCH  12  18
ENDBRANCH   7   8
ENDBRANCH   6   7
ENDBRANCH   5   6
ENDBRANCH   1   5
BRANCH   3  25
HETATM   25  C14 UNL     1      16.501  22.587  19.593  1.00  0.00     0.235 C 
BRANCH  25  26
HETATM   26  N4  UNL     1      17.612  23.404  19.152  1.00  0.00    -0.307 N 
HETATM   27  C15 UNL     1      18.802  23.323  19.796  1.00  0.00     0.022 A 
HETATM   28  C16 UNL     1      19.909  24.043  19.441  1.00  0.00    -0.022 A 
HETATM   29  C28 UNL     1      19.178  22.485  20.992  1.00  0.00     0.058 C 
HETATM   30  C17 UNL     1      19.832  24.912  18.369  1.00  0.00     0.007 A 
HETATM   31  C26 UNL     1      21.069  23.746  20.325  1.00  0.00     0.042 C 
HETATM   32  C18 UNL     1      20.719  25.770  17.744  1.00  0.00     0.046 A 
HETATM   33  C24 UNL     1      18.637  25.018  17.693  1.00  0.00     0.112 A 
HETATM   34  C19 UNL     1      20.064  26.387  16.706  1.00  0.00     0.068 A 
HETATM   35  N5  UNL     1      18.809  25.916  16.696  1.00  0.00    -0.349 N 
ATOM     36  H5  UNL     1      18.087  26.195  16.032  1.00  0.00     0.166 HD
HETATM   37  C25 UNL     1      17.560  24.252  18.114  1.00  0.00     0.276 A 
HETATM   38  O5  UNL     1      16.473  24.350  17.495  1.00  0.00    -0.265 OA
HETATM   39  C27 UNL     1      20.360  23.240  21.570  1.00  0.00     0.011 C 
BRANCH  34  40
HETATM   40  C20 UNL     1      20.644  27.376  15.780  1.00  0.00     0.101 A 
HETATM   41  C21 UNL     1      20.525  27.323  14.395  1.00  0.00     0.041 A 
HETATM   42  C22 UNL     1      21.193  28.412  13.878  1.00  0.00     0.027 A 
HETATM   43  C23 UNL     1      21.689  29.080  14.974  1.00  0.00     0.142 A 
HETATM   44  O4  UNL     1      21.344  28.439  16.059  1.00  0.00    -0.321 OA
ENDBRANCH  34  40
ENDBRANCH  25  26
ENDBRANCH   3  25
TORSDOF 13
ENDMDL
MODEL 4
REMARK VINA RESULT: -8.864136693      2.340      4.799
REMARK  13 active torsions:
REMARK  status: ('A' for Active; 'I' for Inactive)
REMARK    1  A    between atoms: C2_2  and  C3_3 
REMARK    2  A    between atoms: C3_3  and  C4_4 
REMARK    3  A    between atoms: C4_4  and  C5_5 
REMARK    4  A    between atoms: C5_5  and  C6_6 
REMARK    5  A    between atoms: C6_6  and  O1_7 
REMARK    6  A    between atoms: O1_7  and  C7_8 
REMARK       I    between atoms: C7_8  and  N1_10 
REMARK    7  A    between atoms: N2_13  and  C10_14 
REMARK    8  A    between atoms: C10_14  and  C11_15 
REMARK    9  A    between atoms: C11_15  and  C12_16 
REMARK   10  A    between atoms: C12_16  and  N3_17 
REMARK       I    between atoms: N3_17  and  C13_19 
REMARK   11  A    between atoms: C13_19  and  C14_21 
REMARK   12  A    between atoms: C14_21  and  N4_22 
REMARK   13  A    between atoms: C19_27  and  C20_28 
ROOT
HETATM    1  N3  UNL     1      15.046  22.557  14.656  1.00  0.00    -0.359 N 
ATOM      2  H3  UNL     1      14.259  23.205  14.693  1.00  0.00     0.162 HD
HETATM    3  C13 UNL     1      15.923  22.525  15.764  1.00  0.00     0.235 C 
HETATM    4  O3  UNL     1      16.902  21.747  15.779  1.00  0.00    -0.272 OA
ENDROOT
BRANCH   1   5
HETATM    5  C12 UNL     1      15.188  21.737  13.477  1.00  0.00     0.128 C 
BRANCH   5   6
HETATM    6  C11 UNL     1      14.367  20.488  13.487  1.00  0.00     0.064 C 
BRANCH   6   7
HETATM    7  C10 UNL     1      13.124  20.556  14.317  1.00  0.00     0.060 C 
BRANCH   7   8
HETATM    8  N2  UNL     1      11.938  20.306  13.601  1.00  0.00    -0.391 N 
HETATM    9  C9  UNL     1      11.657  18.983  13.190  1.00  0.00     0.143 C 
HETATM   10  C8  UNL     1      10.502  18.363  13.964  1.00  0.00     0.168 C 
HETATM   11  N1  UNL     1      10.740  18.522  15.397  1.00  0.00    -0.255 N 
HETATM   12  C7  UNL     1      10.852  17.322  16.095  1.00  0.00     0.377 C 
HETATM   13  N6  UNL     1      10.856  19.710  16.087  1.00  0.00    -0.227 NA
HETATM   14  O2  UNL     1      10.690  16.220  15.470  1.00  0.00    -0.237 OA
HETATM   15  C30 UNL     1      10.261  20.822  15.351  1.00  0.00     0.133 C 
HETATM   16  C31 UNL     1      10.141  19.662  17.345  1.00  0.00     0.136 C 
HETATM   17  C29 UNL     1      10.810  21.071  14.005  1.00  0.00     0.138 C 
BRANCH  12  18
HETATM   18  O1  UNL     1      11.134  17.282  17.429  1.00  0.00    -0.303 OA
BRANCH  18  19
HETATM   19  C6  UNL     1      12.288  16.784  17.997  1.00  0.00     0.180 C 
BRANCH  19  20
HETATM   20  C5  UNL     1      12.414  17.174  19.427  1.00  0.00     0.027 C 
BRANCH  20  21
HETATM   21  C4  UNL     1      13.686  17.994  19.631  1.00  0.00     0.002 C 
BRANCH  21  22
HETATM   22  C3  UNL     1      14.465  18.142  18.365  1.00  0.00    -0.000 C 
BRANCH  22  23
HETATM   23  C2  UNL     1      14.983  19.521  18.111  1.00  0.00    -0.005 C 
HETATM   24  C1  UNL     1      13.788  20.476  18.184  1.00  0.00     0.005 C 
ENDBRANCH  22  23
ENDBRANCH  21  22
ENDBRANCH  20  21
ENDBRANCH  19  20
ENDBRANCH  18  19
ENDBRANCH  12  18
ENDBRANCH   7   8
ENDBRANCH   6   7
ENDBRANCH   5   6
ENDBRANCH   1   5
BRANCH   3  25
HETATM   25  C14 UNL     1      15.702  23.412  16.930  1.00  0.00     0.235 C 
BRANCH  25  26
HETATM   26  N4  UNL     1      16.924  24.076  17.336  1.00  0.00    -0.307 N 
HETATM   27  C15 UNL     1      17.519  24.959  16.496  1.00  0.00     0.022 A 
HETATM   28  C16 UNL     1      18.663  25.642  16.799  1.00  0.00    -0.022 A 
HETATM   29  C28 UNL     1      17.104  25.372  15.106  1.00  0.00     0.058 C 
HETATM   30  C17 UNL     1      19.266  25.436  18.025  1.00  0.00     0.007 A 
HETATM   31  C26 UNL     1      19.080  26.542  15.689  1.00  0.00     0.042 C 
HETATM   32  C18 UNL     1      20.392  25.937  18.654  1.00  0.00     0.046 A 
HETATM   33  C24 UNL     1      18.688  24.545  18.901  1.00  0.00     0.112 A 
HETATM   34  C19 UNL     1      20.490  25.352  19.893  1.00  0.00     0.068 A 
HETATM   35  N5  UNL     1      19.450  24.516  20.018  1.00  0.00    -0.349 N 
ATOM     36  H5  UNL     1      19.260  23.941  20.839  1.00  0.00     0.166 HD
HETATM   37  C25 UNL     1      17.525  23.892  18.520  1.00  0.00     0.276 A 
HETATM   38  O5  UNL     1      17.000  23.081  19.321  1.00  0.00    -0.265 OA
HETATM   39  C27 UNL     1      18.405  25.870  14.505  1.00  0.00     0.011 C 
BRANCH  34  40
HETATM   40  C20 UNL     1      21.544  25.607  20.891  1.00  0.00     0.101 A 
HETATM   41  C21 UNL     1      22.557  24.711  21.215  1.00  0.00     0.041 A 
HETATM   42  C22 UNL     1      23.344  25.301  22.181  1.00  0.00     0.027 A 
HETATM   43  C23 UNL     1      22.772  26.533  22.401  1.00  0.00     0.142 A 
HETATM   44  O4  UNL     1      21.727  26.667  21.628  1.00  0.00    -0.321 OA
ENDBRANCH  34  40
ENDBRANCH  25  26
ENDBRANCH   3  25
TORSDOF 13
ENDMDL
MODEL 5
REMARK VINA RESULT: -8.820152796      1.993      4.098
REMARK  13 active torsions:
REMARK  status: ('A' for Active; 'I' for Inactive)
REMARK    1  A    between atoms: C2_2  and  C3_3 
REMARK    2  A    between atoms: C3_3  and  C4_4 
REMARK    3  A    between atoms: C4_4  and  C5_5 
REMARK    4  A    between atoms: C5_5  and  C6_6 
REMARK    5  A    between atoms: C6_6  and  O1_7 
REMARK    6  A    between atoms: O1_7  and  C7_8 
REMARK       I    between atoms: C7_8  and  N1_10 
REMARK    7  A    between atoms: N2_13  and  C10_14 
REMARK    8  A    between atoms: C10_14  and  C11_15 
REMARK    9  A    between atoms: C11_15  and  C12_16 
REMARK   10  A    between atoms: C12_16  and  N3_17 
REMARK       I    between atoms: N3_17  and  C13_19 
REMARK   11  A    between atoms: C13_19  and  C14_21 
REMARK   12  A    between atoms: C14_21  and  N4_22 
REMARK   13  A    between atoms: C19_27  and  C20_28 
ROOT
HETATM    1  N3  UNL     1      15.614  20.871  18.682  1.00  0.00    -0.359 N 
ATOM      2  H3  UNL     1      14.856  21.356  19.162  1.00  0.00     0.162 HD
HETATM    3  C13 UNL     1      16.904  21.442  18.746  1.00  0.00     0.235 C 
HETATM    4  O3  UNL     1      17.875  20.891  18.182  1.00  0.00    -0.272 OA
ENDROOT
BRANCH   1   5
HETATM    5  C12 UNL     1      15.294  19.649  17.983  1.00  0.00     0.128 C 
BRANCH   5   6
HETATM    6  C11 UNL     1      14.014  19.690  17.213  1.00  0.00     0.064 C 
BRANCH   6   7
HETATM    7  C10 UNL     1      13.582  21.056  16.779  1.00  0.00     0.060 C 
BRANCH   7   8
HETATM    8  N2  UNL     1      13.710  21.288  15.397  1.00  0.00    -0.391 N 
HETATM    9  C9  UNL     1      13.882  20.183  14.533  1.00  0.00     0.143 C 
HETATM   10  C8  UNL     1      12.654  19.915  13.673  1.00  0.00     0.168 C 
HETATM   11  N1  UNL     1      11.472  19.846  14.528  1.00  0.00    -0.255 N 
HETATM   12  C7  UNL     1      10.817  18.617  14.501  1.00  0.00     0.377 C 
HETATM   13  N6  UNL     1      10.969  20.855  15.322  1.00  0.00    -0.227 NA
HETATM   14  O2  UNL     1      11.246  17.700  13.724  1.00  0.00    -0.237 OA
HETATM   15  C30 UNL     1      11.447  22.167  14.897  1.00  0.00     0.133 C 
HETATM   16  C31 UNL     1       9.526  20.929  15.231  1.00  0.00     0.136 C 
HETATM   17  C29 UNL     1      12.911  22.345  14.881  1.00  0.00     0.138 C 
BRANCH  12  18
HETATM   18  O1  UNL     1       9.730  18.357  15.281  1.00  0.00    -0.303 OA
BRANCH  18  19
HETATM   19  C6  UNL     1       9.682  17.461  16.329  1.00  0.00     0.180 C 
BRANCH  19  20
HETATM   20  C5  UNL     1      10.500  17.915  17.485  1.00  0.00     0.027 C 
BRANCH  20  21
HETATM   21  C4  UNL     1      11.556  16.863  17.819  1.00  0.00     0.002 C 
BRANCH  21  22
HETATM   22  C3  UNL     1      12.120  17.055  19.190  1.00  0.00    -0.000 C 
BRANCH  22  23
HETATM   23  C2  UNL     1      11.605  18.259  19.911  1.00  0.00    -0.005 C 
HETATM   24  C1  UNL     1      12.775  18.847  20.706  1.00  0.00     0.005 C 
ENDBRANCH  22  23
ENDBRANCH  21  22
ENDBRANCH  20  21
ENDBRANCH  19  20
ENDBRANCH  18  19
ENDBRANCH  12  18
ENDBRANCH   7   8
ENDBRANCH   6   7
ENDBRANCH   5   6
ENDBRANCH   1   5
BRANCH   3  25
HETATM   25  C14 UNL     1      17.136  22.708  19.481  1.00  0.00     0.235 C 
BRANCH  25  26
HETATM   26  N4  UNL     1      17.866  23.667  18.677  1.00  0.00    -0.307 N 
HETATM   27  C15 UNL     1      17.265  24.238  17.604  1.00  0.00     0.022 A 
HETATM   28  C16 UNL     1      17.868  25.163  16.799  1.00  0.00    -0.022 A 
HETATM   29  C28 UNL     1      15.879  24.004  17.058  1.00  0.00     0.058 C 
HETATM   30  C17 UNL     1      19.166  25.552  17.074  1.00  0.00     0.007 A 
HETATM   31  C26 UNL     1      16.967  25.615  15.704  1.00  0.00     0.042 C 
HETATM   32  C18 UNL     1      20.061  26.435  16.498  1.00  0.00     0.046 A 
HETATM   33  C24 UNL     1      19.805  24.990  18.157  1.00  0.00     0.112 A 
HETATM   34  C19 UNL     1      21.227  26.402  17.225  1.00  0.00     0.068 A 
HETATM   35  N5  UNL     1      21.046  25.524  18.221  1.00  0.00    -0.349 N 
ATOM     36  H5  UNL     1      21.745  25.290  18.927  1.00  0.00     0.166 HD
HETATM   37  C25 UNL     1      19.123  24.060  18.927  1.00  0.00     0.276 A 
HETATM   38  O5  UNL     1      19.708  23.551  19.914  1.00  0.00    -0.265 OA
HETATM   39  C27 UNL     1      16.015  24.434  15.609  1.00  0.00     0.011 C 
BRANCH  34  40
HETATM   40  C20 UNL     1      22.439  27.195  16.955  1.00  0.00     0.101 A 
HETATM   41  C21 UNL     1      23.685  26.949  17.524  1.00  0.00     0.041 A 
HETATM   42  C22 UNL     1      24.562  27.891  17.031  1.00  0.00     0.027 A 
HETATM   43  C23 UNL     1      23.808  28.669  16.183  1.00  0.00     0.142 A 
HETATM   44  O4  UNL     1      22.579  28.226  16.170  1.00  0.00    -0.321 OA
ENDBRANCH  34  40
ENDBRANCH  25  26
ENDBRANCH   3  25
TORSDOF 13
ENDMDL
