MODEL 1
REMARK VINA RESULT: -9.255356387      0.000      0.000
REMARK  16 active torsions:
REMARK  status: ('A' for Active; 'I' for Inactive)
REMARK    1  A    between atoms: O1_2  and  C2_3 
REMARK    2  A    between atoms: C2_3  and  C3_5 
REMARK    3  A    between atoms: C3_5  and  N1_6 
REMARK    4  A    between atoms: C4_7  and  N2_8 
REMARK    5  A    between atoms: N2_8  and  N3_10 
REMARK    6  A    between atoms: N3_10  and  C5_11 
REMARK    7  A    between atoms: C5_11  and  C6_12 
REMARK    8  A    between atoms: C8_14  and  O3_15 
REMARK    9  A    between atoms: C9_17  and  O4_18 
REMARK   10  A    between atoms: C10_20  and  O5_21 
REMARK   11  A    between atoms: C15_30  and  N6_31 
REMARK       I    between atoms: N7_33  and  C16_35 
REMARK   12  A    between atoms: C16_35  and  C17_37 
REMARK   13  A    between atoms: C17_37  and  O7_38 
REMARK   14  A    between atoms: C17_37  and  C18_40 
REMARK   15  A    between atoms: C18_40  and  N8_41 
REMARK   16  A    between atoms: C20_46  and  N9_47 
ROOT
HETATM    1  N1  UNL     1      -2.083   9.875  53.519  1.00  0.00    -0.156 N 
HETATM    2  C4  UNL     1      -2.447  10.424  52.352  1.00  0.00     0.713 A 
HETATM    3  N4  UNL     1      -2.923   9.560  51.373  1.00  0.00    -0.173 N 
ATOM      4  H4  UNL     1      -3.211   9.929  50.467  1.00  0.00     0.186 HD
HETATM    5  C13 UNL     1      -3.007   8.256  51.610  1.00  0.00     0.137 A 
HETATM    6  N5  UNL     1      -3.428   7.213  50.844  1.00  0.00    -0.349 N 
ATOM      7  H5  UNL     1      -3.774   7.284  49.887  1.00  0.00     0.167 HD
HETATM    8  C14 UNL     1      -3.315   6.074  51.552  1.00  0.00     0.121 A 
HETATM    9  C15 UNL     1      -2.814   6.350  52.804  1.00  0.00     0.081 A 
HETATM   10  C19 UNL     1      -2.631   7.711  52.817  1.00  0.00     0.082 A 
HETATM   11  C20 UNL     1      -2.147   8.563  53.815  1.00  0.00     0.134 A 
ENDROOT
BRANCH   2  12
HETATM   12  N2  UNL     1      -2.446  11.631  52.047  1.00  0.00    -0.065 N 
ATOM     13  H2  UNL     1      -1.692  12.084  52.564  1.00  0.00     0.221 HD
BRANCH  12  14
HETATM   14  N3  UNL     1      -3.008  12.500  51.354  1.00  0.00    -0.323 NA
BRANCH  14  15
HETATM   15  C5  UNL     1      -3.171  13.364  50.517  1.00  0.00     0.221 C 
BRANCH  15  16
HETATM   16  C6  UNL     1      -3.850  13.085  49.233  1.00  0.00     0.000 A 
HETATM   17  C7  UNL     1      -4.237  14.126  48.425  1.00  0.00     0.053 A 
HETATM   18  C8  UNL     1      -4.863  13.879  47.214  1.00  0.00     0.102 A 
HETATM   19  C9  UNL     1      -5.118  12.597  46.771  1.00  0.00     0.132 A 
HETATM   20  C10 UNL     1      -4.708  11.566  47.620  1.00  0.00     0.104 A 
HETATM   21  C12 UNL     1      -4.085  11.805  48.829  1.00  0.00     0.053 A 
BRANCH  18  22
HETATM   22  O3  UNL     1      -5.235  14.966  46.439  1.00  0.00    -0.358 OA
ATOM     23  H3  UNL     1      -6.027  14.894  45.919  1.00  0.00     0.217 HD
ENDBRANCH  18  22
BRANCH  19  24
HETATM   24  O4  UNL     1      -5.736  12.292  45.572  1.00  0.00    -0.356 OA
ATOM     25  H4  UNL     1      -5.832  11.413  45.224  1.00  0.00     0.218 HD
ENDBRANCH  19  24
BRANCH  20  26
HETATM   26  O5  UNL     1      -4.940  10.263  47.223  1.00  0.00    -0.353 OA
HETATM   27  C11 UNL     1      -4.394   9.189  47.960  1.00  0.00     0.210 C 
ENDBRANCH  20  26
ENDBRANCH  15  16
ENDBRANCH  14  15
ENDBRANCH  12  14
ENDBRANCH   2  12
BRANCH   1  28
HETATM   28  C3  UNL     1      -1.537  10.723  54.555  1.00  0.00     0.260 C 
BRANCH  28  29
HETATM   29  C2  UNL     1      -2.413  10.840  55.733  1.00  0.00     0.277 C 
HETATM   30  O2  UNL     1      -3.534  11.408  55.681  1.00  0.00    -0.263 OA
BRANCH  29  31
HETATM   31  O1  UNL     1      -1.974  10.305  56.931  1.00  0.00    -0.325 OA
HETATM   32  C1  UNL     1      -2.783   9.652  57.859  1.00  0.00     0.213 C 
ENDBRANCH  29  31
ENDBRANCH  28  29
ENDBRANCH   1  28
BRANCH  11  33
HETATM   33  N9  UNL     1      -1.838   8.019  54.926  1.00  0.00    -0.384 N 
ATOM     34  H92 UNL     1      -1.602   8.650  55.691  1.00  0.00     0.157 HD
ATOM     35  H91 UNL     1      -1.783   7.019  55.118  1.00  0.00     0.157 HD
ENDBRANCH  11  33
BRANCH   9  36
HETATM   36  N6  UNL     1      -2.538   5.453  53.858  1.00  0.00    -0.296 N 
HETATM   37  N7  UNL     1      -2.594   4.188  53.783  1.00  0.00    -0.267 N 
HETATM   38  C16 UNL     1      -2.958   3.516  52.584  1.00  0.00     0.266 C 
ATOM     39  H7  UNL     1      -2.371   3.634  54.610  1.00  0.00     0.190 HD
HETATM   40  O6  UNL     1      -4.049   3.854  52.047  1.00  0.00    -0.269 OA
ATOM     41  H6  UNL     1      -2.271   5.856  54.756  1.00  0.00     0.187 HD
BRANCH  38  42
HETATM   42  C17 UNL     1      -2.148   2.472  51.953  1.00  0.00     0.237 C 
BRANCH  42  43
HETATM   43  O7  UNL     1      -2.878   1.368  51.594  1.00  0.00    -0.384 OA
ATOM     44  H7  UNL     1      -2.339   0.643  51.301  1.00  0.00     0.210 HD
ENDBRANCH  42  43
BRANCH  42  45
HETATM   45  C18 UNL     1      -1.379   2.960  50.763  1.00  0.00     0.271 C 
BRANCH  45  46
HETATM   46  N8  UNL     1      -1.018   1.848  49.897  1.00  0.00    -0.076 N 
ATOM     47  H83 UNL     1      -0.024   1.853  49.669  1.00  0.00     0.274 HD
ATOM     48  H82 UNL     1      -1.056   0.956  50.390  1.00  0.00     0.274 HD
ATOM     49  H81 UNL     1      -1.599   1.843  49.059  1.00  0.00     0.274 HD
ENDBRANCH  45  46
ENDBRANCH  42  45
ENDBRANCH  38  42
ENDBRANCH   9  36
TORSDOF 16
ENDMDL
MODEL 2
REMARK VINA RESULT: -9.017109435      0.469      1.842
REMARK  16 active torsions:
REMARK  status: ('A' for Active; 'I' for Inactive)
REMARK    1  A    between atoms: O1_2  and  C2_3 
REMARK    2  A    between atoms: C2_3  and  C3_5 
REMARK    3  A    between atoms: C3_5  and  N1_6 
REMARK    4  A    between atoms: C4_7  and  N2_8 
REMARK    5  A    between atoms: N2_8  and  N3_10 
REMARK    6  A    between atoms: N3_10  and  C5_11 
REMARK    7  A    between atoms: C5_11  and  C6_12 
REMARK    8  A    between atoms: C8_14  and  O3_15 
REMARK    9  A    between atoms: C9_17  and  O4_18 
REMARK   10  A    between atoms: C10_20  and  O5_21 
REMARK   11  A    between atoms: C15_30  and  N6_31 
REMARK       I    between atoms: N7_33  and  C16_35 
REMARK   12  A    between atoms: C16_35  and  C17_37 
REMARK   13  A    between atoms: C17_37  and  O7_38 
REMARK   14  A    between atoms: C17_37  and  C18_40 
REMARK   15  A    between atoms: C18_40  and  N8_41 
REMARK   16  A    between atoms: C20_46  and  N9_47 
ROOT
HETATM    1  N1  UNL     1      -2.081   9.859  53.517  1.00  0.00    -0.156 N 
HETATM    2  C4  UNL     1      -2.438  10.402  52.346  1.00  0.00     0.713 A 
HETATM    3  N4  UNL     1      -2.913   9.534  51.370  1.00  0.00    -0.173 N 
ATOM      4  H4  UNL     1      -3.196   9.899  50.461  1.00  0.00     0.186 HD
HETATM    5  C13 UNL     1      -3.002   8.232  51.614  1.00  0.00     0.137 A 
HETATM    6  N5  UNL     1      -3.423   7.186  50.852  1.00  0.00    -0.349 N 
ATOM      7  H5  UNL     1      -3.764   7.252  49.893  1.00  0.00     0.167 HD
HETATM    8  C14 UNL     1      -3.316   6.050  51.567  1.00  0.00     0.121 A 
HETATM    9  C15 UNL     1      -2.820   6.332  52.820  1.00  0.00     0.081 A 
HETATM   10  C19 UNL     1      -2.633   7.692  52.825  1.00  0.00     0.082 A 
HETATM   11  C20 UNL     1      -2.151   8.548  53.821  1.00  0.00     0.134 A 
ENDROOT
BRANCH   2  12
HETATM   12  N2  UNL     1      -2.432  11.607  52.034  1.00  0.00    -0.065 N 
ATOM     13  H2  UNL     1      -2.040  12.131  52.817  1.00  0.00     0.221 HD
BRANCH  12  14
HETATM   14  N3  UNL     1      -2.719  12.422  51.136  1.00  0.00    -0.323 NA
BRANCH  14  15
HETATM   15  C5  UNL     1      -3.262  13.341  50.560  1.00  0.00     0.221 C 
BRANCH  15  16
HETATM   16  C6  UNL     1      -3.861  13.173  49.218  1.00  0.00     0.000 A 
HETATM   17  C7  UNL     1      -4.169  11.915  48.760  1.00  0.00     0.053 A 
HETATM   18  C8  UNL     1      -4.742  11.745  47.510  1.00  0.00     0.102 A 
HETATM   19  C9  UNL     1      -5.027  12.813  46.684  1.00  0.00     0.132 A 
HETATM   20  C10 UNL     1      -4.700  14.075  47.187  1.00  0.00     0.104 A 
HETATM   21  C12 UNL     1      -4.128  14.252  48.430  1.00  0.00     0.053 A 
BRANCH  18  22
HETATM   22  O3  UNL     1      -5.030  10.454  47.095  1.00  0.00    -0.358 OA
ATOM     23  H3  UNL     1      -5.658  10.340  46.391  1.00  0.00     0.217 HD
ENDBRANCH  18  22
BRANCH  19  24
HETATM   24  O4  UNL     1      -5.599  12.703  45.430  1.00  0.00    -0.356 OA
ATOM     25  H4  UNL     1      -6.075  13.399  44.993  1.00  0.00     0.218 HD
ENDBRANCH  19  24
BRANCH  20  26
HETATM   26  O5  UNL     1      -4.965  15.179  46.399  1.00  0.00    -0.353 OA
HETATM   27  C11 UNL     1      -4.271  16.390  46.617  1.00  0.00     0.210 C 
ENDBRANCH  20  26
ENDBRANCH  15  16
ENDBRANCH  14  15
ENDBRANCH  12  14
ENDBRANCH   2  12
BRANCH   1  28
HETATM   28  C3  UNL     1      -1.537  10.710  54.552  1.00  0.00     0.260 C 
BRANCH  28  29
HETATM   29  C2  UNL     1      -2.415  10.833  55.727  1.00  0.00     0.277 C 
HETATM   30  O2  UNL     1      -3.537  11.398  55.670  1.00  0.00    -0.263 OA
BRANCH  29  31
HETATM   31  O1  UNL     1      -1.978  10.305  56.929  1.00  0.00    -0.325 OA
HETATM   32  C1  UNL     1      -2.793   9.685  57.874  1.00  0.00     0.213 C 
ENDBRANCH  29  31
ENDBRANCH  28  29
ENDBRANCH   1  28
BRANCH  11  33
HETATM   33  N9  UNL     1      -1.849   8.010  54.936  1.00  0.00    -0.384 N 
ATOM     34  H92 UNL     1      -2.079   8.541  55.775  1.00  0.00     0.157 HD
ATOM     35  H91 UNL     1      -1.380   7.114  55.071  1.00  0.00     0.157 HD
ENDBRANCH  11  33
BRANCH   9  36
HETATM   36  N6  UNL     1      -2.552   5.440  53.879  1.00  0.00    -0.296 N 
HETATM   37  N7  UNL     1      -2.606   4.174  53.810  1.00  0.00    -0.267 N 
HETATM   38  C16 UNL     1      -2.958   3.497  52.611  1.00  0.00     0.266 C 
ATOM     39  H7  UNL     1      -2.389   3.625  54.641  1.00  0.00     0.190 HD
HETATM   40  O6  UNL     1      -4.045   3.830  52.064  1.00  0.00    -0.269 OA
ATOM     41  H6  UNL     1      -2.292   5.847  54.778  1.00  0.00     0.187 HD
BRANCH  38  42
HETATM   42  C17 UNL     1      -2.142   2.451  51.991  1.00  0.00     0.237 C 
BRANCH  42  43
HETATM   43  O7  UNL     1      -2.870   1.351  51.615  1.00  0.00    -0.384 OA
ATOM     44  H7  UNL     1      -3.086   0.780  52.342  1.00  0.00     0.210 HD
ENDBRANCH  42  43
BRANCH  42  45
HETATM   45  C18 UNL     1      -1.349   2.939  50.817  1.00  0.00     0.271 C 
BRANCH  45  46
HETATM   46  N8  UNL     1      -1.304   1.926  49.774  1.00  0.00    -0.076 N 
ATOM     47  H83 UNL     1      -0.650   1.178  50.001  1.00  0.00     0.274 HD
ATOM     48  H82 UNL     1      -2.162   1.375  49.743  1.00  0.00     0.274 HD
ATOM     49  H81 UNL     1      -1.095   2.352  48.871  1.00  0.00     0.274 HD
ENDBRANCH  45  46
ENDBRANCH  42  45
ENDBRANCH  38  42
ENDBRANCH   9  36
TORSDOF 16
ENDMDL
MODEL 3
REMARK VINA RESULT: -8.601811564      2.437      4.161
REMARK  16 active torsions:
REMARK  status: ('A' for Active; 'I' for Inactive)
REMARK    1  A    between atoms: O1_2  and  C2_3 
REMARK    2  A    between atoms: C2_3  and  C3_5 
REMARK    3  A    between atoms: C3_5  and  N1_6 
REMARK    4  A    between atoms: C4_7  and  N2_8 
REMARK    5  A    between atoms: N2_8  and  N3_10 
REMARK    6  A    between atoms: N3_10  and  C5_11 
REMARK    7  A    between atoms: C5_11  and  C6_12 
REMARK    8  A    between atoms: C8_14  and  O3_15 
REMARK    9  A    between atoms: C9_17  and  O4_18 
REMARK   10  A    between atoms: C10_20  and  O5_21 
REMARK   11  A    between atoms: C15_30  and  N6_31 
REMARK       I    between atoms: N7_33  and  C16_35 
REMARK   12  A    between atoms: C16_35  and  C17_37 
REMARK   13  A    between atoms: C17_37  and  O7_38 
REMARK   14  A    between atoms: C17_37  and  C18_40 
REMARK   15  A    between atoms: C18_40  and  N8_41 
REMARK   16  A    between atoms: C20_46  and  N9_47 
ROOT
HETATM    1  N1  UNL     1      -2.758   8.636  51.216  1.00  0.00    -0.156 N 
HETATM    2  C4  UNL     1      -3.781   8.127  50.517  1.00  0.00     0.713 A 
HETATM    3  N4  UNL     1      -4.103   6.796  50.755  1.00  0.00    -0.173 N 
ATOM      4  H4  UNL     1      -4.873   6.362  50.246  1.00  0.00     0.186 HD
HETATM    5  C13 UNL     1      -3.415   6.086  51.642  1.00  0.00     0.137 A 
HETATM    6  N5  UNL     1      -3.519   4.795  52.057  1.00  0.00    -0.349 N 
ATOM      7  H5  UNL     1      -4.204   4.117  51.719  1.00  0.00     0.167 HD
HETATM    8  C14 UNL     1      -2.575   4.553  52.986  1.00  0.00     0.121 A 
HETATM    9  C15 UNL     1      -1.828   5.690  53.198  1.00  0.00     0.081 A 
HETATM   10  C19 UNL     1      -2.369   6.628  52.353  1.00  0.00     0.082 A 
HETATM   11  C20 UNL     1      -2.027   7.966  52.127  1.00  0.00     0.134 A 
ENDROOT
BRANCH   2  12
HETATM   12  N2  UNL     1      -4.510   8.716  49.698  1.00  0.00    -0.065 N 
ATOM     13  H2  UNL     1      -5.343   9.035  50.194  1.00  0.00     0.221 HD
BRANCH  12  14
HETATM   14  N3  UNL     1      -4.618   9.069  48.508  1.00  0.00    -0.323 NA
BRANCH  14  15
HETATM   15  C5  UNL     1      -4.441   9.690  47.482  1.00  0.00     0.221 C 
BRANCH  15  16
HETATM   16  C6  UNL     1      -4.626  11.156  47.417  1.00  0.00     0.000 A 
HETATM   17  C7  UNL     1      -4.215  11.943  48.465  1.00  0.00     0.053 A 
HETATM   18  C8  UNL     1      -4.371  13.319  48.413  1.00  0.00     0.102 A 
HETATM   19  C9  UNL     1      -4.936  13.950  47.323  1.00  0.00     0.132 A 
HETATM   20  C10 UNL     1      -5.340  13.114  46.278  1.00  0.00     0.104 A 
HETATM   21  C12 UNL     1      -5.188  11.744  46.324  1.00  0.00     0.053 A 
BRANCH  18  22
HETATM   22  O3  UNL     1      -3.941  14.066  49.498  1.00  0.00    -0.358 OA
ATOM     23  H3  UNL     1      -4.335  13.891  50.345  1.00  0.00     0.217 HD
ENDBRANCH  18  22
BRANCH  19  24
HETATM   24  O4  UNL     1      -5.114  15.317  47.215  1.00  0.00    -0.356 OA
ATOM     25  H4  UNL     1      -4.604  15.883  46.648  1.00  0.00     0.218 HD
ENDBRANCH  19  24
BRANCH  20  26
HETATM   26  O5  UNL     1      -5.911  13.696  45.162  1.00  0.00    -0.353 OA
HETATM   27  C11 UNL     1      -6.932  13.023  44.455  1.00  0.00     0.210 C 
ENDBRANCH  20  26
ENDBRANCH  15  16
ENDBRANCH  14  15
ENDBRANCH  12  14
ENDBRANCH   2  12
BRANCH   1  28
HETATM   28  C3  UNL     1      -2.350  10.003  50.974  1.00  0.00     0.260 C 
BRANCH  28  29
HETATM   29  C2  UNL     1      -2.905  10.957  51.948  1.00  0.00     0.277 C 
HETATM   30  O2  UNL     1      -2.946  12.195  51.725  1.00  0.00    -0.263 OA
BRANCH  29  31
HETATM   31  O1  UNL     1      -3.394  10.463  53.144  1.00  0.00    -0.325 OA
HETATM   32  C1  UNL     1      -2.894  10.781  54.405  1.00  0.00     0.213 C 
ENDBRANCH  29  31
ENDBRANCH  28  29
ENDBRANCH   1  28
BRANCH  11  33
HETATM   33  N9  UNL     1      -1.071   8.434  52.828  1.00  0.00    -0.384 N 
ATOM     34  H92 UNL     1      -1.327   8.864  53.717  1.00  0.00     0.157 HD
ATOM     35  H91 UNL     1      -0.082   8.442  52.579  1.00  0.00     0.157 HD
ENDBRANCH  11  33
BRANCH   9  36
HETATM   36  N6  UNL     1      -0.743   5.876  54.080  1.00  0.00    -0.296 N 
HETATM   37  N7  UNL     1      -0.832   6.233  55.294  1.00  0.00    -0.267 N 
HETATM   38  C16 UNL     1      -2.083   6.496  55.916  1.00  0.00     0.266 C 
ATOM     39  H7  UNL     1       0.022   6.335  55.842  1.00  0.00     0.190 HD
HETATM   40  O6  UNL     1      -2.841   7.329  55.347  1.00  0.00    -0.269 OA
ATOM     41  H6  UNL     1       0.193   5.710  53.710  1.00  0.00     0.187 HD
BRANCH  38  42
HETATM   42  C17 UNL     1      -2.529   5.863  57.159  1.00  0.00     0.237 C 
BRANCH  42  43
HETATM   43  O7  UNL     1      -2.061   4.583  57.309  1.00  0.00    -0.384 OA
ATOM     44  H7  UNL     1      -2.734   3.969  57.578  1.00  0.00     0.210 HD
ENDBRANCH  42  43
BRANCH  42  45
HETATM   45  C18 UNL     1      -2.186   6.658  58.381  1.00  0.00     0.271 C 
BRANCH  45  46
HETATM   46  N8  UNL     1      -2.784   7.983  58.314  1.00  0.00    -0.076 N 
ATOM     47  H83 UNL     1      -3.371   8.175  59.125  1.00  0.00     0.274 HD
ATOM     48  H82 UNL     1      -2.091   8.719  58.451  1.00  0.00     0.274 HD
ATOM     49  H81 UNL     1      -3.294   8.101  57.439  1.00  0.00     0.274 HD
ENDBRANCH  45  46
ENDBRANCH  42  45
ENDBRANCH  38  42
ENDBRANCH   9  36
TORSDOF 16
ENDMDL
MODEL 4
REMARK VINA RESULT: -8.384493176      2.518      4.908
REMARK  16 active torsions:
REMARK  status: ('A' for Active; 'I' for Inactive)
REMARK    1  A    between atoms: O1_2  and  C2_3 
REMARK    2  A    between atoms: C2_3  and  C3_5 
REMARK    3  A    between atoms: C3_5  and  N1_6 
REMARK    4  A    between atoms: C4_7  and  N2_8 
REMARK    5  A    between atoms: N2_8  and  N3_10 
REMARK    6  A    between atoms: N3_10  and  C5_11 
REMARK    7  A    between atoms: C5_11  and  C6_12 
REMARK    8  A    between atoms: C8_14  and  O3_15 
REMARK    9  A    between atoms: C9_17  and  O4_18 
REMARK   10  A    between atoms: C10_20  and  O5_21 
REMARK   11  A    between atoms: C15_30  and  N6_31 
REMARK       I    between atoms: N7_33  and  C16_35 
REMARK   12  A    between atoms: C16_35  and  C17_37 
REMARK   13  A    between atoms: C17_37  and  O7_38 
REMARK   14  A    between atoms: C17_37  and  C18_40 
REMARK   15  A    between atoms: C18_40  and  N8_41 
REMARK   16  A    between atoms: C20_46  and  N9_47 
ROOT
HETATM    1  N1  UNL     1      -1.924   9.426  53.695  1.00  0.00    -0.156 N 
HETATM    2  C4  UNL     1      -2.876  10.263  53.261  1.00  0.00     0.713 A 
HETATM    3  N4  UNL     1      -3.533  11.021  54.223  1.00  0.00    -0.173 N 
ATOM      4  H4  UNL     1      -4.266  11.671  53.942  1.00  0.00     0.186 HD
HETATM    5  C13 UNL     1      -3.211  10.903  55.506  1.00  0.00     0.137 A 
HETATM    6  N5  UNL     1      -3.686  11.512  56.627  1.00  0.00    -0.349 N 
ATOM      7  H5  UNL     1      -4.427  12.213  56.650  1.00  0.00     0.167 HD
HETATM    8  C14 UNL     1      -3.022  11.041  57.698  1.00  0.00     0.121 A 
HETATM    9  C15 UNL     1      -2.093  10.107  57.298  1.00  0.00     0.081 A 
HETATM   10  C19 UNL     1      -2.229  10.040  55.933  1.00  0.00     0.082 A 
HETATM   11  C20 UNL     1      -1.556   9.267  54.981  1.00  0.00     0.134 A 
ENDROOT
BRANCH   2  12
HETATM   12  N2  UNL     1      -3.221  10.475  52.084  1.00  0.00    -0.065 N 
ATOM     13  H2  UNL     1      -3.739   9.659  51.758  1.00  0.00     0.221 HD
BRANCH  12  14
HETATM   14  N3  UNL     1      -3.180  11.299  51.150  1.00  0.00    -0.323 NA
BRANCH  14  15
HETATM   15  C5  UNL     1      -2.868  12.277  50.504  1.00  0.00     0.221 C 
BRANCH  15  16
HETATM   16  C6  UNL     1      -3.647  12.712  49.325  1.00  0.00     0.000 A 
HETATM   17  C7  UNL     1      -4.230  11.775  48.507  1.00  0.00     0.053 A 
HETATM   18  C8  UNL     1      -4.973  12.169  47.406  1.00  0.00     0.102 A 
HETATM   19  C9  UNL     1      -5.158  13.499  47.087  1.00  0.00     0.132 A 
HETATM   20  C10 UNL     1      -4.550  14.421  47.943  1.00  0.00     0.104 A 
HETATM   21  C12 UNL     1      -3.808  14.035  49.041  1.00  0.00     0.053 A 
BRANCH  18  22
HETATM   22  O3  UNL     1      -5.538  11.183  46.614  1.00  0.00    -0.358 OA
ATOM     23  H3  UNL     1      -5.887  11.435  45.767  1.00  0.00     0.217 HD
ENDBRANCH  18  22
BRANCH  19  24
HETATM   24  O4  UNL     1      -5.890  13.950  46.004  1.00  0.00    -0.356 OA
ATOM     25  H4  UNL     1      -5.547  14.511  45.318  1.00  0.00     0.218 HD
ENDBRANCH  19  24
BRANCH  20  26
HETATM   26  O5  UNL     1      -4.705  15.766  47.668  1.00  0.00    -0.353 OA
HETATM   27  C11 UNL     1      -4.895  16.689  48.721  1.00  0.00     0.210 C 
ENDBRANCH  20  26
ENDBRANCH  15  16
ENDBRANCH  14  15
ENDBRANCH  12  14
ENDBRANCH   2  12
BRANCH   1  28
HETATM   28  C3  UNL     1      -1.241   8.580  52.742  1.00  0.00     0.260 C 
BRANCH  28  29
HETATM   29  C2  UNL     1      -2.017   7.388  52.360  1.00  0.00     0.277 C 
HETATM   30  O2  UNL     1      -2.670   7.329  51.287  1.00  0.00    -0.263 OA
BRANCH  29  31
HETATM   31  O1  UNL     1      -2.018   6.305  53.221  1.00  0.00    -0.325 OA
HETATM   32  C1  UNL     1      -2.584   5.062  52.942  1.00  0.00     0.213 C 
ENDBRANCH  29  31
ENDBRANCH  28  29
ENDBRANCH   1  28
BRANCH  11  33
HETATM   33  N9  UNL     1      -0.634   8.502  55.418  1.00  0.00    -0.384 N 
ATOM     34  H92 UNL     1      -0.078   8.858  56.195  1.00  0.00     0.157 HD
ATOM     35  H91 UNL     1      -0.383   7.583  55.053  1.00  0.00     0.157 HD
ENDBRANCH  11  33
BRANCH   9  36
HETATM   36  N6  UNL     1      -1.190   9.369  58.093  1.00  0.00    -0.296 N 
HETATM   37  N7  UNL     1      -1.370   8.182  58.503  1.00  0.00    -0.267 N 
HETATM   38  C16 UNL     1      -2.546   7.445  58.196  1.00  0.00     0.266 C 
ATOM     39  H7  UNL     1      -0.647   7.742  59.073  1.00  0.00     0.190 HD
HETATM   40  O6  UNL     1      -3.650   7.984  58.480  1.00  0.00    -0.269 OA
ATOM     41  H6  UNL     1      -0.320   9.828  58.360  1.00  0.00     0.187 HD
BRANCH  38  42
HETATM   42  C17 UNL     1      -2.541   6.116  57.579  1.00  0.00     0.237 C 
BRANCH  42  43
HETATM   43  O7  UNL     1      -2.449   6.157  56.212  1.00  0.00    -0.384 OA
ATOM     44  H7  UNL     1      -3.126   5.652  55.777  1.00  0.00     0.210 HD
ENDBRANCH  42  43
BRANCH  42  45
HETATM   45  C18 UNL     1      -1.468   5.220  58.117  1.00  0.00     0.271 C 
BRANCH  45  46
HETATM   46  N8  UNL     1      -0.669   4.671  57.032  1.00  0.00    -0.076 N 
ATOM     47  H83 UNL     1      -0.558   3.661  57.117  1.00  0.00     0.274 HD
ATOM     48  H82 UNL     1      -1.170   4.694  56.143  1.00  0.00     0.274 HD
ATOM     49  H81 UNL     1       0.230   5.149  56.972  1.00  0.00     0.274 HD
ENDBRANCH  45  46
ENDBRANCH  42  45
ENDBRANCH  38  42
ENDBRANCH   9  36
TORSDOF 16
ENDMDL
MODEL 5
REMARK VINA RESULT: -8.364333297      2.819      9.110
REMARK  16 active torsions:
REMARK  status: ('A' for Active; 'I' for Inactive)
REMARK    1  A    between atoms: O1_2  and  C2_3 
REMARK    2  A    between atoms: C2_3  and  C3_5 
REMARK    3  A    between atoms: C3_5  and  N1_6 
REMARK    4  A    between atoms: C4_7  and  N2_8 
REMARK    5  A    between atoms: N2_8  and  N3_10 
REMARK    6  A    between atoms: N3_10  and  C5_11 
REMARK    7  A    between atoms: C5_11  and  C6_12 
REMARK    8  A    between atoms: C8_14  and  O3_15 
REMARK    9  A    between atoms: C9_17  and  O4_18 
REMARK   10  A    between atoms: C10_20  and  O5_21 
REMARK   11  A    between atoms: C15_30  and  N6_31 
REMARK       I    between atoms: N7_33  and  C16_35 
REMARK   12  A    between atoms: C16_35  and  C17_37 
REMARK   13  A    between atoms: C17_37  and  O7_38 
REMARK   14  A    between atoms: C17_37  and  C18_40 
REMARK   15  A    between atoms: C18_40  and  N8_41 
REMARK   16  A    between atoms: C20_46  and  N9_47 
ROOT
HETATM    1  N1  UNL     1      -2.831   9.188  52.611  1.00  0.00    -0.156 N 
HETATM    2  C4  UNL     1      -2.569  10.194  53.456  1.00  0.00     0.713 A 
HETATM    3  N4  UNL     1      -2.632  11.482  52.938  1.00  0.00    -0.173 N 
ATOM      4  H4  UNL     1      -2.439  12.281  53.542  1.00  0.00     0.186 HD
HETATM    5  C13 UNL     1      -2.942  11.678  51.662  1.00  0.00     0.137 A 
HETATM    6  N5  UNL     1      -3.070  12.810  50.917  1.00  0.00    -0.349 N 
ATOM      7  H5  UNL     1      -2.934  13.762  51.258  1.00  0.00     0.167 HD
HETATM    8  C14 UNL     1      -3.403  12.472  49.657  1.00  0.00     0.121 A 
HETATM    9  C15 UNL     1      -3.501  11.103  49.552  1.00  0.00     0.081 A 
HETATM   10  C19 UNL     1      -3.211  10.633  50.810  1.00  0.00     0.082 A 
HETATM   11  C20 UNL     1      -3.152   9.328  51.311  1.00  0.00     0.134 A 
ENDROOT
BRANCH   2  12
HETATM   12  N2  UNL     1      -2.310  10.117  54.672  1.00  0.00    -0.065 N 
ATOM     13  H2  UNL     1      -1.298  10.032  54.772  1.00  0.00     0.221 HD
BRANCH  12  14
HETATM   14  N3  UNL     1      -2.808  10.105  55.814  1.00  0.00    -0.323 NA
BRANCH  14  15
HETATM   15  C5  UNL     1      -3.099   9.723  56.928  1.00  0.00     0.221 C 
BRANCH  15  16
HETATM   16  C6  UNL     1      -2.663   8.405  57.437  1.00  0.00     0.000 A 
HETATM   17  C7  UNL     1      -2.380   8.248  58.772  1.00  0.00     0.053 A 
HETATM   18  C8  UNL     1      -1.983   7.016  59.265  1.00  0.00     0.102 A 
HETATM   19  C9  UNL     1      -1.857   5.908  58.451  1.00  0.00     0.132 A 
HETATM   20  C10 UNL     1      -2.155   6.109  57.101  1.00  0.00     0.104 A 
HETATM   21  C12 UNL     1      -2.550   7.333  56.603  1.00  0.00     0.053 A 
BRANCH  18  22
HETATM   22  O3  UNL     1      -1.707   6.913  60.619  1.00  0.00    -0.358 OA
ATOM     23  H3  UNL     1      -1.582   7.716  61.113  1.00  0.00     0.217 HD
ENDBRANCH  18  22
BRANCH  19  24
HETATM   24  O4  UNL     1      -1.467   4.656  58.888  1.00  0.00    -0.356 OA
ATOM     25  H4  UNL     1      -1.800   3.837  58.541  1.00  0.00     0.218 HD
ENDBRANCH  19  24
BRANCH  20  26
HETATM   26  O5  UNL     1      -2.045   5.031  56.242  1.00  0.00    -0.353 OA
HETATM   27  C11 UNL     1      -2.992   4.846  55.210  1.00  0.00     0.210 C 
ENDBRANCH  20  26
ENDBRANCH  15  16
ENDBRANCH  14  15
ENDBRANCH  12  14
ENDBRANCH   2  12
BRANCH   1  28
HETATM   28  C3  UNL     1      -2.734   7.825  53.086  1.00  0.00     0.260 C 
BRANCH  28  29
HETATM   29  C2  UNL     1      -1.376   7.266  52.981  1.00  0.00     0.277 C 
HETATM   30  O2  UNL     1      -0.467   7.555  53.801  1.00  0.00    -0.263 OA
BRANCH  29  31
HETATM   31  O1  UNL     1      -1.104   6.397  51.939  1.00  0.00    -0.325 OA
HETATM   32  C1  UNL     1      -1.785   5.207  51.693  1.00  0.00     0.213 C 
ENDBRANCH  29  31
ENDBRANCH  28  29
ENDBRANCH   1  28
BRANCH  11  33
HETATM   33  N9  UNL     1      -3.436   8.392  50.494  1.00  0.00    -0.384 N 
ATOM     34  H92 UNL     1      -2.872   7.545  50.558  1.00  0.00     0.157 HD
ATOM     35  H91 UNL     1      -4.154   8.415  49.770  1.00  0.00     0.157 HD
ENDBRANCH  11  33
BRANCH   9  36
HETATM   36  N6  UNL     1      -3.824  10.329  48.417  1.00  0.00    -0.296 N 
HETATM   37  N7  UNL     1      -4.740  10.595  47.581  1.00  0.00    -0.267 N 
HETATM   38  C16 UNL     1      -5.570  11.741  47.706  1.00  0.00     0.266 C 
ATOM     39  H7  UNL     1      -4.885   9.965  46.792  1.00  0.00     0.190 HD
HETATM   40  O6  UNL     1      -6.174  11.894  48.803  1.00  0.00    -0.269 OA
ATOM     41  H6  UNL     1      -3.274   9.486  48.255  1.00  0.00     0.187 HD
BRANCH  38  42
HETATM   42  C17 UNL     1      -5.759  12.735  46.647  1.00  0.00     0.237 C 
BRANCH  42  43
HETATM   43  O7  UNL     1      -7.078  12.948  46.337  1.00  0.00    -0.384 OA
ATOM     44  H7  UNL     1      -7.536  13.464  46.989  1.00  0.00     0.210 HD
ENDBRANCH  42  43
BRANCH  42  45
HETATM   45  C18 UNL     1      -5.108  14.050  46.949  1.00  0.00     0.271 C 
BRANCH  45  46
HETATM   46  N8  UNL     1      -5.478  15.044  45.953  1.00  0.00    -0.076 N 
ATOM     47  H83 UNL     1      -6.381  14.837  45.528  1.00  0.00     0.274 HD
ATOM     48  H82 UNL     1      -5.713  15.940  46.381  1.00  0.00     0.274 HD
ATOM     49  H81 UNL     1      -4.742  15.141  45.253  1.00  0.00     0.274 HD
ENDBRANCH  45  46
ENDBRANCH  42  45
ENDBRANCH  38  42
ENDBRANCH   9  36
TORSDOF 16
ENDMDL
