MODEL 1
REMARK VINA RESULT: -8.394588140      0.000      0.000
REMARK  10 active torsions:
REMARK  status: ('A' for Active; 'I' for Inactive)
REMARK    1  A    between atoms: O1_2  and  C2_3 
REMARK    2  A    between atoms: C2_3  and  C3_5 
REMARK    3  A    between atoms: C3_5  and  N1_6 
REMARK    4  A    between atoms: C3_5  and  C15_23 
REMARK       I    between atoms: N1_6  and  C4_8 
REMARK    5  A    between atoms: C4_8  and  C5_10 
REMARK    6  A    between atoms: C5_10  and  C6_11 
REMARK    7  A    between atoms: C5_10  and  N2_18 
REMARK    8  A    between atoms: C6_11  and  C7_12 
REMARK       I    between atoms: N2_18  and  C13_20 
REMARK    9  A    between atoms: C15_23  and  O5_24 
REMARK   10  A    between atoms: N3_26  and  O6_28 
ROOT
HETATM    1  N1  UNL     1      -1.944  -1.304   5.715  1.00  0.00    -0.339 N 
ATOM      2  H1  UNL     1      -0.960  -1.367   5.456  1.00  0.00     0.163 HD
HETATM    3  C4  UNL     1      -2.616  -0.048   5.580  1.00  0.00     0.241 C 
HETATM    4  O3  UNL     1      -3.835   0.064   5.895  1.00  0.00    -0.271 OA
ENDROOT
BRANCH   3   5
HETATM    5  C5  UNL     1      -1.883   1.100   5.082  1.00  0.00     0.180 C 
BRANCH   5   6
HETATM    6  C6  UNL     1      -2.330   1.728   3.814  1.00  0.00     0.073 C 
BRANCH   6   7
HETATM    7  C7  UNL     1      -1.500   2.712   3.162  1.00  0.00    -0.056 A 
HETATM    8  C8  UNL     1      -0.130   2.691   3.294  1.00  0.00     0.007 A 
HETATM    9  C9  UNL     1       0.617   3.680   2.678  1.00  0.00     0.001 A 
HETATM   10  C10 UNL     1       0.046   4.695   1.933  1.00  0.00     0.000 A 
HETATM   11  C11 UNL     1      -1.327   4.710   1.805  1.00  0.00     0.001 A 
HETATM   12  C12 UNL     1      -2.077   3.722   2.419  1.00  0.00     0.007 A 
ENDBRANCH   6   7
ENDBRANCH   5   6
BRANCH   5  13
HETATM   13  N2  UNL     1      -2.013   2.141   6.142  1.00  0.00    -0.348 N 
HETATM   14  C13 UNL     1      -1.595   1.918   7.468  1.00  0.00     0.214 C 
HETATM   15  C14 UNL     1      -1.762   3.015   8.464  1.00  0.00     0.117 C 
HETATM   16  O4  UNL     1      -1.098   0.807   7.763  1.00  0.00    -0.274 OA
ATOM     17  H2  UNL     1      -2.418   3.045   5.898  1.00  0.00     0.163 HD
ENDBRANCH   5  13
ENDBRANCH   3   5
BRANCH   1  18
HETATM   18  C3  UNL     1      -2.615  -2.488   6.208  1.00  0.00     0.261 C 
BRANCH  18  19
HETATM   19  C2  UNL     1      -2.262  -3.614   5.301  1.00  0.00     0.289 C 
HETATM   20  O2  UNL     1      -1.102  -3.690   4.822  1.00  0.00    -0.262 OA
BRANCH  19  21
HETATM   21  O1  UNL     1      -3.173  -4.600   4.954  1.00  0.00    -0.325 OA
HETATM   22  C1  UNL     1      -3.191  -5.092   3.643  1.00  0.00     0.213 C 
ENDBRANCH  19  21
ENDBRANCH  18  19
BRANCH  18  23
HETATM   23  C15 UNL     1      -4.069  -2.371   6.302  1.00  0.00     0.168 C 
HETATM   24  N3  UNL     1      -4.796  -2.513   5.250  1.00  0.00    -0.249 N 
ATOM     25  H3  UNL     1      -4.342  -2.706   4.357  1.00  0.00     0.196 HD
BRANCH  23  26
HETATM   26  O5  UNL     1      -4.690  -2.106   7.511  1.00  0.00    -0.346 OA
ATOM     27  H5  UNL     1      -5.394  -1.471   7.573  1.00  0.00     0.219 HD
ENDBRANCH  23  26
BRANCH  24  28
HETATM   28  O6  UNL     1      -6.181  -2.409   5.292  1.00  0.00    -0.288 OA
ATOM     29  H6  UNL     1      -6.743  -2.954   4.754  1.00  0.00     0.244 HD
ENDBRANCH  24  28
ENDBRANCH  18  23
ENDBRANCH   1  18
TORSDOF 10
ENDMDL
MODEL 2
REMARK VINA RESULT: -7.386352447      6.821      9.514
REMARK  10 active torsions:
REMARK  status: ('A' for Active; 'I' for Inactive)
REMARK    1  A    between atoms: O1_2  and  C2_3 
REMARK    2  A    between atoms: C2_3  and  C3_5 
REMARK    3  A    between atoms: C3_5  and  N1_6 
REMARK    4  A    between atoms: C3_5  and  C15_23 
REMARK       I    between atoms: N1_6  and  C4_8 
REMARK    5  A    between atoms: C4_8  and  C5_10 
REMARK    6  A    between atoms: C5_10  and  C6_11 
REMARK    7  A    between atoms: C5_10  and  N2_18 
REMARK    8  A    between atoms: C6_11  and  C7_12 
REMARK       I    between atoms: N2_18  and  C13_20 
REMARK    9  A    between atoms: C15_23  and  O5_24 
REMARK   10  A    between atoms: N3_26  and  O6_28 
ROOT
HETATM    1  N1  UNL     1      -1.972   6.669  -0.154  1.00  0.00    -0.339 N 
ATOM      2  H1  UNL     1      -2.484   5.848   0.168  1.00  0.00     0.163 HD
HETATM    3  C4  UNL     1      -0.841   7.118   0.598  1.00  0.00     0.241 C 
HETATM    4  O3  UNL     1      -0.187   8.134   0.227  1.00  0.00    -0.271 OA
ENDROOT
BRANCH   3   5
HETATM    5  C5  UNL     1      -0.454   6.401   1.797  1.00  0.00     0.180 C 
BRANCH   5   6
HETATM    6  C6  UNL     1       0.182   5.068   1.650  1.00  0.00     0.073 C 
BRANCH   6   7
HETATM    7  C7  UNL     1      -0.268   3.959   2.455  1.00  0.00    -0.056 A 
HETATM    8  C8  UNL     1      -1.600   3.615   2.516  1.00  0.00     0.007 A 
HETATM    9  C9  UNL     1      -1.984   2.565   3.333  1.00  0.00     0.001 A 
HETATM   10  C10 UNL     1      -1.085   1.843   4.096  1.00  0.00     0.000 A 
HETATM   11  C11 UNL     1       0.248   2.193   4.030  1.00  0.00     0.001 A 
HETATM   12  C12 UNL     1       0.635   3.242   3.213  1.00  0.00     0.007 A 
ENDBRANCH   6   7
ENDBRANCH   5   6
BRANCH   5  13
HETATM   13  N2  UNL     1       0.545   7.277   2.476  1.00  0.00    -0.348 N 
HETATM   14  C13 UNL     1       0.199   8.110   3.557  1.00  0.00     0.214 C 
HETATM   15  C14 UNL     1       1.261   8.953   4.177  1.00  0.00     0.117 C 
HETATM   16  O4  UNL     1      -0.986   8.115   3.959  1.00  0.00    -0.274 OA
ATOM     17  H2  UNL     1       1.510   7.271   2.147  1.00  0.00     0.163 HD
ENDBRANCH   5  13
ENDBRANCH   3   5
BRANCH   1  18
HETATM   18  C3  UNL     1      -2.414   7.340  -1.358  1.00  0.00     0.261 C 
BRANCH  18  19
HETATM   19  C2  UNL     1      -3.835   6.961  -1.587  1.00  0.00     0.289 C 
HETATM   20  O2  UNL     1      -4.607   7.759  -2.175  1.00  0.00    -0.262 OA
BRANCH  19  21
HETATM   21  O1  UNL     1      -4.353   5.743  -1.172  1.00  0.00    -0.325 OA
HETATM   22  C1  UNL     1      -5.517   5.248  -1.773  1.00  0.00     0.213 C 
ENDBRANCH  19  21
ENDBRANCH  18  19
BRANCH  18  23
HETATM   23  C15 UNL     1      -1.626   7.034  -2.551  1.00  0.00     0.168 C 
HETATM   24  N3  UNL     1      -2.103   6.254  -3.456  1.00  0.00    -0.249 N 
ATOM     25  H3  UNL     1      -3.034   5.856  -3.325  1.00  0.00     0.196 HD
BRANCH  23  26
HETATM   26  O5  UNL     1      -0.363   7.570  -2.732  1.00  0.00    -0.346 OA
ATOM     27  H5  UNL     1      -0.246   8.479  -2.986  1.00  0.00     0.219 HD
ENDBRANCH  23  26
BRANCH  24  28
HETATM   28  O6  UNL     1      -1.390   5.935  -4.605  1.00  0.00    -0.288 OA
ATOM     29  H6  UNL     1      -0.504   5.595  -4.570  1.00  0.00     0.244 HD
ENDBRANCH  24  28
ENDBRANCH  18  23
ENDBRANCH   1  18
TORSDOF 10
ENDMDL
MODEL 3
REMARK VINA RESULT: -7.243388552      2.132      3.677
REMARK  10 active torsions:
REMARK  status: ('A' for Active; 'I' for Inactive)
REMARK    1  A    between atoms: O1_2  and  C2_3 
REMARK    2  A    between atoms: C2_3  and  C3_5 
REMARK    3  A    between atoms: C3_5  and  N1_6 
REMARK    4  A    between atoms: C3_5  and  C15_23 
REMARK       I    between atoms: N1_6  and  C4_8 
REMARK    5  A    between atoms: C4_8  and  C5_10 
REMARK    6  A    between atoms: C5_10  and  C6_11 
REMARK    7  A    between atoms: C5_10  and  N2_18 
REMARK    8  A    between atoms: C6_11  and  C7_12 
REMARK       I    between atoms: N2_18  and  C13_20 
REMARK    9  A    between atoms: C15_23  and  O5_24 
REMARK   10  A    between atoms: N3_26  and  O6_28 
ROOT
HETATM    1  N1  UNL     1      -2.391   0.773   5.520  1.00  0.00    -0.339 N 
ATOM      2  H1  UNL     1      -2.643   0.242   4.687  1.00  0.00     0.163 HD
HETATM    3  C4  UNL     1      -1.970   2.132   5.374  1.00  0.00     0.241 C 
HETATM    4  O3  UNL     1      -1.648   2.817   6.386  1.00  0.00    -0.271 OA
ENDROOT
BRANCH   3   5
HETATM    5  C5  UNL     1      -1.908   2.719   4.049  1.00  0.00     0.180 C 
BRANCH   5   6
HETATM    6  C6  UNL     1      -1.324   4.076   3.903  1.00  0.00     0.073 C 
BRANCH   6   7
HETATM    7  C7  UNL     1      -1.361   4.746   2.625  1.00  0.00    -0.056 A 
HETATM    8  C8  UNL     1      -0.221   5.282   2.068  1.00  0.00     0.007 A 
HETATM    9  C9  UNL     1      -0.317   5.947   0.858  1.00  0.00     0.001 A 
HETATM   10  C10 UNL     1      -1.513   6.099   0.180  1.00  0.00     0.000 A 
HETATM   11  C11 UNL     1      -2.650   5.559   0.744  1.00  0.00     0.001 A 
HETATM   12  C12 UNL     1      -2.557   4.893   1.954  1.00  0.00     0.007 A 
ENDBRANCH   6   7
ENDBRANCH   5   6
BRANCH   5  13
HETATM   13  N2  UNL     1      -1.051   1.798   3.249  1.00  0.00    -0.348 N 
HETATM   14  C13 UNL     1       0.341   1.715   3.438  1.00  0.00     0.214 C 
HETATM   15  C14 UNL     1       1.122   0.766   2.593  1.00  0.00     0.117 C 
HETATM   16  O4  UNL     1       0.875   2.440   4.308  1.00  0.00    -0.274 OA
ATOM     17  H2  UNL     1      -1.488   1.208   2.540  1.00  0.00     0.163 HD
ENDBRANCH   5  13
ENDBRANCH   3   5
BRANCH   1  18
HETATM   18  C3  UNL     1      -2.472   0.126   6.813  1.00  0.00     0.261 C 
BRANCH  18  19
HETATM   19  C2  UNL     1      -3.163  -1.178   6.619  1.00  0.00     0.289 C 
HETATM   20  O2  UNL     1      -2.489  -2.214   6.390  1.00  0.00    -0.262 OA
BRANCH  19  21
HETATM   21  O1  UNL     1      -4.543  -1.303   6.680  1.00  0.00    -0.325 OA
HETATM   22  C1  UNL     1      -5.235  -1.849   5.593  1.00  0.00     0.213 C 
ENDBRANCH  19  21
ENDBRANCH  18  19
BRANCH  18  23
HETATM   23  C15 UNL     1      -3.166   0.900   7.840  1.00  0.00     0.168 C 
HETATM   24  N3  UNL     1      -2.779   0.837   9.066  1.00  0.00    -0.249 N 
ATOM     25  H3  UNL     1      -1.986   0.241   9.305  1.00  0.00     0.196 HD
BRANCH  23  26
HETATM   26  O5  UNL     1      -4.243   1.709   7.522  1.00  0.00    -0.346 OA
ATOM     27  H5  UNL     1      -4.943   1.865   8.147  1.00  0.00     0.219 HD
ENDBRANCH  23  26
BRANCH  24  28
HETATM   28  O6  UNL     1      -3.409   1.555  10.075  1.00  0.00    -0.288 OA
ATOM     29  H6  UNL     1      -3.254   1.374  10.995  1.00  0.00     0.244 HD
ENDBRANCH  24  28
ENDBRANCH  18  23
ENDBRANCH   1  18
TORSDOF 10
ENDMDL
MODEL 4
REMARK VINA RESULT: -7.215073098      6.439      8.750
REMARK  10 active torsions:
REMARK  status: ('A' for Active; 'I' for Inactive)
REMARK    1  A    between atoms: O1_2  and  C2_3 
REMARK    2  A    between atoms: C2_3  and  C3_5 
REMARK    3  A    between atoms: C3_5  and  N1_6 
REMARK    4  A    between atoms: C3_5  and  C15_23 
REMARK       I    between atoms: N1_6  and  C4_8 
REMARK    5  A    between atoms: C4_8  and  C5_10 
REMARK    6  A    between atoms: C5_10  and  C6_11 
REMARK    7  A    between atoms: C5_10  and  N2_18 
REMARK    8  A    between atoms: C6_11  and  C7_12 
REMARK       I    between atoms: N2_18  and  C13_20 
REMARK    9  A    between atoms: C15_23  and  O5_24 
REMARK   10  A    between atoms: N3_26  and  O6_28 
ROOT
HETATM    1  N1  UNL     1      -3.413   6.436   1.165  1.00  0.00    -0.339 N 
ATOM      2  H1  UNL     1      -3.657   5.776   1.903  1.00  0.00     0.163 HD
HETATM    3  C4  UNL     1      -2.072   6.927   1.092  1.00  0.00     0.241 C 
HETATM    4  O3  UNL     1      -1.737   7.749   0.191  1.00  0.00    -0.271 OA
ENDROOT
BRANCH   3   5
HETATM    5  C5  UNL     1      -1.096   6.479   2.066  1.00  0.00     0.180 C 
BRANCH   5   6
HETATM    6  C6  UNL     1      -0.285   5.276   1.753  1.00  0.00     0.073 C 
BRANCH   6   7
HETATM    7  C7  UNL     1      -0.486   4.054   2.493  1.00  0.00    -0.056 A 
HETATM    8  C8  UNL     1      -1.733   3.480   2.596  1.00  0.00     0.007 A 
HETATM    9  C9  UNL     1      -1.879   2.327   3.350  1.00  0.00     0.001 A 
HETATM   10  C10 UNL     1      -0.823   1.724   4.007  1.00  0.00     0.000 A 
HETATM   11  C11 UNL     1       0.423   2.305   3.900  1.00  0.00     0.001 A 
HETATM   12  C12 UNL     1       0.573   3.458   3.147  1.00  0.00     0.007 A 
ENDBRANCH   6   7
ENDBRANCH   5   6
BRANCH   5  13
HETATM   13  N2  UNL     1      -0.137   7.612   2.216  1.00  0.00    -0.348 N 
HETATM   14  C13 UNL     1      -0.177   8.487   3.318  1.00  0.00     0.214 C 
HETATM   15  C14 UNL     1       0.820   9.594   3.388  1.00  0.00     0.117 C 
HETATM   16  O4  UNL     1      -1.046   8.305   4.200  1.00  0.00    -0.274 OA
ATOM     17  H2  UNL     1       0.570   7.758   1.496  1.00  0.00     0.163 HD
ENDBRANCH   5  13
ENDBRANCH   3   5
BRANCH   1  18
HETATM   18  C3  UNL     1      -4.436   6.845   0.227  1.00  0.00     0.261 C 
BRANCH  18  19
HETATM   19  C2  UNL     1      -5.664   7.157   1.009  1.00  0.00     0.289 C 
HETATM   20  O2  UNL     1      -5.593   7.283   2.258  1.00  0.00    -0.262 OA
BRANCH  19  21
HETATM   21  O1  UNL     1      -6.904   7.316   0.411  1.00  0.00    -0.325 OA
HETATM   22  C1  UNL     1      -8.065   7.035   1.142  1.00  0.00     0.213 C 
ENDBRANCH  19  21
ENDBRANCH  18  19
BRANCH  18  23
HETATM   23  C15 UNL     1      -4.750   5.857  -0.803  1.00  0.00     0.168 C 
HETATM   24  N3  UNL     1      -5.579   4.906  -0.553  1.00  0.00    -0.249 N 
ATOM     25  H3  UNL     1      -6.011   4.855   0.370  1.00  0.00     0.196 HD
BRANCH  23  26
HETATM   26  O5  UNL     1      -4.166   5.919  -2.057  1.00  0.00    -0.346 OA
ATOM     27  H5  UNL     1      -4.428   5.327  -2.752  1.00  0.00     0.219 HD
ENDBRANCH  23  26
BRANCH  24  28
HETATM   28  O6  UNL     1      -5.906   3.944  -1.502  1.00  0.00    -0.288 OA
ATOM     29  H6  UNL     1      -5.628   3.039  -1.419  1.00  0.00     0.244 HD
ENDBRANCH  24  28
ENDBRANCH  18  23
ENDBRANCH   1  18
TORSDOF 10
ENDMDL
MODEL 5
REMARK VINA RESULT: -7.194614981      6.797      9.485
REMARK  10 active torsions:
REMARK  status: ('A' for Active; 'I' for Inactive)
REMARK    1  A    between atoms: O1_2  and  C2_3 
REMARK    2  A    between atoms: C2_3  and  C3_5 
REMARK    3  A    between atoms: C3_5  and  N1_6 
REMARK    4  A    between atoms: C3_5  and  C15_23 
REMARK       I    between atoms: N1_6  and  C4_8 
REMARK    5  A    between atoms: C4_8  and  C5_10 
REMARK    6  A    between atoms: C5_10  and  C6_11 
REMARK    7  A    between atoms: C5_10  and  N2_18 
REMARK    8  A    between atoms: C6_11  and  C7_12 
REMARK       I    between atoms: N2_18  and  C13_20 
REMARK    9  A    between atoms: C15_23  and  O5_24 
REMARK   10  A    between atoms: N3_26  and  O6_28 
ROOT
HETATM    1  N1  UNL     1      -5.423   6.839   1.121  1.00  0.00    -0.339 N 
ATOM      2  H1  UNL     1      -5.477   6.725   2.133  1.00  0.00     0.163 HD
HETATM    3  C4  UNL     1      -4.141   6.793   0.487  1.00  0.00     0.241 C 
HETATM    4  O3  UNL     1      -4.039   6.933  -0.765  1.00  0.00    -0.271 OA
ENDROOT
BRANCH   3   5
HETATM    5  C5  UNL     1      -2.955   6.591   1.296  1.00  0.00     0.180 C 
BRANCH   5   6
HETATM    6  C6  UNL     1      -1.936   5.619   0.827  1.00  0.00     0.073 C 
BRANCH   6   7
HETATM    7  C7  UNL     1      -1.367   4.665   1.748  1.00  0.00    -0.056 A 
HETATM    8  C8  UNL     1      -0.013   4.630   1.993  1.00  0.00     0.007 A 
HETATM    9  C9  UNL     1       0.486   3.670   2.857  1.00  0.00     0.001 A 
HETATM   10  C10 UNL     1      -0.319   2.740   3.488  1.00  0.00     0.000 A 
HETATM   11  C11 UNL     1      -1.674   2.781   3.237  1.00  0.00     0.001 A 
HETATM   12  C12 UNL     1      -2.177   3.740   2.374  1.00  0.00     0.007 A 
ENDBRANCH   6   7
ENDBRANCH   5   6
BRANCH   5  13
HETATM   13  N2  UNL     1      -2.282   7.921   1.351  1.00  0.00    -0.348 N 
HETATM   14  C13 UNL     1      -2.757   8.970   2.160  1.00  0.00     0.214 C 
HETATM   15  C14 UNL     1      -2.023  10.267   2.154  1.00  0.00     0.117 C 
HETATM   16  O4  UNL     1      -3.780   8.776   2.857  1.00  0.00    -0.274 OA
ATOM     17  H2  UNL     1      -1.450   8.076   0.782  1.00  0.00     0.163 HD
ENDBRANCH   5  13
ENDBRANCH   3   5
BRANCH   1  18
HETATM   18  C3  UNL     1      -6.646   7.040   0.373  1.00  0.00     0.261 C 
BRANCH  18  19
HETATM   19  C2  UNL     1      -6.873   8.508   0.273  1.00  0.00     0.289 C 
HETATM   20  O2  UNL     1      -6.636   9.246   1.263  1.00  0.00    -0.262 OA
BRANCH  19  21
HETATM   21  O1  UNL     1      -7.343   9.109  -0.885  1.00  0.00    -0.325 OA
HETATM   22  C1  UNL     1      -6.726   8.824  -2.109  1.00  0.00     0.213 C 
ENDBRANCH  19  21
ENDBRANCH  18  19
BRANCH  18  23
HETATM   23  C15 UNL     1      -7.826   6.399   0.949  1.00  0.00     0.168 C 
HETATM   24  N3  UNL     1      -8.919   7.064   1.085  1.00  0.00    -0.249 N 
ATOM     25  H3  UNL     1      -8.946   8.039   0.784  1.00  0.00     0.196 HD
BRANCH  23  26
HETATM   26  O5  UNL     1      -7.795   5.078   1.360  1.00  0.00    -0.346 OA
ATOM     27  H5  UNL     1      -8.418   4.444   1.024  1.00  0.00     0.219 HD
ENDBRANCH  23  26
BRANCH  24  28
HETATM   28  O6  UNL     1     -10.065   6.496   1.627  1.00  0.00    -0.288 OA
ATOM     29  H6  UNL     1     -10.757   7.024   2.009  1.00  0.00     0.244 HD
ENDBRANCH  24  28
ENDBRANCH  18  23
ENDBRANCH   1  18
TORSDOF 10
ENDMDL
