MODEL 1
REMARK VINA RESULT: -7.542632971      0.000      0.000
REMARK  15 active torsions:
REMARK  status: ('A' for Active; 'I' for Inactive)
REMARK    1  A    between atoms: C2_2  and  C3_3 
REMARK    2  A    between atoms: C3_3  and  N1_4 
REMARK    3  A    between atoms: N1_4  and  C4_6 
REMARK    4  A    between atoms: C4_6  and  C5_7 
REMARK    5  A    between atoms: C5_7  and  C6_8 
REMARK    6  A    between atoms: C6_8  and  C7_9 
REMARK    7  A    between atoms: C7_9  and  C8_10 
REMARK    8  A    between atoms: C8_10  and  C9_11 
REMARK    9  A    between atoms: C9_11  and  C10_12 
REMARK   10  A    between atoms: C10_12  and  C11_13 
REMARK   11  A    between atoms: C11_13  and  N2_14 
REMARK   12  A    between atoms: N2_14  and  C12_17 
REMARK   13  A    between atoms: C12_17  and  C13_18 
REMARK   14  A    between atoms: C16_23  and  C17_24 
REMARK   15  A    between atoms: C24_33  and  C25_34 
ROOT
HETATM    1  C13 UNL     1       7.265  20.410  23.521  1.00  0.00     0.037 A 
HETATM    2  C14 UNL     1       5.972  20.335  24.003  1.00  0.00     0.044 A 
HETATM    3  C15 UNL     1       5.719  20.457  25.351  1.00  0.00     0.092 A 
HETATM    4  N3  UNL     1       6.827  20.664  26.093  1.00  0.00    -0.350 N 
ATOM      5  H3  UNL     1       6.683  20.764  27.098  1.00  0.00     0.166 HD
HETATM    6  C16 UNL     1       8.079  20.753  25.672  1.00  0.00     0.133 A 
HETATM    7  N5  UNL     1       8.306  20.615  24.323  1.00  0.00    -0.343 N 
ATOM      8  H5  UNL     1       9.252  20.670  23.946  1.00  0.00     0.167 HD
ENDROOT
BRANCH   1   9
HETATM    9  C12 UNL     1       7.306  20.240  22.011  1.00  0.00     0.289 C 
BRANCH   9  10
HETATM   10  N2  UNL     1       6.588  21.409  21.527  1.00  0.00    -0.070 N 
ATOM     11  H22 UNL     1       6.018  21.841  22.254  1.00  0.00     0.277 HD
ATOM     12  H21 UNL     1       5.836  21.162  20.883  1.00  0.00     0.277 HD
BRANCH  10  13
HETATM   13  C11 UNL     1       7.516  22.327  20.950  1.00  0.00     0.232 C 
BRANCH  13  14
HETATM   14  C10 UNL     1       7.271  23.675  21.700  1.00  0.00     0.027 C 
BRANCH  14  15
HETATM   15  C9  UNL     1       5.927  23.684  22.224  1.00  0.00     0.002 C 
BRANCH  15  16
HETATM   16  C8  UNL     1       5.223  24.947  22.525  1.00  0.00     0.000 C 
BRANCH  16  17
HETATM   17  C7  UNL     1       4.903  25.698  21.242  1.00  0.00     0.000 C 
BRANCH  17  18
HETATM   18  C6  UNL     1       5.106  27.173  21.467  1.00  0.00     0.005 C 
BRANCH  18  19
HETATM   19  C5  UNL     1       6.222  27.317  22.461  1.00  0.00     0.044 C 
BRANCH  19  20
HETATM   20  C4  UNL     1       7.552  27.730  21.960  1.00  0.00     0.055 C 
BRANCH  20  21
HETATM   21  N1  UNL     1       7.795  27.835  20.594  1.00  0.00    -0.402 N 
ATOM     22  H1  UNL     1       7.580  28.708  20.111  1.00  0.00     0.158 HD
BRANCH  21  23
HETATM   23  C3  UNL     1       8.338  26.745  19.863  1.00  0.00     0.118 C 
BRANCH  23  24
HETATM   24  C2  UNL     1       7.455  26.618  18.600  1.00  0.00     0.015 C 
HETATM   25  C1  UNL     1       7.257  25.147  18.313  1.00  0.00     0.006 C 
ENDBRANCH  23  24
ENDBRANCH  21  23
ENDBRANCH  20  21
ENDBRANCH  19  20
ENDBRANCH  18  19
ENDBRANCH  17  18
ENDBRANCH  16  17
ENDBRANCH  15  16
ENDBRANCH  14  15
ENDBRANCH  13  14
ENDBRANCH  10  13
ENDBRANCH   9  10
ENDBRANCH   1   9
BRANCH   6  26
HETATM   26  C17 UNL     1       9.152  21.030  26.618  1.00  0.00     0.089 A 
HETATM   27  N4  UNL     1       9.926  20.222  27.340  1.00  0.00    -0.352 N 
HETATM   28  C18 UNL     1      10.826  20.955  28.065  1.00  0.00     0.043 A 
ATOM     29  H4  UNL     1       9.858  19.204  27.350  1.00  0.00     0.166 HD
HETATM   30  C19 UNL     1      11.838  20.623  28.937  1.00  0.00     0.030 A 
HETATM   31  C23 UNL     1      10.615  22.301  27.792  1.00  0.00     0.004 A 
HETATM   32  C20 UNL     1      12.618  21.568  29.526  1.00  0.00     0.002 A 
HETATM   33  C21 UNL     1      12.389  22.910  29.240  1.00  0.00     0.001 A 
HETATM   34  C22 UNL     1      11.381  23.286  28.369  1.00  0.00     0.014 A 
HETATM   35  C24 UNL     1       9.581  22.336  26.904  1.00  0.00     0.017 A 
BRANCH  35  36
HETATM   36  C25 UNL     1       8.925  23.544  26.391  1.00  0.00    -0.023 A 
HETATM   37  C26 UNL     1       7.986  24.154  27.253  1.00  0.00     0.012 A 
HETATM   38  C27 UNL     1       7.271  25.269  26.883  1.00  0.00     0.001 A 
HETATM   39  C28 UNL     1       7.458  25.839  25.626  1.00  0.00     0.000 A 
HETATM   40  C29 UNL     1       8.376  25.246  24.784  1.00  0.00     0.001 A 
HETATM   41  C30 UNL     1       9.098  24.110  25.170  1.00  0.00     0.012 A 
ENDBRANCH  35  36
ENDBRANCH   6  26
TORSDOF 15
ENDMDL
MODEL 2
REMARK VINA RESULT: -7.523379278      2.445      4.547
REMARK  15 active torsions:
REMARK  status: ('A' for Active; 'I' for Inactive)
REMARK    1  A    between atoms: C2_2  and  C3_3 
REMARK    2  A    between atoms: C3_3  and  N1_4 
REMARK    3  A    between atoms: N1_4  and  C4_6 
REMARK    4  A    between atoms: C4_6  and  C5_7 
REMARK    5  A    between atoms: C5_7  and  C6_8 
REMARK    6  A    between atoms: C6_8  and  C7_9 
REMARK    7  A    between atoms: C7_9  and  C8_10 
REMARK    8  A    between atoms: C8_10  and  C9_11 
REMARK    9  A    between atoms: C9_11  and  C10_12 
REMARK   10  A    between atoms: C10_12  and  C11_13 
REMARK   11  A    between atoms: C11_13  and  N2_14 
REMARK   12  A    between atoms: N2_14  and  C12_17 
REMARK   13  A    between atoms: C12_17  and  C13_18 
REMARK   14  A    between atoms: C16_23  and  C17_24 
REMARK   15  A    between atoms: C24_33  and  C25_34 
ROOT
HETATM    1  C13 UNL     1       6.975  19.831  23.210  1.00  0.00     0.037 A 
HETATM    2  C14 UNL     1       8.014  19.093  23.746  1.00  0.00     0.044 A 
HETATM    3  C15 UNL     1       8.024  18.768  25.084  1.00  0.00     0.092 A 
HETATM    4  N3  UNL     1       6.947  19.220  25.759  1.00  0.00    -0.350 N 
ATOM      5  H3  UNL     1       6.914  18.997  26.754  1.00  0.00     0.166 HD
HETATM    6  C16 UNL     1       5.928  19.919  25.284  1.00  0.00     0.133 A 
HETATM    7  N5  UNL     1       5.948  20.241  23.949  1.00  0.00    -0.343 N 
ATOM      8  H5  UNL     1       5.190  20.783  23.533  1.00  0.00     0.167 HD
ENDROOT
BRANCH   1   9
HETATM    9  C12 UNL     1       7.177  20.078  21.724  1.00  0.00     0.289 C 
BRANCH   9  10
HETATM   10  N2  UNL     1       8.250  21.059  21.695  1.00  0.00    -0.070 N 
ATOM     11  H22 UNL     1       9.095  20.695  21.256  1.00  0.00     0.277 HD
ATOM     12  H21 UNL     1       8.635  21.239  22.623  1.00  0.00     0.277 HD
BRANCH  10  13
HETATM   13  C11 UNL     1       7.782  22.250  21.063  1.00  0.00     0.232 C 
BRANCH  13  14
HETATM   14  C10 UNL     1       8.301  23.417  21.964  1.00  0.00     0.027 C 
BRANCH  14  15
HETATM   15  C9  UNL     1       7.192  24.272  22.309  1.00  0.00     0.002 C 
BRANCH  15  16
HETATM   16  C8  UNL     1       5.797  23.793  22.249  1.00  0.00     0.000 C 
BRANCH  16  17
HETATM   17  C7  UNL     1       4.834  24.965  22.149  1.00  0.00     0.000 C 
BRANCH  17  18
HETATM   18  C6  UNL     1       5.615  26.252  22.175  1.00  0.00     0.005 C 
BRANCH  18  19
HETATM   19  C5  UNL     1       5.085  27.112  21.064  1.00  0.00     0.044 C 
BRANCH  19  20
HETATM   20  C4  UNL     1       4.383  26.447  19.944  1.00  0.00     0.055 C 
BRANCH  20  21
HETATM   21  N1  UNL     1       4.931  26.443  18.665  1.00  0.00    -0.402 N 
ATOM     22  H1  UNL     1       4.335  26.235  17.863  1.00  0.00     0.158 HD
BRANCH  21  23
HETATM   23  C3  UNL     1       6.308  26.722  18.460  1.00  0.00     0.118 C 
BRANCH  23  24
HETATM   24  C2  UNL     1       7.011  25.345  18.458  1.00  0.00     0.015 C 
HETATM   25  C1  UNL     1       8.436  25.546  18.919  1.00  0.00     0.006 C 
ENDBRANCH  23  24
ENDBRANCH  21  23
ENDBRANCH  20  21
ENDBRANCH  19  20
ENDBRANCH  18  19
ENDBRANCH  17  18
ENDBRANCH  16  17
ENDBRANCH  15  16
ENDBRANCH  14  15
ENDBRANCH  13  14
ENDBRANCH  10  13
ENDBRANCH   9  10
ENDBRANCH   1   9
BRANCH   6  26
HETATM   26  C17 UNL     1       4.820  20.282  26.158  1.00  0.00     0.089 A 
HETATM   27  N4  UNL     1       3.664  19.675  26.419  1.00  0.00    -0.352 N 
HETATM   28  C18 UNL     1       2.955  20.390  27.346  1.00  0.00     0.043 A 
ATOM     29  H4  UNL     1       3.353  18.802  25.991  1.00  0.00     0.166 HD
HETATM   30  C19 UNL     1       1.738  20.203  27.961  1.00  0.00     0.030 A 
HETATM   31  C23 UNL     1       3.695  21.512  27.693  1.00  0.00     0.004 A 
HETATM   32  C20 UNL     1       1.256  21.078  28.884  1.00  0.00     0.002 A 
HETATM   33  C21 UNL     1       2.014  22.197  29.216  1.00  0.00     0.001 A 
HETATM   34  C22 UNL     1       3.242  22.422  28.619  1.00  0.00     0.014 A 
HETATM   35  C24 UNL     1       4.839  21.439  26.954  1.00  0.00     0.017 A 
BRANCH  35  36
HETATM   36  C25 UNL     1       5.897  22.453  26.898  1.00  0.00    -0.023 A 
HETATM   37  C26 UNL     1       6.794  22.475  27.990  1.00  0.00     0.012 A 
HETATM   38  C27 UNL     1       7.808  23.399  28.084  1.00  0.00     0.001 A 
HETATM   39  C28 UNL     1       7.985  24.354  27.085  1.00  0.00     0.000 A 
HETATM   40  C29 UNL     1       7.113  24.331  26.016  1.00  0.00     0.001 A 
HETATM   41  C30 UNL     1       6.082  23.387  25.931  1.00  0.00     0.012 A 
ENDBRANCH  35  36
ENDBRANCH   6  26
TORSDOF 15
ENDMDL
MODEL 3
REMARK VINA RESULT: -7.510748921      0.989      2.186
REMARK  15 active torsions:
REMARK  status: ('A' for Active; 'I' for Inactive)
REMARK    1  A    between atoms: C2_2  and  C3_3 
REMARK    2  A    between atoms: C3_3  and  N1_4 
REMARK    3  A    between atoms: N1_4  and  C4_6 
REMARK    4  A    between atoms: C4_6  and  C5_7 
REMARK    5  A    between atoms: C5_7  and  C6_8 
REMARK    6  A    between atoms: C6_8  and  C7_9 
REMARK    7  A    between atoms: C7_9  and  C8_10 
REMARK    8  A    between atoms: C8_10  and  C9_11 
REMARK    9  A    between atoms: C9_11  and  C10_12 
REMARK   10  A    between atoms: C10_12  and  C11_13 
REMARK   11  A    between atoms: C11_13  and  N2_14 
REMARK   12  A    between atoms: N2_14  and  C12_17 
REMARK   13  A    between atoms: C12_17  and  C13_18 
REMARK   14  A    between atoms: C16_23  and  C17_24 
REMARK   15  A    between atoms: C24_33  and  C25_34 
ROOT
HETATM    1  C13 UNL     1       7.765  20.413  22.865  1.00  0.00     0.037 A 
HETATM    2  C14 UNL     1       6.409  20.438  23.140  1.00  0.00     0.044 A 
HETATM    3  C15 UNL     1       5.959  20.635  24.426  1.00  0.00     0.092 A 
HETATM    4  N3  UNL     1       6.950  20.807  25.326  1.00  0.00    -0.350 N 
ATOM      5  H3  UNL     1       6.658  20.960  26.291  1.00  0.00     0.166 HD
HETATM    6  C16 UNL     1       8.255  20.800  25.105  1.00  0.00     0.133 A 
HETATM    7  N5  UNL     1       8.679  20.590  23.815  1.00  0.00    -0.343 N 
ATOM      8  H5  UNL     1       9.673  20.570  23.590  1.00  0.00     0.167 HD
ENDROOT
BRANCH   1   9
HETATM    9  C12 UNL     1       8.028  20.174  21.388  1.00  0.00     0.289 C 
BRANCH   9  10
HETATM   10  N2  UNL     1       7.307  21.261  20.743  1.00  0.00    -0.070 N 
ATOM     11  H22 UNL     1       7.230  22.082  21.342  1.00  0.00     0.277 HD
ATOM     12  H21 UNL     1       6.312  21.060  20.645  1.00  0.00     0.277 HD
BRANCH  10  13
HETATM   13  C11 UNL     1       7.926  21.559  19.492  1.00  0.00     0.232 C 
BRANCH  13  14
HETATM   14  C10 UNL     1       7.771  23.105  19.324  1.00  0.00     0.027 C 
BRANCH  14  15
HETATM   15  C9  UNL     1       8.507  23.769  20.371  1.00  0.00     0.002 C 
BRANCH  15  16
HETATM   16  C8  UNL     1       8.926  25.179  20.247  1.00  0.00     0.000 C 
BRANCH  16  17
HETATM   17  C7  UNL     1       8.737  25.669  18.820  1.00  0.00     0.000 C 
BRANCH  17  18
HETATM   18  C6  UNL     1       7.861  26.894  18.828  1.00  0.00     0.005 C 
BRANCH  18  19
HETATM   19  C5  UNL     1       6.475  26.446  18.465  1.00  0.00     0.044 C 
BRANCH  19  20
HETATM   20  C4  UNL     1       5.450  26.419  19.533  1.00  0.00     0.055 C 
BRANCH  20  21
HETATM   21  N1  UNL     1       5.649  27.108  20.726  1.00  0.00    -0.402 N 
ATOM     22  H1  UNL     1       5.699  28.127  20.716  1.00  0.00     0.158 HD
BRANCH  21  23
HETATM   23  C3  UNL     1       5.783  26.412  21.956  1.00  0.00     0.118 C 
BRANCH  23  24
HETATM   24  C2  UNL     1       4.849  25.185  21.839  1.00  0.00     0.015 C 
HETATM   25  C1  UNL     1       5.531  24.011  22.502  1.00  0.00     0.006 C 
ENDBRANCH  23  24
ENDBRANCH  21  23
ENDBRANCH  20  21
ENDBRANCH  19  20
ENDBRANCH  18  19
ENDBRANCH  17  18
ENDBRANCH  16  17
ENDBRANCH  15  16
ENDBRANCH  14  15
ENDBRANCH  13  14
ENDBRANCH  10  13
ENDBRANCH   9  10
ENDBRANCH   1   9
BRANCH   6  26
HETATM   26  C17 UNL     1       9.184  21.054  26.199  1.00  0.00     0.089 A 
HETATM   27  N4  UNL     1       9.889  20.229  26.970  1.00  0.00    -0.352 N 
HETATM   28  C18 UNL     1      10.657  20.945  27.847  1.00  0.00     0.043 A 
ATOM     29  H4  UNL     1       9.860  19.211  26.914  1.00  0.00     0.166 HD
HETATM   30  C19 UNL     1      11.559  20.593  28.826  1.00  0.00     0.030 A 
HETATM   31  C23 UNL     1      10.430  22.297  27.625  1.00  0.00     0.004 A 
HETATM   32  C20 UNL     1      12.218  21.525  29.566  1.00  0.00     0.002 A 
HETATM   33  C21 UNL     1      11.975  22.874  29.327  1.00  0.00     0.001 A 
HETATM   34  C22 UNL     1      11.075  23.269  28.353  1.00  0.00     0.014 A 
HETATM   35  C24 UNL     1       9.519  22.353  26.612  1.00  0.00     0.017 A 
BRANCH  35  36
HETATM   36  C25 UNL     1       8.888  23.568  26.085  1.00  0.00    -0.023 A 
HETATM   37  C26 UNL     1       7.984  24.223  26.951  1.00  0.00     0.012 A 
HETATM   38  C27 UNL     1       7.294  25.350  26.571  1.00  0.00     0.001 A 
HETATM   39  C28 UNL     1       7.472  25.888  25.298  1.00  0.00     0.000 A 
HETATM   40  C29 UNL     1       8.358  25.252  24.453  1.00  0.00     0.001 A 
HETATM   41  C30 UNL     1       9.054  24.103  24.850  1.00  0.00     0.012 A 
ENDBRANCH  35  36
ENDBRANCH   6  26
TORSDOF 15
ENDMDL
MODEL 4
REMARK VINA RESULT: -7.417978266      2.471      4.670
REMARK  15 active torsions:
REMARK  status: ('A' for Active; 'I' for Inactive)
REMARK    1  A    between atoms: C2_2  and  C3_3 
REMARK    2  A    between atoms: C3_3  and  N1_4 
REMARK    3  A    between atoms: N1_4  and  C4_6 
REMARK    4  A    between atoms: C4_6  and  C5_7 
REMARK    5  A    between atoms: C5_7  and  C6_8 
REMARK    6  A    between atoms: C6_8  and  C7_9 
REMARK    7  A    between atoms: C7_9  and  C8_10 
REMARK    8  A    between atoms: C8_10  and  C9_11 
REMARK    9  A    between atoms: C9_11  and  C10_12 
REMARK   10  A    between atoms: C10_12  and  C11_13 
REMARK   11  A    between atoms: C11_13  and  N2_14 
REMARK   12  A    between atoms: N2_14  and  C12_17 
REMARK   13  A    between atoms: C12_17  and  C13_18 
REMARK   14  A    between atoms: C16_23  and  C17_24 
REMARK   15  A    between atoms: C24_33  and  C25_34 
ROOT
HETATM    1  C13 UNL     1       6.876  19.246  23.222  1.00  0.00     0.037 A 
HETATM    2  C14 UNL     1       8.029  18.793  23.838  1.00  0.00     0.044 A 
HETATM    3  C15 UNL     1       8.131  18.782  25.210  1.00  0.00     0.092 A 
HETATM    4  N3  UNL     1       7.023  19.226  25.840  1.00  0.00    -0.350 N 
ATOM      5  H3  UNL     1       7.056  19.229  26.859  1.00  0.00     0.166 HD
HETATM    6  C16 UNL     1       5.898  19.657  25.291  1.00  0.00     0.133 A 
HETATM    7  N5  UNL     1       5.826  19.670  23.919  1.00  0.00    -0.343 N 
ATOM      8  H5  UNL     1       4.984  19.998  23.445  1.00  0.00     0.167 HD
ENDROOT
BRANCH   1   9
HETATM    9  C12 UNL     1       6.990  19.177  21.709  1.00  0.00     0.289 C 
BRANCH   9  10
HETATM   10  N2  UNL     1       6.690  20.539  21.292  1.00  0.00    -0.070 N 
ATOM     11  H22 UNL     1       7.067  21.232  21.938  1.00  0.00     0.277 HD
ATOM     12  H21 UNL     1       5.701  20.766  21.398  1.00  0.00     0.277 HD
BRANCH  10  13
HETATM   13  C11 UNL     1       7.152  20.735  19.956  1.00  0.00     0.232 C 
BRANCH  13  14
HETATM   14  C10 UNL     1       7.828  22.144  19.965  1.00  0.00     0.027 C 
BRANCH  14  15
HETATM   15  C9  UNL     1       7.550  22.790  21.224  1.00  0.00     0.002 C 
BRANCH  15  16
HETATM   16  C8  UNL     1       8.160  24.088  21.577  1.00  0.00     0.000 C 
BRANCH  16  17
HETATM   17  C7  UNL     1       7.089  25.086  21.990  1.00  0.00     0.000 C 
BRANCH  17  18
HETATM   18  C6  UNL     1       5.765  24.375  22.100  1.00  0.00     0.005 C 
BRANCH  18  19
HETATM   19  C5  UNL     1       4.700  25.372  21.746  1.00  0.00     0.044 C 
BRANCH  19  20
HETATM   20  C4  UNL     1       5.126  26.695  21.237  1.00  0.00     0.055 C 
BRANCH  20  21
HETATM   21  N1  UNL     1       4.719  27.137  19.981  1.00  0.00    -0.402 N 
ATOM     22  H1  UNL     1       4.131  27.968  19.907  1.00  0.00     0.158 HD
BRANCH  21  23
HETATM   23  C3  UNL     1       5.111  26.448  18.803  1.00  0.00     0.118 C 
BRANCH  23  24
HETATM   24  C2  UNL     1       6.637  26.669  18.686  1.00  0.00     0.015 C 
HETATM   25  C1  UNL     1       7.261  25.382  18.198  1.00  0.00     0.006 C 
ENDBRANCH  23  24
ENDBRANCH  21  23
ENDBRANCH  20  21
ENDBRANCH  19  20
ENDBRANCH  18  19
ENDBRANCH  17  18
ENDBRANCH  16  17
ENDBRANCH  15  16
ENDBRANCH  14  15
ENDBRANCH  13  14
ENDBRANCH  10  13
ENDBRANCH   9  10
ENDBRANCH   1   9
BRANCH   6  26
HETATM   26  C17 UNL     1       4.778  20.055  26.135  1.00  0.00     0.089 A 
HETATM   27  N4  UNL     1       3.639  19.438  26.441  1.00  0.00    -0.352 N 
HETATM   28  C18 UNL     1       2.908  20.201  27.311  1.00  0.00     0.043 A 
ATOM     29  H4  UNL     1       3.353  18.527  26.080  1.00  0.00     0.166 HD
HETATM   30  C19 UNL     1       1.696  20.028  27.939  1.00  0.00     0.030 A 
HETATM   31  C23 UNL     1       3.618  21.366  27.573  1.00  0.00     0.004 A 
HETATM   32  C20 UNL     1       1.189  20.958  28.793  1.00  0.00     0.002 A 
HETATM   33  C21 UNL     1       1.916  22.118  29.040  1.00  0.00     0.001 A 
HETATM   34  C22 UNL     1       3.139  22.331  28.427  1.00  0.00     0.014 A 
HETATM   35  C24 UNL     1       4.765  21.268  26.841  1.00  0.00     0.017 A 
BRANCH  35  36
HETATM   36  C25 UNL     1       5.796  22.303  26.709  1.00  0.00    -0.023 A 
HETATM   37  C26 UNL     1       6.647  22.477  27.823  1.00  0.00     0.012 A 
HETATM   38  C27 UNL     1       7.631  23.437  27.848  1.00  0.00     0.001 A 
HETATM   39  C28 UNL     1       7.821  24.279  26.755  1.00  0.00     0.000 A 
HETATM   40  C29 UNL     1       6.992  24.109  25.665  1.00  0.00     0.001 A 
HETATM   41  C30 UNL     1       5.992  23.128  25.650  1.00  0.00     0.012 A 
ENDBRANCH  35  36
ENDBRANCH   6  26
TORSDOF 15
ENDMDL
MODEL 5
REMARK VINA RESULT: -7.393292377      0.996      1.292
REMARK  15 active torsions:
REMARK  status: ('A' for Active; 'I' for Inactive)
REMARK    1  A    between atoms: C2_2  and  C3_3 
REMARK    2  A    between atoms: C3_3  and  N1_4 
REMARK    3  A    between atoms: N1_4  and  C4_6 
REMARK    4  A    between atoms: C4_6  and  C5_7 
REMARK    5  A    between atoms: C5_7  and  C6_8 
REMARK    6  A    between atoms: C6_8  and  C7_9 
REMARK    7  A    between atoms: C7_9  and  C8_10 
REMARK    8  A    between atoms: C8_10  and  C9_11 
REMARK    9  A    between atoms: C9_11  and  C10_12 
REMARK   10  A    between atoms: C10_12  and  C11_13 
REMARK   11  A    between atoms: C11_13  and  N2_14 
REMARK   12  A    between atoms: N2_14  and  C12_17 
REMARK   13  A    between atoms: C12_17  and  C13_18 
REMARK   14  A    between atoms: C16_23  and  C17_24 
REMARK   15  A    between atoms: C24_33  and  C25_34 
ROOT
HETATM    1  C13 UNL     1       7.191  20.091  23.966  1.00  0.00     0.037 A 
HETATM    2  C14 UNL     1       5.908  20.192  24.472  1.00  0.00     0.044 A 
HETATM    3  C15 UNL     1       5.699  20.555  25.783  1.00  0.00     0.092 A 
HETATM    4  N3  UNL     1       6.837  20.800  26.465  1.00  0.00    -0.350 N 
ATOM      5  H3  UNL     1       6.726  21.076  27.441  1.00  0.00     0.166 HD
HETATM    6  C16 UNL     1       8.081  20.726  26.018  1.00  0.00     0.133 A 
HETATM    7  N5  UNL     1       8.263  20.350  24.709  1.00  0.00    -0.343 N 
ATOM      8  H5  UNL     1       9.201  20.271  24.315  1.00  0.00     0.167 HD
ENDROOT
BRANCH   1   9
HETATM    9  C12 UNL     1       7.181  19.670  22.506  1.00  0.00     0.289 C 
BRANCH   9  10
HETATM   10  N2  UNL     1       8.228  20.492  21.918  1.00  0.00    -0.070 N 
ATOM     11  H22 UNL     1       8.947  19.933  21.460  1.00  0.00     0.277 HD
ATOM     12  H21 UNL     1       8.817  20.932  22.626  1.00  0.00     0.277 HD
BRANCH  10  13
HETATM   13  C11 UNL     1       7.638  21.445  21.035  1.00  0.00     0.232 C 
BRANCH  13  14
HETATM   14  C10 UNL     1       8.003  22.838  21.641  1.00  0.00     0.027 C 
BRANCH  14  15
HETATM   15  C9  UNL     1       6.878  23.727  21.488  1.00  0.00     0.002 C 
BRANCH  15  16
HETATM   16  C8  UNL     1       5.776  23.756  22.470  1.00  0.00     0.000 C 
BRANCH  16  17
HETATM   17  C7  UNL     1       4.840  24.921  22.187  1.00  0.00     0.000 C 
BRANCH  17  18
HETATM   18  C6  UNL     1       5.650  26.182  22.033  1.00  0.00     0.005 C 
BRANCH  18  19
HETATM   19  C5  UNL     1       4.948  27.034  21.016  1.00  0.00     0.044 C 
BRANCH  19  20
HETATM   20  C4  UNL     1       4.411  26.374  19.806  1.00  0.00     0.055 C 
BRANCH  20  21
HETATM   21  N1  UNL     1       4.914  26.681  18.546  1.00  0.00    -0.402 N 
ATOM     22  H1  UNL     1       4.284  26.701  17.743  1.00  0.00     0.158 HD
BRANCH  21  23
HETATM   23  C3  UNL     1       6.293  26.968  18.361  1.00  0.00     0.118 C 
BRANCH  23  24
HETATM   24  C2  UNL     1       6.997  25.592  18.320  1.00  0.00     0.015 C 
HETATM   25  C1  UNL     1       8.422  25.780  18.787  1.00  0.00     0.006 C 
ENDBRANCH  23  24
ENDBRANCH  21  23
ENDBRANCH  20  21
ENDBRANCH  19  20
ENDBRANCH  18  19
ENDBRANCH  17  18
ENDBRANCH  16  17
ENDBRANCH  15  16
ENDBRANCH  14  15
ENDBRANCH  13  14
ENDBRANCH  10  13
ENDBRANCH   9  10
ENDBRANCH   1   9
BRANCH   6  26
HETATM   26  C17 UNL     1       9.194  21.077  26.890  1.00  0.00     0.089 A 
HETATM   27  N4  UNL     1       9.987  20.332  27.658  1.00  0.00    -0.352 N 
HETATM   28  C18 UNL     1      10.924  21.117  28.271  1.00  0.00     0.043 A 
ATOM     29  H4  UNL     1       9.906  19.321  27.771  1.00  0.00     0.166 HD
HETATM   30  C19 UNL     1      11.966  20.856  29.133  1.00  0.00     0.030 A 
HETATM   31  C23 UNL     1      10.719  22.433  27.876  1.00  0.00     0.004 A 
HETATM   32  C20 UNL     1      12.781  21.842  29.595  1.00  0.00     0.002 A 
HETATM   33  C21 UNL     1      12.557  23.153  29.186  1.00  0.00     0.001 A 
HETATM   34  C22 UNL     1      11.519  23.458  28.323  1.00  0.00     0.014 A 
HETATM   35  C24 UNL     1       9.650  22.398  27.029  1.00  0.00     0.017 A 
BRANCH  35  36
HETATM   36  C25 UNL     1       8.989  23.560  26.426  1.00  0.00    -0.023 A 
HETATM   37  C26 UNL     1       8.107  24.277  27.264  1.00  0.00     0.012 A 
HETATM   38  C27 UNL     1       7.393  25.363  26.816  1.00  0.00     0.001 A 
HETATM   39  C28 UNL     1       7.523  25.795  25.497  1.00  0.00     0.000 A 
HETATM   40  C29 UNL     1       8.386  25.098  24.678  1.00  0.00     0.001 A 
HETATM   41  C30 UNL     1       9.108  23.992  25.145  1.00  0.00     0.012 A 
ENDBRANCH  35  36
ENDBRANCH   6  26
TORSDOF 15
ENDMDL
