MODEL 1
REMARK VINA RESULT: -9.702613576      0.000      0.000
REMARK  13 active torsions:
REMARK  status: ('A' for Active; 'I' for Inactive)
REMARK       I    between atoms: N1_2  and  C2_4 
REMARK    1  A    between atoms: C2_4  and  C3_6 
REMARK    2  A    between atoms: C5_8  and  N2_9 
REMARK       I    between atoms: N2_9  and  C6_11 
REMARK    3  A    between atoms: C8_14  and  O3_15 
REMARK    4  A    between atoms: C9_17  and  N3_18 
REMARK    5  A    between atoms: N3_18  and  C10_20 
REMARK    6  A    between atoms: C12_22  and  N4_23 
REMARK    7  A    between atoms: N4_23  and  C13_24 
REMARK    8  A    between atoms: C13_24  and  C14_25 
REMARK    9  A    between atoms: C14_25  and  N5_26 
REMARK   10  A    between atoms: N7_35  and  C21_37 
REMARK   11  A    between atoms: C21_37  and  C22_38 
REMARK   12  A    between atoms: C22_38  and  C23_39 
REMARK   13  A    between atoms: C23_39  and  N8_40 
ROOT
HETATM    1  C10 UNL     1      86.282  33.119  42.972  1.00  0.00     0.126 A 
HETATM    2  C11 UNL     1      86.590  32.965  44.309  1.00  0.00     0.113 A 
HETATM    3  C12 UNL     1      87.716  33.546  44.907  1.00  0.00     0.190 A 
HETATM    4  N6  UNL     1      88.500  34.285  44.063  1.00  0.00    -0.165 N 
ATOM      5  H6  UNL     1      89.332  34.729  44.452  1.00  0.00     0.187 HD
HETATM    6  C20 UNL     1      88.249  34.464  42.773  1.00  0.00     0.682 A 
HETATM    7  N7  UNL     1      88.982  35.145  41.968  1.00  0.00    -0.226 N 
ATOM      8  H7  UNL     1      88.690  35.215  40.993  1.00  0.00     0.177 HD
HETATM    9  N11 UNL     1      87.120  33.861  42.252  1.00  0.00    -0.177 N 
ATOM     10  H11 UNL     1      86.918  33.991  41.261  1.00  0.00     0.186 HD
ENDROOT
BRANCH   1  11
HETATM   11  N3  UNL     1      85.167  32.439  42.485  1.00  0.00    -0.340 N 
ATOM     12  H3  UNL     1      85.051  31.503  42.874  1.00  0.00     0.167 HD
BRANCH  11  13
HETATM   13  C9  UNL     1      84.170  32.802  41.557  1.00  0.00     0.070 A 
HETATM   14  C8  UNL     1      83.349  31.852  40.971  1.00  0.00     0.119 A 
HETATM   15  C5  UNL     1      82.272  32.139  40.146  1.00  0.00     0.071 A 
HETATM   16  C4  UNL     1      81.990  33.453  39.885  1.00  0.00     0.049 A 
HETATM   17  C3  UNL     1      82.775  34.448  40.442  1.00  0.00     0.036 A 
HETATM   18  C25 UNL     1      83.854  34.108  41.271  1.00  0.00     0.049 A 
BRANCH  14  19
HETATM   19  O3  UNL     1      83.595  30.515  41.202  1.00  0.00    -0.356 OA
ATOM     20  H3  UNL     1      82.833  29.975  41.376  1.00  0.00     0.218 HD
ENDBRANCH  14  19
BRANCH  15  21
HETATM   21  N2  UNL     1      81.481  31.109  39.588  1.00  0.00    -0.325 N 
HETATM   22  C6  UNL     1      81.833  29.992  38.859  1.00  0.00     0.218 C 
HETATM   23  C7  UNL     1      80.716  29.066  38.391  1.00  0.00     0.117 C 
HETATM   24  O2  UNL     1      83.010  29.689  38.556  1.00  0.00    -0.274 OA
ATOM     25  H2  UNL     1      80.479  31.209  39.753  1.00  0.00     0.169 HD
ENDBRANCH  15  21
BRANCH  17  26
HETATM   26  C2  UNL     1      82.493  35.852  40.185  1.00  0.00     0.251 C 
HETATM   27  N1  UNL     1      82.056  36.245  38.890  1.00  0.00    -0.361 N 
HETATM   28  C1  UNL     1      81.759  37.652  38.593  1.00  0.00     0.149 C 
ATOM     29  H1  UNL     1      81.947  35.542  38.159  1.00  0.00     0.162 HD
HETATM   30  O1  UNL     1      82.617  36.745  41.060  1.00  0.00    -0.268 OA
ENDBRANCH  17  26
ENDBRANCH  11  13
ENDBRANCH   1  11
BRANCH   3  31
HETATM   31  N4  UNL     1      87.927  33.381  46.073  1.00  0.00    -0.428 NA
BRANCH  31  32
HETATM   32  C13 UNL     1      88.172  33.150  47.355  1.00  0.00     0.250 C 
BRANCH  32  33
HETATM   33  C14 UNL     1      87.317  31.953  47.833  1.00  0.00     0.305 C 
BRANCH  33  34
HETATM   34  N5  UNL     1      86.008  32.482  48.210  1.00  0.00     0.091 N 
HETATM   35  C15 UNL     1      85.062  31.436  48.084  1.00  0.00     0.272 C 
HETATM   36  C16 UNL     1      83.920  31.388  49.018  1.00  0.00     0.030 C 
HETATM   37  C17 UNL     1      84.039  32.196  50.273  1.00  0.00     0.003 C 
HETATM   38  C18 UNL     1      84.733  33.521  49.974  1.00  0.00     0.030 C 
HETATM   39  C19 UNL     1      86.087  33.178  49.454  1.00  0.00     0.272 C 
ENDBRANCH  33  34
ENDBRANCH  32  33
ENDBRANCH  31  32
ENDBRANCH   3  31
BRANCH   7  40
HETATM   40  C21 UNL     1      90.179  35.809  42.359  1.00  0.00     0.139 C 
BRANCH  40  41
HETATM   41  C22 UNL     1      89.859  37.094  43.131  1.00  0.00     0.040 C 
BRANCH  41  42
HETATM   42  C23 UNL     1      90.994  37.258  44.117  1.00  0.00     0.123 C 
BRANCH  42  43
HETATM   43  N8  UNL     1      90.428  37.766  45.358  1.00  0.00    -0.367 N 
HETATM   44  C24 UNL     1      90.274  36.967  46.344  1.00  0.00     0.196 C 
HETATM   45  N9  UNL     1      89.727  37.425  47.565  1.00  0.00    -0.067 NA
HETATM   46  N10 UNL     1      90.650  35.618  46.226  1.00  0.00    -0.067 NA
ATOM     47  H8  UNL     1      90.159  38.746  45.439  1.00  0.00     0.161 HD
ENDBRANCH  42  43
ENDBRANCH  41  42
ENDBRANCH  40  41
ENDBRANCH   7  40
TORSDOF 13
ENDMDL
MODEL 2
REMARK VINA RESULT: -9.553836631      3.159      7.724
REMARK  13 active torsions:
REMARK  status: ('A' for Active; 'I' for Inactive)
REMARK       I    between atoms: N1_2  and  C2_4 
REMARK    1  A    between atoms: C2_4  and  C3_6 
REMARK    2  A    between atoms: C5_8  and  N2_9 
REMARK       I    between atoms: N2_9  and  C6_11 
REMARK    3  A    between atoms: C8_14  and  O3_15 
REMARK    4  A    between atoms: C9_17  and  N3_18 
REMARK    5  A    between atoms: N3_18  and  C10_20 
REMARK    6  A    between atoms: C12_22  and  N4_23 
REMARK    7  A    between atoms: N4_23  and  C13_24 
REMARK    8  A    between atoms: C13_24  and  C14_25 
REMARK    9  A    between atoms: C14_25  and  N5_26 
REMARK   10  A    between atoms: N7_35  and  C21_37 
REMARK   11  A    between atoms: C21_37  and  C22_38 
REMARK   12  A    between atoms: C22_38  and  C23_39 
REMARK   13  A    between atoms: C23_39  and  N8_40 
ROOT
HETATM    1  C10 UNL     1      86.535  33.889  42.543  1.00  0.00     0.126 A 
HETATM    2  C11 UNL     1      86.442  33.424  43.840  1.00  0.00     0.113 A 
HETATM    3  C12 UNL     1      85.237  33.382  44.555  1.00  0.00     0.190 A 
HETATM    4  N6  UNL     1      84.145  33.843  43.869  1.00  0.00    -0.165 N 
ATOM      5  H6  UNL     1      83.244  33.833  44.347  1.00  0.00     0.187 HD
HETATM    6  C20 UNL     1      84.180  34.300  42.625  1.00  0.00     0.682 A 
HETATM    7  N7  UNL     1      83.166  34.746  41.975  1.00  0.00    -0.226 N 
ATOM      8  H7  UNL     1      83.312  35.073  41.020  1.00  0.00     0.177 HD
HETATM    9  N11 UNL     1      85.404  34.311  41.982  1.00  0.00    -0.177 N 
ATOM     10  H11 UNL     1      85.442  34.661  41.025  1.00  0.00     0.186 HD
ENDROOT
BRANCH   1  11
HETATM   11  N3  UNL     1      87.802  33.935  41.964  1.00  0.00    -0.340 N 
ATOM     12  H3  UNL     1      87.790  34.049  40.951  1.00  0.00     0.167 HD
BRANCH  11  13
HETATM   13  C9  UNL     1      89.096  33.854  42.516  1.00  0.00     0.070 A 
HETATM   14  C8  UNL     1      89.805  32.664  42.525  1.00  0.00     0.119 A 
HETATM   15  C5  UNL     1      91.122  32.532  42.937  1.00  0.00     0.071 A 
HETATM   16  C4  UNL     1      91.780  33.651  43.369  1.00  0.00     0.049 A 
HETATM   17  C3  UNL     1      91.124  34.871  43.385  1.00  0.00     0.036 A 
HETATM   18  C25 UNL     1      89.791  34.955  42.958  1.00  0.00     0.049 A 
BRANCH  14  19
HETATM   19  O3  UNL     1      89.184  31.508  42.100  1.00  0.00    -0.356 OA
ATOM     20  H3  UNL     1      88.308  31.610  41.750  1.00  0.00     0.218 HD
ENDBRANCH  14  19
BRANCH  15  21
HETATM   21  N2  UNL     1      91.775  31.279  42.912  1.00  0.00    -0.325 N 
HETATM   22  C6  UNL     1      91.502  30.103  43.580  1.00  0.00     0.218 C 
HETATM   23  C7  UNL     1      92.422  28.912  43.331  1.00  0.00     0.117 C 
HETATM   24  O2  UNL     1      90.549  29.948  44.378  1.00  0.00    -0.274 OA
ATOM     25  H2  UNL     1      92.587  31.236  42.295  1.00  0.00     0.169 HD
ENDBRANCH  15  21
BRANCH  17  26
HETATM   26  C2  UNL     1      91.802  36.076  43.834  1.00  0.00     0.251 C 
HETATM   27  N1  UNL     1      92.851  35.966  44.789  1.00  0.00    -0.361 N 
HETATM   28  C1  UNL     1      93.561  37.160  45.265  1.00  0.00     0.149 C 
ATOM     29  H1  UNL     1      93.113  35.048  45.148  1.00  0.00     0.162 HD
HETATM   30  O1  UNL     1      91.505  37.223  43.417  1.00  0.00    -0.268 OA
ENDBRANCH  17  26
ENDBRANCH  11  13
ENDBRANCH   1  11
BRANCH   3  31
HETATM   31  N4  UNL     1      85.219  32.961  45.674  1.00  0.00    -0.428 NA
BRANCH  31  32
HETATM   32  C13 UNL     1      85.238  32.463  46.902  1.00  0.00     0.250 C 
BRANCH  32  33
HETATM   33  C14 UNL     1      86.581  32.820  47.580  1.00  0.00     0.305 C 
BRANCH  33  34
HETATM   34  N5  UNL     1      86.359  32.786  49.023  1.00  0.00     0.091 N 
HETATM   35  C15 UNL     1      85.015  33.159  49.266  1.00  0.00     0.272 C 
HETATM   36  C16 UNL     1      84.298  32.550  50.404  1.00  0.00     0.030 C 
HETATM   37  C17 UNL     1      84.885  31.299  50.981  1.00  0.00     0.003 C 
HETATM   38  C18 UNL     1      86.406  31.399  50.995  1.00  0.00     0.030 C 
HETATM   39  C19 UNL     1      86.831  31.557  49.576  1.00  0.00     0.272 C 
ENDBRANCH  33  34
ENDBRANCH  32  33
ENDBRANCH  31  32
ENDBRANCH   3  31
BRANCH   7  40
HETATM   40  C21 UNL     1      81.850  34.809  42.512  1.00  0.00     0.139 C 
BRANCH  40  41
HETATM   41  C22 UNL     1      80.957  35.717  41.657  1.00  0.00     0.040 C 
BRANCH  41  42
HETATM   42  C23 UNL     1      80.906  35.058  40.297  1.00  0.00     0.123 C 
BRANCH  42  43
HETATM   43  N8  UNL     1      81.299  36.052  39.312  1.00  0.00    -0.367 N 
HETATM   44  C24 UNL     1      82.394  35.895  38.670  1.00  0.00     0.196 C 
HETATM   45  N9  UNL     1      82.807  36.842  37.705  1.00  0.00    -0.067 NA
HETATM   46  N10 UNL     1      83.201  34.772  38.917  1.00  0.00    -0.067 NA
ATOM     47  H8  UNL     1      80.708  36.865  39.135  1.00  0.00     0.161 HD
ENDBRANCH  42  43
ENDBRANCH  41  42
ENDBRANCH  40  41
ENDBRANCH   7  40
TORSDOF 13
ENDMDL
MODEL 3
REMARK VINA RESULT: -9.528157861      3.455      8.328
REMARK  13 active torsions:
REMARK  status: ('A' for Active; 'I' for Inactive)
REMARK       I    between atoms: N1_2  and  C2_4 
REMARK    1  A    between atoms: C2_4  and  C3_6 
REMARK    2  A    between atoms: C5_8  and  N2_9 
REMARK       I    between atoms: N2_9  and  C6_11 
REMARK    3  A    between atoms: C8_14  and  O3_15 
REMARK    4  A    between atoms: C9_17  and  N3_18 
REMARK    5  A    between atoms: N3_18  and  C10_20 
REMARK    6  A    between atoms: C12_22  and  N4_23 
REMARK    7  A    between atoms: N4_23  and  C13_24 
REMARK    8  A    between atoms: C13_24  and  C14_25 
REMARK    9  A    between atoms: C14_25  and  N5_26 
REMARK   10  A    between atoms: N7_35  and  C21_37 
REMARK   11  A    between atoms: C21_37  and  C22_38 
REMARK   12  A    between atoms: C22_38  and  C23_39 
REMARK   13  A    between atoms: C23_39  and  N8_40 
ROOT
HETATM    1  C10 UNL     1      86.557  33.956  42.542  1.00  0.00     0.126 A 
HETATM    2  C11 UNL     1      86.501  33.479  43.837  1.00  0.00     0.113 A 
HETATM    3  C12 UNL     1      85.310  33.389  44.569  1.00  0.00     0.190 A 
HETATM    4  N6  UNL     1      84.191  33.814  43.904  1.00  0.00    -0.165 N 
ATOM      5  H6  UNL     1      83.299  33.769  44.396  1.00  0.00     0.187 HD
HETATM    6  C20 UNL     1      84.191  34.282  42.663  1.00  0.00     0.682 A 
HETATM    7  N7  UNL     1      83.152  34.695  42.032  1.00  0.00    -0.226 N 
ATOM      8  H7  UNL     1      83.271  35.034  41.077  1.00  0.00     0.177 HD
HETATM    9  N11 UNL     1      85.403  34.341  42.002  1.00  0.00    -0.177 N 
ATOM     10  H11 UNL     1      85.415  34.699  41.047  1.00  0.00     0.186 HD
ENDROOT
BRANCH   1  11
HETATM   11  N3  UNL     1      87.813  34.052  41.945  1.00  0.00    -0.340 N 
ATOM     12  H3  UNL     1      87.796  34.459  41.010  1.00  0.00     0.167 HD
BRANCH  11  13
HETATM   13  C9  UNL     1      89.101  33.692  42.390  1.00  0.00     0.070 A 
HETATM   14  C8  UNL     1      90.003  34.644  42.837  1.00  0.00     0.119 A 
HETATM   15  C5  UNL     1      91.237  34.360  43.401  1.00  0.00     0.071 A 
HETATM   16  C4  UNL     1      91.602  33.047  43.529  1.00  0.00     0.049 A 
HETATM   17  C3  UNL     1      90.743  32.049  43.100  1.00  0.00     0.036 A 
HETATM   18  C25 UNL     1      89.504  32.386  42.536  1.00  0.00     0.049 A 
BRANCH  14  19
HETATM   19  O3  UNL     1      89.681  35.981  42.726  1.00  0.00    -0.356 OA
ATOM     20  H3  UNL     1      88.763  36.198  42.831  1.00  0.00     0.218 HD
ENDBRANCH  14  19
BRANCH  15  21
HETATM   21  N2  UNL     1      92.100  35.392  43.835  1.00  0.00    -0.325 N 
HETATM   22  C6  UNL     1      92.440  35.812  45.104  1.00  0.00     0.218 C 
HETATM   23  C7  UNL     1      93.412  36.980  45.231  1.00  0.00     0.117 C 
HETATM   24  O2  UNL     1      92.003  35.298  46.160  1.00  0.00    -0.274 OA
ATOM     25  H2  UNL     1      92.547  35.914  43.082  1.00  0.00     0.169 HD
ENDBRANCH  15  21
BRANCH  17  26
HETATM   26  C2  UNL     1      91.105  30.647  43.231  1.00  0.00     0.251 C 
HETATM   27  N1  UNL     1      90.228  29.654  42.710  1.00  0.00    -0.361 N 
HETATM   28  C1  UNL     1      90.560  28.228  42.820  1.00  0.00     0.149 C 
ATOM     29  H1  UNL     1      89.360  29.936  42.254  1.00  0.00     0.162 HD
HETATM   30  O1  UNL     1      92.164  30.263  43.786  1.00  0.00    -0.268 OA
ENDBRANCH  17  26
ENDBRANCH  11  13
ENDBRANCH   1  11
BRANCH   3  31
HETATM   31  N4  UNL     1      85.324  32.959  45.686  1.00  0.00    -0.428 NA
BRANCH  31  32
HETATM   32  C13 UNL     1      85.324  32.437  46.904  1.00  0.00     0.250 C 
BRANCH  32  33
HETATM   33  C14 UNL     1      86.645  32.806  47.619  1.00  0.00     0.305 C 
BRANCH  33  34
HETATM   34  N5  UNL     1      86.394  32.728  49.056  1.00  0.00     0.091 N 
HETATM   35  C15 UNL     1      85.100  33.246  49.302  1.00  0.00     0.272 C 
HETATM   36  C16 UNL     1      84.295  32.672  50.397  1.00  0.00     0.030 C 
HETATM   37  C17 UNL     1      84.719  31.332  50.917  1.00  0.00     0.003 C 
HETATM   38  C18 UNL     1      86.242  31.249  50.955  1.00  0.00     0.030 C 
HETATM   39  C19 UNL     1      86.707  31.425  49.551  1.00  0.00     0.272 C 
ENDBRANCH  33  34
ENDBRANCH  32  33
ENDBRANCH  31  32
ENDBRANCH   3  31
BRANCH   7  40
HETATM   40  C21 UNL     1      81.842  34.707  42.589  1.00  0.00     0.139 C 
BRANCH  40  41
HETATM   41  C22 UNL     1      80.883  35.512  41.704  1.00  0.00     0.040 C 
BRANCH  41  42
HETATM   42  C23 UNL     1      80.946  34.851  40.345  1.00  0.00     0.123 C 
BRANCH  42  43
HETATM   43  N8  UNL     1      81.282  35.879  39.372  1.00  0.00    -0.367 N 
HETATM   44  C24 UNL     1      82.388  35.797  38.736  1.00  0.00     0.196 C 
HETATM   45  N9  UNL     1      82.746  36.778  37.783  1.00  0.00    -0.067 NA
HETATM   46  N10 UNL     1      83.262  34.724  38.976  1.00  0.00    -0.067 NA
ATOM     47  H8  UNL     1      80.642  36.656  39.200  1.00  0.00     0.161 HD
ENDBRANCH  42  43
ENDBRANCH  41  42
ENDBRANCH  40  41
ENDBRANCH   7  40
TORSDOF 13
ENDMDL
MODEL 4
REMARK VINA RESULT: -9.384111962      4.798     11.607
REMARK  13 active torsions:
REMARK  status: ('A' for Active; 'I' for Inactive)
REMARK       I    between atoms: N1_2  and  C2_4 
REMARK    1  A    between atoms: C2_4  and  C3_6 
REMARK    2  A    between atoms: C5_8  and  N2_9 
REMARK       I    between atoms: N2_9  and  C6_11 
REMARK    3  A    between atoms: C8_14  and  O3_15 
REMARK    4  A    between atoms: C9_17  and  N3_18 
REMARK    5  A    between atoms: N3_18  and  C10_20 
REMARK    6  A    between atoms: C12_22  and  N4_23 
REMARK    7  A    between atoms: N4_23  and  C13_24 
REMARK    8  A    between atoms: C13_24  and  C14_25 
REMARK    9  A    between atoms: C14_25  and  N5_26 
REMARK   10  A    between atoms: N7_35  and  C21_37 
REMARK   11  A    between atoms: C21_37  and  C22_38 
REMARK   12  A    between atoms: C22_38  and  C23_39 
REMARK   13  A    between atoms: C23_39  and  N8_40 
ROOT
HETATM    1  C10 UNL     1      82.277  29.608  39.954  1.00  0.00     0.126 A 
HETATM    2  C11 UNL     1      81.454  29.135  38.952  1.00  0.00     0.113 A 
HETATM    3  C12 UNL     1      81.630  27.886  38.341  1.00  0.00     0.190 A 
HETATM    4  N6  UNL     1      82.690  27.159  38.813  1.00  0.00    -0.165 N 
ATOM      5  H6  UNL     1      82.860  26.242  38.400  1.00  0.00     0.187 HD
HETATM    6  C20 UNL     1      83.510  27.567  39.772  1.00  0.00     0.682 A 
HETATM    7  N7  UNL     1      84.514  26.900  40.215  1.00  0.00    -0.226 N 
ATOM      8  H7  UNL     1      85.078  27.315  40.958  1.00  0.00     0.177 HD
HETATM    9  N11 UNL     1      83.275  28.810  40.328  1.00  0.00    -0.177 N 
ATOM     10  H11 UNL     1      83.900  29.134  41.066  1.00  0.00     0.186 HD
ENDROOT
BRANCH   1  11
HETATM   11  N3  UNL     1      82.033  30.893  40.437  1.00  0.00    -0.340 N 
ATOM     12  H3  UNL     1      81.121  31.001  40.880  1.00  0.00     0.167 HD
BRANCH  11  13
HETATM   13  C9  UNL     1      82.808  32.069  40.426  1.00  0.00     0.070 A 
HETATM   14  C8  UNL     1      82.254  33.298  40.105  1.00  0.00     0.119 A 
HETATM   15  C5  UNL     1      82.919  34.511  40.190  1.00  0.00     0.071 A 
HETATM   16  C4  UNL     1      84.218  34.508  40.621  1.00  0.00     0.049 A 
HETATM   17  C3  UNL     1      84.828  33.311  40.956  1.00  0.00     0.036 A 
HETATM   18  C25 UNL     1      84.114  32.108  40.855  1.00  0.00     0.049 A 
BRANCH  14  19
HETATM   19  O3  UNL     1      80.949  33.352  39.663  1.00  0.00    -0.356 OA
ATOM     20  H3  UNL     1      80.756  32.866  38.871  1.00  0.00     0.218 HD
ENDBRANCH  14  19
BRANCH  15  21
HETATM   21  N2  UNL     1      82.279  35.723  39.845  1.00  0.00    -0.325 N 
HETATM   22  C6  UNL     1      82.339  36.482  38.694  1.00  0.00     0.218 C 
HETATM   23  C7  UNL     1      81.515  37.765  38.643  1.00  0.00     0.117 C 
HETATM   24  O2  UNL     1      83.026  36.188  37.689  1.00  0.00    -0.274 OA
ATOM     25  H2  UNL     1      81.668  36.101  40.570  1.00  0.00     0.169 HD
ENDBRANCH  15  21
BRANCH  17  26
HETATM   26  C2  UNL     1      86.205  33.281  41.422  1.00  0.00     0.251 C 
HETATM   27  N1  UNL     1      86.779  32.037  41.808  1.00  0.00    -0.361 N 
HETATM   28  C1  UNL     1      88.167  31.966  42.281  1.00  0.00     0.149 C 
ATOM     29  H1  UNL     1      86.221  31.185  41.755  1.00  0.00     0.162 HD
HETATM   30  O1  UNL     1      86.922  34.309  41.503  1.00  0.00    -0.268 OA
ENDBRANCH  17  26
ENDBRANCH  11  13
ENDBRANCH   1  11
BRANCH   3  31
HETATM   31  N4  UNL     1      80.879  27.528  37.483  1.00  0.00    -0.428 NA
BRANCH  31  32
HETATM   32  C13 UNL     1      80.076  27.089  36.523  1.00  0.00     0.250 C 
BRANCH  32  33
HETATM   33  C14 UNL     1      80.315  25.577  36.306  1.00  0.00     0.305 C 
BRANCH  33  34
HETATM   34  N5  UNL     1      80.496  25.371  34.871  1.00  0.00     0.091 N 
HETATM   35  C15 UNL     1      80.595  23.977  34.639  1.00  0.00     0.272 C 
HETATM   36  C16 UNL     1      80.057  23.421  33.382  1.00  0.00     0.030 C 
HETATM   37  C17 UNL     1      79.097  24.280  32.619  1.00  0.00     0.003 C 
HETATM   38  C18 UNL     1      79.537  25.738  32.689  1.00  0.00     0.030 C 
HETATM   39  C19 UNL     1      79.526  26.113  34.131  1.00  0.00     0.272 C 
ENDBRANCH  33  34
ENDBRANCH  32  33
ENDBRANCH  31  32
ENDBRANCH   3  31
BRANCH   7  40
HETATM   40  C21 UNL     1      84.886  25.616  39.729  1.00  0.00     0.139 C 
BRANCH  40  41
HETATM   41  C22 UNL     1      85.874  25.742  38.562  1.00  0.00     0.040 C 
BRANCH  41  42
HETATM   42  C23 UNL     1      85.312  24.863  37.468  1.00  0.00     0.123 C 
BRANCH  42  43
HETATM   43  N8  UNL     1      86.432  24.369  36.682  1.00  0.00    -0.367 N 
HETATM   44  C24 UNL     1      86.364  24.411  35.406  1.00  0.00     0.196 C 
HETATM   45  N9  UNL     1      87.434  23.940  34.611  1.00  0.00    -0.067 NA
HETATM   46  N10 UNL     1      85.220  24.930  34.777  1.00  0.00    -0.067 NA
ATOM     47  H8  UNL     1      87.261  23.994  37.144  1.00  0.00     0.161 HD
ENDBRANCH  42  43
ENDBRANCH  41  42
ENDBRANCH  40  41
ENDBRANCH   7  40
TORSDOF 13
ENDMDL
MODEL 5
REMARK VINA RESULT: -9.376191368      1.325      3.547
REMARK  13 active torsions:
REMARK  status: ('A' for Active; 'I' for Inactive)
REMARK       I    between atoms: N1_2  and  C2_4 
REMARK    1  A    between atoms: C2_4  and  C3_6 
REMARK    2  A    between atoms: C5_8  and  N2_9 
REMARK       I    between atoms: N2_9  and  C6_11 
REMARK    3  A    between atoms: C8_14  and  O3_15 
REMARK    4  A    between atoms: C9_17  and  N3_18 
REMARK    5  A    between atoms: N3_18  and  C10_20 
REMARK    6  A    between atoms: C12_22  and  N4_23 
REMARK    7  A    between atoms: N4_23  and  C13_24 
REMARK    8  A    between atoms: C13_24  and  C14_25 
REMARK    9  A    between atoms: C14_25  and  N5_26 
REMARK   10  A    between atoms: N7_35  and  C21_37 
REMARK   11  A    between atoms: C21_37  and  C22_38 
REMARK   12  A    between atoms: C22_38  and  C23_39 
REMARK   13  A    between atoms: C23_39  and  N8_40 
ROOT
HETATM    1  C10 UNL     1      85.000  33.870  43.586  1.00  0.00     0.126 A 
HETATM    2  C11 UNL     1      85.313  33.344  44.824  1.00  0.00     0.113 A 
HETATM    3  C12 UNL     1      86.628  33.184  45.279  1.00  0.00     0.190 A 
HETATM    4  N6  UNL     1      87.595  33.589  44.399  1.00  0.00    -0.165 N 
ATOM      5  H6  UNL     1      88.570  33.492  44.684  1.00  0.00     0.187 HD
HETATM    6  C20 UNL     1      87.349  34.099  43.199  1.00  0.00     0.682 A 
HETATM    7  N7  UNL     1      88.247  34.472  42.360  1.00  0.00    -0.226 N 
ATOM      8  H7  UNL     1      87.940  34.851  41.464  1.00  0.00     0.177 HD
HETATM    9  N11 UNL     1      86.027  34.227  42.818  1.00  0.00    -0.177 N 
ATOM     10  H11 UNL     1      85.826  34.618  41.898  1.00  0.00     0.186 HD
ENDROOT
BRANCH   1  11
HETATM   11  N3  UNL     1      83.654  33.920  43.228  1.00  0.00    -0.340 N 
ATOM     12  H3  UNL     1      83.022  34.063  44.015  1.00  0.00     0.167 HD
BRANCH  11  13
HETATM   13  C9  UNL     1      83.003  33.809  41.983  1.00  0.00     0.070 A 
HETATM   14  C8  UNL     1      82.542  34.927  41.307  1.00  0.00     0.119 A 
HETATM   15  C5  UNL     1      82.003  34.912  40.030  1.00  0.00     0.071 A 
HETATM   16  C4  UNL     1      81.914  33.711  39.380  1.00  0.00     0.049 A 
HETATM   17  C3  UNL     1      82.358  32.557  40.004  1.00  0.00     0.036 A 
HETATM   18  C25 UNL     1      82.897  32.623  41.298  1.00  0.00     0.049 A 
BRANCH  14  19
HETATM   19  O3  UNL     1      82.608  36.160  41.922  1.00  0.00    -0.356 OA
ATOM     20  H3  UNL     1      81.776  36.559  42.146  1.00  0.00     0.218 HD
ENDBRANCH  14  19
BRANCH  15  21
HETATM   21  N2  UNL     1      81.557  36.100  39.408  1.00  0.00    -0.325 N 
HETATM   22  C6  UNL     1      82.056  36.799  38.329  1.00  0.00     0.218 C 
HETATM   23  C7  UNL     1      81.330  38.072  37.906  1.00  0.00     0.117 C 
HETATM   24  O2  UNL     1      83.068  36.458  37.673  1.00  0.00    -0.274 OA
ATOM     25  H2  UNL     1      80.723  36.511  39.830  1.00  0.00     0.169 HD
ENDBRANCH  15  21
BRANCH  17  26
HETATM   26  C2  UNL     1      82.281  31.269  39.333  1.00  0.00     0.251 C 
HETATM   27  N1  UNL     1      81.009  30.656  39.155  1.00  0.00    -0.361 N 
HETATM   28  C1  UNL     1      80.890  29.357  38.481  1.00  0.00     0.149 C 
ATOM     29  H1  UNL     1      80.171  31.123  39.500  1.00  0.00     0.162 HD
HETATM   30  O1  UNL     1      83.292  30.664  38.898  1.00  0.00    -0.268 OA
ENDBRANCH  17  26
ENDBRANCH  11  13
ENDBRANCH   1  11
BRANCH   3  31
HETATM   31  N4  UNL     1      86.835  32.728  46.366  1.00  0.00    -0.428 NA
BRANCH  31  32
HETATM   32  C13 UNL     1      87.099  32.191  47.549  1.00  0.00     0.250 C 
BRANCH  32  33
HETATM   33  C14 UNL     1      87.388  33.317  48.569  1.00  0.00     0.305 C 
BRANCH  33  34
HETATM   34  N5  UNL     1      86.686  32.971  49.803  1.00  0.00     0.091 N 
HETATM   35  C15 UNL     1      85.353  33.434  49.690  1.00  0.00     0.272 C 
HETATM   36  C16 UNL     1      84.271  32.665  50.335  1.00  0.00     0.030 C 
HETATM   37  C17 UNL     1      84.583  31.252  50.721  1.00  0.00     0.003 C 
HETATM   38  C18 UNL     1      86.011  31.163  51.249  1.00  0.00     0.030 C 
HETATM   39  C19 UNL     1      86.899  31.599  50.135  1.00  0.00     0.272 C 
ENDBRANCH  33  34
ENDBRANCH  32  33
ENDBRANCH  31  32
ENDBRANCH   3  31
BRANCH   7  40
HETATM   40  C21 UNL     1      89.645  34.385  42.608  1.00  0.00     0.139 C 
BRANCH  40  41
HETATM   41  C22 UNL     1      90.203  35.744  43.051  1.00  0.00     0.040 C 
BRANCH  41  42
HETATM   42  C23 UNL     1      90.874  35.484  44.381  1.00  0.00     0.123 C 
BRANCH  42  43
HETATM   43  N8  UNL     1      90.088  36.151  45.407  1.00  0.00    -0.367 N 
HETATM   44  C24 UNL     1      90.687  36.666  46.413  1.00  0.00     0.196 C 
HETATM   45  N9  UNL     1      89.955  37.322  47.429  1.00  0.00    -0.067 NA
HETATM   46  N10 UNL     1      92.085  36.588  46.518  1.00  0.00    -0.067 NA
ATOM     47  H8  UNL     1      89.073  36.206  45.325  1.00  0.00     0.161 HD
ENDBRANCH  42  43
ENDBRANCH  41  42
ENDBRANCH  40  41
ENDBRANCH   7  40
TORSDOF 13
ENDMDL
