MODEL 1
REMARK VINA RESULT: -10.233358695      0.000      0.000
REMARK  13 active torsions:
REMARK  status: ('A' for Active; 'I' for Inactive)
REMARK    1  A    between atoms: C2_2  and  O1_3 
REMARK    2  A    between atoms: C5_11  and  O2_12 
REMARK    3  A    between atoms: O2_12  and  C6_13 
REMARK    4  A    between atoms: C6_13  and  C7_14 
REMARK    5  A    between atoms: C7_14  and  C8_15 
REMARK    6  A    between atoms: C8_15  and  C9_16 
REMARK    7  A    between atoms: C9_16  and  C10_17 
REMARK    8  A    between atoms: C10_17  and  N3_18 
REMARK    9  A    between atoms: C14_25  and  N5_26 
REMARK   10  A    between atoms: N5_26  and  C15_28 
REMARK   11  A    between atoms: C23_42  and  C24_43 
REMARK   12  A    between atoms: C24_43  and  O3_44 
REMARK   13  A    between atoms: C24_43  and  C25_46 
ROOT
HETATM    1  C6  UNL     1      88.661  33.612  41.252  1.00  0.00     0.178 C 
ENDROOT
BRANCH   1   2
HETATM    2  O2  UNL     1      87.471  32.899  41.292  1.00  0.00    -0.322 OA
BRANCH   2   3
HETATM    3  C5  UNL     1      86.222  33.375  41.581  1.00  0.00     0.224 A 
HETATM    4  N2  UNL     1      85.672  33.399  42.781  1.00  0.00    -0.319 N 
HETATM    5  C4  UNL     1      84.449  33.937  42.650  1.00  0.00     0.078 A 
ATOM      6  H2  UNL     1      86.097  33.069  43.647  1.00  0.00     0.169 HD
HETATM    7  C3  UNL     1      83.576  34.146  43.596  1.00  0.00     0.118 A 
HETATM    8  C22 UNL     1      84.225  34.257  41.347  1.00  0.00     0.077 A 
HETATM    9  N1  UNL     1      82.345  34.717  43.304  1.00  0.00    -0.362 N 
HETATM   10  C2  UNL     1      82.005  35.104  41.940  1.00  0.00     0.161 A 
ATOM     11  H1  UNL     1      81.669  34.867  44.054  1.00  0.00     0.162 HD
HETATM   12  C1  UNL     1      80.812  34.215  41.594  1.00  0.00     0.077 C 
HETATM   13  C23 UNL     1      83.043  34.832  40.940  1.00  0.00     0.061 A 
HETATM   14  N8  UNL     1      85.332  33.908  40.678  1.00  0.00    -0.319 N 
ATOM     15  H8  UNL     1      85.488  34.017  39.676  1.00  0.00     0.169 HD
BRANCH  10  16
HETATM   16  O1  UNL     1      81.659  36.442  42.051  1.00  0.00    -0.367 OA
ATOM     17  H1  UNL     1      82.417  37.015  42.077  1.00  0.00     0.213 HD
ENDBRANCH  10  16
BRANCH  13  18
HETATM   18  C24 UNL     1      82.898  35.087  39.520  1.00  0.00     0.105 C 
BRANCH  18  19
HETATM   19  O3  UNL     1      83.321  34.118  38.734  1.00  0.00    -0.358 OA
ATOM     20  H3  UNL     1      83.836  33.446  39.165  1.00  0.00     0.217 HD
ENDBRANCH  18  19
BRANCH  18  21
HETATM   21  C25 UNL     1      82.369  36.226  38.803  1.00  0.00     0.066 A 
HETATM   22  C26 UNL     1      81.296  37.049  38.961  1.00  0.00     0.034 A 
HETATM   23  C27 UNL     1      81.296  38.047  37.967  1.00  0.00     0.019 A 
HETATM   24  C28 UNL     1      82.400  37.783  37.224  1.00  0.00     0.088 A 
HETATM   25  N9  UNL     1      83.041  36.716  37.702  1.00  0.00    -0.364 N 
ATOM     26  H9  UNL     1      83.898  36.323  37.312  1.00  0.00     0.165 HD
ENDBRANCH  18  21
ENDBRANCH  13  18
ENDBRANCH   2   3
ENDBRANCH   1   2
BRANCH   1  27
HETATM   27  C7  UNL     1      89.416  33.581  42.512  1.00  0.00     0.027 C 
BRANCH  27  28
HETATM   28  C8  UNL     1      89.154  34.579  43.544  1.00  0.00     0.004 C 
BRANCH  28  29
HETATM   29  C9  UNL     1      89.066  34.197  44.955  1.00  0.00     0.020 C 
BRANCH  29  30
HETATM   30  C10 UNL     1      89.517  35.199  45.958  1.00  0.00     0.138 C 
BRANCH  30  31
HETATM   31  N3  UNL     1      90.464  34.595  46.888  1.00  0.00    -0.226 N 
HETATM   32  C11 UNL     1      90.202  34.144  48.052  1.00  0.00     0.681 A 
HETATM   33  N4  UNL     1      91.260  33.623  48.762  1.00  0.00    -0.176 N 
HETATM   34  N6  UNL     1      89.006  34.092  48.651  1.00  0.00    -0.176 N 
HETATM   35  C12 UNL     1      91.106  33.092  49.985  1.00  0.00     0.127 A 
ATOM     36  H4  UNL     1      92.191  33.640  48.345  1.00  0.00     0.186 HD
HETATM   37  C13 UNL     1      89.877  33.048  50.578  1.00  0.00     0.032 A 
HETATM   38  N7  UNL     1      92.039  32.502  50.895  1.00  0.00    -0.375 N 
HETATM   39  C14 UNL     1      88.782  33.575  49.870  1.00  0.00     0.127 A 
HETATM   40  C20 UNL     1      89.979  32.425  51.910  1.00  0.00     0.066 C 
HETATM   41  C21 UNL     1      91.320  31.756  51.902  1.00  0.00     0.126 C 
ATOM     42  H7  UNL     1      93.053  32.593  50.842  1.00  0.00     0.161 HD
ATOM     43  H6  UNL     1      88.208  34.473  48.145  1.00  0.00     0.186 HD
ATOM     44  H3  UNL     1      91.433  34.528  46.577  1.00  0.00     0.177 HD
BRANCH  39  45
HETATM   45  N5  UNL     1      87.651  33.514  50.426  1.00  0.00    -0.371 N 
ATOM     46  H5  UNL     1      87.524  34.054  51.282  1.00  0.00     0.161 HD
BRANCH  45  47
HETATM   47  C15 UNL     1      86.548  32.768  49.969  1.00  0.00     0.083 C 
HETATM   48  C16 UNL     1      85.234  33.495  49.908  1.00  0.00     0.025 C 
HETATM   49  C17 UNL     1      84.261  32.313  49.834  1.00  0.00     0.002 C 
HETATM   50  C18 UNL     1      84.889  31.247  50.698  1.00  0.00     0.002 C 
HETATM   51  C19 UNL     1      86.263  31.711  51.061  1.00  0.00     0.025 C 
ENDBRANCH  45  47
ENDBRANCH  39  45
ENDBRANCH  30  31
ENDBRANCH  29  30
ENDBRANCH  28  29
ENDBRANCH  27  28
ENDBRANCH   1  27
TORSDOF 13
ENDMDL
MODEL 2
REMARK VINA RESULT: -10.170695095      6.655      9.030
REMARK  13 active torsions:
REMARK  status: ('A' for Active; 'I' for Inactive)
REMARK    1  A    between atoms: C2_2  and  O1_3 
REMARK    2  A    between atoms: C5_11  and  O2_12 
REMARK    3  A    between atoms: O2_12  and  C6_13 
REMARK    4  A    between atoms: C6_13  and  C7_14 
REMARK    5  A    between atoms: C7_14  and  C8_15 
REMARK    6  A    between atoms: C8_15  and  C9_16 
REMARK    7  A    between atoms: C9_16  and  C10_17 
REMARK    8  A    between atoms: C10_17  and  N3_18 
REMARK    9  A    between atoms: C14_25  and  N5_26 
REMARK   10  A    between atoms: N5_26  and  C15_28 
REMARK   11  A    between atoms: C23_42  and  C24_43 
REMARK   12  A    between atoms: C24_43  and  O3_44 
REMARK   13  A    between atoms: C24_43  and  C25_46 
ROOT
HETATM    1  C6  UNL     1      82.410  31.704  39.879  1.00  0.00     0.178 C 
ENDROOT
BRANCH   1   2
HETATM    2  O2  UNL     1      82.712  30.717  38.950  1.00  0.00    -0.322 OA
BRANCH   2   3
HETATM    3  C5  UNL     1      82.295  29.415  38.951  1.00  0.00     0.224 A 
HETATM    4  N2  UNL     1      81.923  28.733  40.019  1.00  0.00    -0.319 N 
HETATM    5  C4  UNL     1      81.587  27.499  39.609  1.00  0.00     0.078 A 
ATOM      6  H2  UNL     1      81.895  29.080  40.978  1.00  0.00     0.169 HD
HETATM    7  C3  UNL     1      81.160  26.514  40.348  1.00  0.00     0.118 A 
HETATM    8  C22 UNL     1      81.751  27.403  38.262  1.00  0.00     0.077 A 
HETATM    9  N1  UNL     1      80.850  25.288  39.776  1.00  0.00    -0.362 N 
HETATM   10  C2  UNL     1      80.983  25.078  38.339  1.00  0.00     0.161 A 
ATOM     11  H1  UNL     1      80.524  24.524  40.368  1.00  0.00     0.162 HD
HETATM   12  C1  UNL     1      82.053  23.994  38.226  1.00  0.00     0.077 C 
HETATM   13  C23 UNL     1      81.471  26.238  37.585  1.00  0.00     0.061 A 
HETATM   14  N8  UNL     1      82.192  28.598  37.850  1.00  0.00    -0.319 N 
ATOM     15  H8  UNL     1      82.414  28.858  36.888  1.00  0.00     0.169 HD
BRANCH  10  16
HETATM   16  O1  UNL     1      79.729  24.634  37.950  1.00  0.00    -0.367 OA
ATOM     17  H1  UNL     1      79.607  23.703  38.099  1.00  0.00     0.213 HD
ENDBRANCH  10  16
BRANCH  13  18
HETATM   18  C24 UNL     1      81.728  26.236  36.158  1.00  0.00     0.105 C 
BRANCH  18  19
HETATM   19  O3  UNL     1      82.987  26.422  35.818  1.00  0.00    -0.358 OA
ATOM     20  H3  UNL     1      83.622  25.980  36.369  1.00  0.00     0.217 HD
ENDBRANCH  18  19
BRANCH  18  21
HETATM   21  C25 UNL     1      80.842  26.069  35.028  1.00  0.00     0.066 A 
HETATM   22  C26 UNL     1      79.509  26.248  34.815  1.00  0.00     0.034 A 
HETATM   23  C27 UNL     1      79.187  25.968  33.472  1.00  0.00     0.019 A 
HETATM   24  C28 UNL     1      80.370  25.621  32.907  1.00  0.00     0.088 A 
HETATM   25  N9  UNL     1      81.352  25.674  33.808  1.00  0.00    -0.364 N 
ATOM     26  H9  UNL     1      82.332  25.456  33.623  1.00  0.00     0.165 HD
ENDBRANCH  18  21
ENDBRANCH  13  18
ENDBRANCH   2   3
ENDBRANCH   1   2
BRANCH   1  27
HETATM   27  C7  UNL     1      83.433  32.753  39.986  1.00  0.00     0.027 C 
BRANCH  27  28
HETATM   28  C8  UNL     1      84.306  32.806  41.155  1.00  0.00     0.004 C 
BRANCH  28  29
HETATM   29  C9  UNL     1      85.314  33.859  41.294  1.00  0.00     0.020 C 
BRANCH  29  30
HETATM   30  C10 UNL     1      86.491  33.560  42.152  1.00  0.00     0.138 C 
BRANCH  30  31
HETATM   31  N3  UNL     1      87.684  33.381  41.332  1.00  0.00    -0.226 N 
HETATM   32  C11 UNL     1      88.783  34.021  41.440  1.00  0.00     0.681 A 
HETATM   33  N4  UNL     1      89.778  33.689  40.549  1.00  0.00    -0.176 N 
HETATM   34  N6  UNL     1      89.089  34.959  42.345  1.00  0.00    -0.176 N 
HETATM   35  C12 UNL     1      90.987  34.270  40.580  1.00  0.00     0.127 A 
ATOM     36  H4  UNL     1      89.591  32.978  39.842  1.00  0.00     0.186 HD
HETATM   37  C13 UNL     1      91.279  35.226  41.512  1.00  0.00     0.032 A 
HETATM   38  N7  UNL     1      92.155  34.092  39.774  1.00  0.00    -0.375 N 
HETATM   39  C14 UNL     1      90.277  35.578  42.433  1.00  0.00     0.127 A 
HETATM   40  C20 UNL     1      92.661  35.705  41.331  1.00  0.00     0.066 C 
HETATM   41  C21 UNL     1      93.294  34.675  40.444  1.00  0.00     0.126 C 
ATOM     42  H7  UNL     1      92.180  33.626  38.867  1.00  0.00     0.161 HD
ATOM     43  H6  UNL     1      88.367  35.222  43.015  1.00  0.00     0.186 HD
ATOM     44  H3  UNL     1      87.635  32.673  40.599  1.00  0.00     0.177 HD
BRANCH  39  45
HETATM   45  N5  UNL     1      90.567  36.452  43.296  1.00  0.00    -0.371 N 
ATOM     46  H5  UNL     1      91.018  37.303  42.962  1.00  0.00     0.161 HD
BRANCH  45  47
HETATM   47  C15 UNL     1      90.322  36.357  44.679  1.00  0.00     0.083 C 
HETATM   48  C16 UNL     1      90.112  37.654  45.407  1.00  0.00     0.025 C 
HETATM   49  C17 UNL     1      90.341  37.205  46.856  1.00  0.00     0.002 C 
HETATM   50  C18 UNL     1      91.423  36.158  46.764  1.00  0.00     0.002 C 
HETATM   51  C19 UNL     1      91.639  35.856  45.316  1.00  0.00     0.025 C 
ENDBRANCH  45  47
ENDBRANCH  39  45
ENDBRANCH  30  31
ENDBRANCH  29  30
ENDBRANCH  28  29
ENDBRANCH  27  28
ENDBRANCH   1  27
TORSDOF 13
ENDMDL
MODEL 3
REMARK VINA RESULT: -9.950518766      6.606      8.991
REMARK  13 active torsions:
REMARK  status: ('A' for Active; 'I' for Inactive)
REMARK    1  A    between atoms: C2_2  and  O1_3 
REMARK    2  A    between atoms: C5_11  and  O2_12 
REMARK    3  A    between atoms: O2_12  and  C6_13 
REMARK    4  A    between atoms: C6_13  and  C7_14 
REMARK    5  A    between atoms: C7_14  and  C8_15 
REMARK    6  A    between atoms: C8_15  and  C9_16 
REMARK    7  A    between atoms: C9_16  and  C10_17 
REMARK    8  A    between atoms: C10_17  and  N3_18 
REMARK    9  A    between atoms: C14_25  and  N5_26 
REMARK   10  A    between atoms: N5_26  and  C15_28 
REMARK   11  A    between atoms: C23_42  and  C24_43 
REMARK   12  A    between atoms: C24_43  and  O3_44 
REMARK   13  A    between atoms: C24_43  and  C25_46 
ROOT
HETATM    1  C6  UNL     1      82.627  31.306  40.077  1.00  0.00     0.178 C 
ENDROOT
BRANCH   1   2
HETATM    2  O2  UNL     1      82.600  30.484  38.958  1.00  0.00    -0.322 OA
BRANCH   2   3
HETATM    3  C5  UNL     1      82.193  29.180  38.891  1.00  0.00     0.224 A 
HETATM    4  N2  UNL     1      81.845  28.435  39.925  1.00  0.00    -0.319 N 
HETATM    5  C4  UNL     1      81.512  27.224  39.451  1.00  0.00     0.078 A 
ATOM      6  H2  UNL     1      81.832  28.725  40.902  1.00  0.00     0.169 HD
HETATM    7  C3  UNL     1      81.105  26.194  40.138  1.00  0.00     0.118 A 
HETATM    8  C22 UNL     1      81.652  27.206  38.097  1.00  0.00     0.077 A 
HETATM    9  N1  UNL     1      80.794  25.000  39.502  1.00  0.00    -0.362 N 
HETATM   10  C2  UNL     1      80.904  24.875  38.054  1.00  0.00     0.161 A 
ATOM     11  H1  UNL     1      80.485  24.201  40.055  1.00  0.00     0.162 HD
HETATM   12  C1  UNL     1      81.979  23.808  37.860  1.00  0.00     0.077 C 
HETATM   13  C23 UNL     1      81.369  26.080  37.359  1.00  0.00     0.061 A 
HETATM   14  N8  UNL     1      82.077  28.427  37.747  1.00  0.00    -0.319 N 
ATOM     15  H8  UNL     1      82.279  28.744  36.798  1.00  0.00     0.169 HD
BRANCH  10  16
HETATM   16  O1  UNL     1      79.645  24.443  37.662  1.00  0.00    -0.367 OA
ATOM     17  H1  UNL     1      79.034  25.160  37.538  1.00  0.00     0.213 HD
ENDBRANCH  10  16
BRANCH  13  18
HETATM   18  C24 UNL     1      81.600  26.163  35.930  1.00  0.00     0.105 C 
BRANCH  18  19
HETATM   19  O3  UNL     1      82.837  26.453  35.582  1.00  0.00    -0.358 OA
ATOM     20  H3  UNL     1      83.268  25.798  35.045  1.00  0.00     0.217 HD
ENDBRANCH  18  19
BRANCH  18  21
HETATM   21  C25 UNL     1      80.708  25.985  34.806  1.00  0.00     0.066 A 
HETATM   22  C26 UNL     1      79.358  26.030  34.632  1.00  0.00     0.034 A 
HETATM   23  C27 UNL     1      79.034  25.821  33.277  1.00  0.00     0.019 A 
HETATM   24  C28 UNL     1      80.232  25.652  32.666  1.00  0.00     0.088 A 
HETATM   25  N9  UNL     1      81.227  25.745  33.550  1.00  0.00    -0.364 N 
ATOM     26  H9  UNL     1      82.219  25.653  33.331  1.00  0.00     0.165 HD
ENDBRANCH  18  21
ENDBRANCH  13  18
ENDBRANCH   2   3
ENDBRANCH   1   2
BRANCH   1  27
HETATM   27  C7  UNL     1      82.379  32.723  39.779  1.00  0.00     0.027 C 
BRANCH  27  28
HETATM   28  C8  UNL     1      81.331  33.447  40.493  1.00  0.00     0.004 C 
BRANCH  28  29
HETATM   29  C9  UNL     1      81.660  34.565  41.380  1.00  0.00     0.020 C 
BRANCH  29  30
HETATM   30  C10 UNL     1      83.083  34.715  41.783  1.00  0.00     0.138 C 
BRANCH  30  31
HETATM   31  N3  UNL     1      83.263  34.309  43.172  1.00  0.00    -0.226 N 
HETATM   32  C11 UNL     1      84.355  33.939  43.720  1.00  0.00     0.681 A 
HETATM   33  N4  UNL     1      84.289  33.591  45.050  1.00  0.00    -0.176 N 
HETATM   34  N6  UNL     1      85.566  33.881  43.154  1.00  0.00    -0.176 N 
HETATM   35  C12 UNL     1      85.374  33.214  45.743  1.00  0.00     0.127 A 
ATOM     36  H4  UNL     1      83.386  33.621  45.524  1.00  0.00     0.186 HD
HETATM   37  C13 UNL     1      86.602  33.162  45.146  1.00  0.00     0.032 A 
HETATM   38  N7  UNL     1      85.547  32.815  47.106  1.00  0.00    -0.375 N 
HETATM   39  C14 UNL     1      86.692  33.515  43.789  1.00  0.00     0.127 A 
HETATM   40  C20 UNL     1      87.618  32.717  46.117  1.00  0.00     0.066 C 
HETATM   41  C21 UNL     1      86.949  32.872  47.449  1.00  0.00     0.126 C 
ATOM     42  H7  UNL     1      84.797  32.535  47.738  1.00  0.00     0.161 HD
ATOM     43  H6  UNL     1      85.640  34.134  42.169  1.00  0.00     0.186 HD
ATOM     44  H3  UNL     1      82.433  34.322  43.766  1.00  0.00     0.177 HD
BRANCH  39  45
HETATM   45  N5  UNL     1      87.834  33.475  43.256  1.00  0.00    -0.371 N 
ATOM     46  H5  UNL     1      88.369  32.613  43.365  1.00  0.00     0.161 HD
BRANCH  45  47
HETATM   47  C15 UNL     1      88.438  34.514  42.523  1.00  0.00     0.083 C 
HETATM   48  C16 UNL     1      89.296  34.097  41.362  1.00  0.00     0.025 C 
HETATM   49  C17 UNL     1      90.104  35.381  41.133  1.00  0.00     0.002 C 
HETATM   50  C18 UNL     1      90.322  35.946  42.514  1.00  0.00     0.002 C 
HETATM   51  C19 UNL     1      89.485  35.152  43.466  1.00  0.00     0.025 C 
ENDBRANCH  45  47
ENDBRANCH  39  45
ENDBRANCH  30  31
ENDBRANCH  29  30
ENDBRANCH  28  29
ENDBRANCH  27  28
ENDBRANCH   1  27
TORSDOF 13
ENDMDL
MODEL 4
REMARK VINA RESULT: -9.859707743      3.217      5.249
REMARK  13 active torsions:
REMARK  status: ('A' for Active; 'I' for Inactive)
REMARK    1  A    between atoms: C2_2  and  O1_3 
REMARK    2  A    between atoms: C5_11  and  O2_12 
REMARK    3  A    between atoms: O2_12  and  C6_13 
REMARK    4  A    between atoms: C6_13  and  C7_14 
REMARK    5  A    between atoms: C7_14  and  C8_15 
REMARK    6  A    between atoms: C8_15  and  C9_16 
REMARK    7  A    between atoms: C9_16  and  C10_17 
REMARK    8  A    between atoms: C10_17  and  N3_18 
REMARK    9  A    between atoms: C14_25  and  N5_26 
REMARK   10  A    between atoms: N5_26  and  C15_28 
REMARK   11  A    between atoms: C23_42  and  C24_43 
REMARK   12  A    between atoms: C24_43  and  O3_44 
REMARK   13  A    between atoms: C24_43  and  C25_46 
ROOT
HETATM    1  C6  UNL     1      89.649  38.424  44.219  1.00  0.00     0.178 C 
ENDROOT
BRANCH   1   2
HETATM    2  O2  UNL     1      90.194  37.585  43.256  1.00  0.00    -0.322 OA
BRANCH   2   3
HETATM    3  C5  UNL     1      90.209  36.218  43.252  1.00  0.00     0.224 A 
HETATM    4  N2  UNL     1      91.223  35.466  42.862  1.00  0.00    -0.319 N 
HETATM    5  C4  UNL     1      90.850  34.185  43.007  1.00  0.00     0.078 A 
ATOM      6  H2  UNL     1      92.122  35.798  42.514  1.00  0.00     0.169 HD
HETATM    7  C3  UNL     1      91.559  33.125  42.740  1.00  0.00     0.118 A 
HETATM    8  C22 UNL     1      89.581  34.129  43.496  1.00  0.00     0.077 A 
HETATM    9  N1  UNL     1      91.033  31.856  42.945  1.00  0.00    -0.362 N 
HETATM   10  C2  UNL     1      89.685  31.682  43.473  1.00  0.00     0.161 A 
ATOM     11  H1  UNL     1      91.598  31.035  42.724  1.00  0.00     0.162 HD
HETATM   12  C1  UNL     1      88.940  30.970  42.345  1.00  0.00     0.077 C 
HETATM   13  C23 UNL     1      88.959  32.927  43.744  1.00  0.00     0.061 A 
HETATM   14  N8  UNL     1      89.181  35.398  43.650  1.00  0.00    -0.319 N 
ATOM     15  H8  UNL     1      88.272  35.702  44.002  1.00  0.00     0.169 HD
BRANCH  10  16
HETATM   16  O1  UNL     1      89.866  30.875  44.586  1.00  0.00    -0.367 OA
ATOM     17  H1  UNL     1      89.393  30.053  44.523  1.00  0.00     0.213 HD
ENDBRANCH  10  16
BRANCH  13  18
HETATM   18  C24 UNL     1      87.591  32.988  44.220  1.00  0.00     0.105 C 
BRANCH  18  19
HETATM   19  O3  UNL     1      87.416  32.597  45.466  1.00  0.00    -0.358 OA
ATOM     20  H3  UNL     1      86.584  32.842  45.852  1.00  0.00     0.217 HD
ENDBRANCH  18  19
BRANCH  18  21
HETATM   21  C25 UNL     1      86.369  33.403  43.567  1.00  0.00     0.066 A 
HETATM   22  C26 UNL     1      85.093  33.643  43.975  1.00  0.00     0.034 A 
HETATM   23  C27 UNL     1      84.307  34.080  42.891  1.00  0.00     0.019 A 
HETATM   24  C28 UNL     1      85.161  34.087  41.837  1.00  0.00     0.088 A 
HETATM   25  N9  UNL     1      86.377  33.692  42.217  1.00  0.00    -0.364 N 
ATOM     26  H9  UNL     1      87.188  33.615  41.603  1.00  0.00     0.165 HD
ENDBRANCH  18  21
ENDBRANCH  13  18
ENDBRANCH   2   3
ENDBRANCH   1   2
BRANCH   1  27
HETATM   27  C7  UNL     1      90.386  38.427  45.490  1.00  0.00     0.027 C 
BRANCH  27  28
HETATM   28  C8  UNL     1      90.113  37.403  46.494  1.00  0.00     0.004 C 
BRANCH  28  29
HETATM   29  C9  UNL     1      91.119  36.394  46.833  1.00  0.00     0.020 C 
BRANCH  29  30
HETATM   30  C10 UNL     1      90.659  34.983  46.922  1.00  0.00     0.138 C 
BRANCH  30  31
HETATM   31  N3  UNL     1      91.323  34.301  48.028  1.00  0.00    -0.226 N 
HETATM   32  C11 UNL     1      90.771  33.865  49.092  1.00  0.00     0.681 A 
HETATM   33  N4  UNL     1      91.598  33.258  50.009  1.00  0.00    -0.176 N 
HETATM   34  N6  UNL     1      89.470  33.904  49.404  1.00  0.00    -0.176 N 
HETATM   35  C12 UNL     1      91.131  32.734  51.153  1.00  0.00     0.127 A 
ATOM     36  H4  UNL     1      92.597  33.204  49.813  1.00  0.00     0.186 HD
HETATM   37  C13 UNL     1      89.799  32.784  51.453  1.00  0.00     0.032 A 
HETATM   38  N7  UNL     1      91.786  32.067  52.236  1.00  0.00    -0.375 N 
HETATM   39  C14 UNL     1      88.937  33.399  50.528  1.00  0.00     0.127 A 
HETATM   40  C20 UNL     1      89.549  32.147  52.758  1.00  0.00     0.066 C 
HETATM   41  C21 UNL     1      90.803  31.374  53.037  1.00  0.00     0.126 C 
ATOM     42  H7  UNL     1      92.790  32.078  52.415  1.00  0.00     0.161 HD
ATOM     43  H6  UNL     1      88.838  34.350  48.740  1.00  0.00     0.186 HD
ATOM     44  H3  UNL     1      92.330  34.159  47.941  1.00  0.00     0.177 HD
BRANCH  39  45
HETATM   45  N5  UNL     1      87.708  33.425  50.813  1.00  0.00    -0.371 N 
ATOM     46  H5  UNL     1      87.425  34.011  51.598  1.00  0.00     0.161 HD
BRANCH  45  47
HETATM   47  C15 UNL     1      86.692  32.716  50.143  1.00  0.00     0.083 C 
HETATM   48  C16 UNL     1      85.393  33.446  49.946  1.00  0.00     0.025 C 
HETATM   49  C17 UNL     1      84.455  32.272  49.639  1.00  0.00     0.002 C 
HETATM   50  C18 UNL     1      84.962  31.143  50.502  1.00  0.00     0.002 C 
HETATM   51  C19 UNL     1      86.263  31.577  51.097  1.00  0.00     0.025 C 
ENDBRANCH  45  47
ENDBRANCH  39  45
ENDBRANCH  30  31
ENDBRANCH  29  30
ENDBRANCH  28  29
ENDBRANCH  27  28
ENDBRANCH   1  27
TORSDOF 13
ENDMDL
MODEL 5
REMARK VINA RESULT: -9.798446968      5.698      8.364
REMARK  13 active torsions:
REMARK  status: ('A' for Active; 'I' for Inactive)
REMARK    1  A    between atoms: C2_2  and  O1_3 
REMARK    2  A    between atoms: C5_11  and  O2_12 
REMARK    3  A    between atoms: O2_12  and  C6_13 
REMARK    4  A    between atoms: C6_13  and  C7_14 
REMARK    5  A    between atoms: C7_14  and  C8_15 
REMARK    6  A    between atoms: C8_15  and  C9_16 
REMARK    7  A    between atoms: C9_16  and  C10_17 
REMARK    8  A    between atoms: C10_17  and  N3_18 
REMARK    9  A    between atoms: C14_25  and  N5_26 
REMARK   10  A    between atoms: N5_26  and  C15_28 
REMARK   11  A    between atoms: C23_42  and  C24_43 
REMARK   12  A    between atoms: C24_43  and  O3_44 
REMARK   13  A    between atoms: C24_43  and  C25_46 
ROOT
HETATM    1  C6  UNL     1      83.172  33.422  39.686  1.00  0.00     0.178 C 
ENDROOT
BRANCH   1   2
HETATM    2  O2  UNL     1      82.087  32.555  39.715  1.00  0.00    -0.322 OA
BRANCH   2   3
HETATM    3  C5  UNL     1      82.112  31.190  39.799  1.00  0.00     0.224 A 
HETATM    4  N2  UNL     1      82.791  30.493  40.691  1.00  0.00    -0.319 N 
HETATM    5  C4  UNL     1      82.558  29.194  40.445  1.00  0.00     0.078 A 
ATOM      6  H2  UNL     1      83.383  30.871  41.431  1.00  0.00     0.169 HD
HETATM    7  C3  UNL     1      83.034  28.172  41.099  1.00  0.00     0.118 A 
HETATM    8  C22 UNL     1      81.719  29.072  39.381  1.00  0.00     0.077 A 
HETATM    9  N1  UNL     1      82.699  26.877  40.723  1.00  0.00    -0.362 N 
HETATM   10  C2  UNL     1      81.801  26.634  39.600  1.00  0.00     0.161 A 
ATOM     11  H1  UNL     1      83.085  26.087  41.240  1.00  0.00     0.162 HD
HETATM   12  C1  UNL     1      82.670  25.879  38.596  1.00  0.00     0.077 C 
HETATM   13  C23 UNL     1      81.314  27.840  38.921  1.00  0.00     0.061 A 
HETATM   14  N8  UNL     1      81.439  30.318  38.977  1.00  0.00    -0.319 N 
ATOM     15  H8  UNL     1      80.833  30.574  38.197  1.00  0.00     0.169 HD
BRANCH  10  16
HETATM   16  O1  UNL     1      80.800  25.842  40.142  1.00  0.00    -0.367 OA
ATOM     17  H1  UNL     1      80.526  26.136  41.003  1.00  0.00     0.213 HD
ENDBRANCH  10  16
BRANCH  13  18
HETATM   18  C24 UNL     1      80.457  27.829  37.752  1.00  0.00     0.105 C 
BRANCH  18  19
HETATM   19  O3  UNL     1      79.415  28.633  37.818  1.00  0.00    -0.358 OA
ATOM     20  H3  UNL     1      78.821  28.582  37.079  1.00  0.00     0.217 HD
ENDBRANCH  18  19
BRANCH  18  21
HETATM   21  C25 UNL     1      80.538  27.086  36.514  1.00  0.00     0.066 A 
HETATM   22  C26 UNL     1      81.550  26.696  35.691  1.00  0.00     0.034 A 
HETATM   23  C27 UNL     1      81.041  25.933  34.621  1.00  0.00     0.019 A 
HETATM   24  C28 UNL     1      79.704  25.890  34.844  1.00  0.00     0.088 A 
HETATM   25  N9  UNL     1      79.392  26.563  35.952  1.00  0.00    -0.364 N 
ATOM     26  H9  UNL     1      78.449  26.674  36.326  1.00  0.00     0.165 HD
ENDBRANCH  18  21
ENDBRANCH  13  18
ENDBRANCH   2   3
ENDBRANCH   1   2
BRANCH   1  27
HETATM   27  C7  UNL     1      83.181  34.398  40.783  1.00  0.00     0.027 C 
BRANCH  27  28
HETATM   28  C8  UNL     1      84.392  34.596  41.574  1.00  0.00     0.004 C 
BRANCH  28  29
HETATM   29  C9  UNL     1      85.431  33.565  41.630  1.00  0.00     0.020 C 
BRANCH  29  30
HETATM   30  C10 UNL     1      86.683  33.903  42.359  1.00  0.00     0.138 C 
BRANCH  30  31
HETATM   31  N3  UNL     1      87.847  33.629  41.524  1.00  0.00    -0.226 N 
HETATM   32  C11 UNL     1      88.970  34.234  41.565  1.00  0.00     0.681 A 
HETATM   33  N4  UNL     1      89.928  33.810  40.672  1.00  0.00    -0.176 N 
HETATM   34  N6  UNL     1      89.332  35.214  42.401  1.00  0.00    -0.176 N 
HETATM   35  C12 UNL     1      91.157  34.348  40.638  1.00  0.00     0.127 A 
ATOM     36  H4  UNL     1      89.698  33.064  40.016  1.00  0.00     0.186 HD
HETATM   37  C13 UNL     1      91.508  35.347  41.501  1.00  0.00     0.032 A 
HETATM   38  N7  UNL     1      92.297  34.077  39.817  1.00  0.00    -0.375 N 
HETATM   39  C14 UNL     1      90.544  35.794  42.422  1.00  0.00     0.127 A 
HETATM   40  C20 UNL     1      92.901  35.763  41.256  1.00  0.00     0.066 C 
HETATM   41  C21 UNL     1      93.473  34.658  40.421  1.00  0.00     0.126 C 
ATOM     42  H7  UNL     1      92.281  33.554  38.941  1.00  0.00     0.161 HD
ATOM     43  H6  UNL     1      88.638  35.544  43.071  1.00  0.00     0.186 HD
ATOM     44  H3  UNL     1      87.753  32.880  40.838  1.00  0.00     0.177 HD
BRANCH  39  45
HETATM   45  N5  UNL     1      90.886  36.708  43.220  1.00  0.00    -0.371 N 
ATOM     46  H5  UNL     1      90.711  37.669  42.930  1.00  0.00     0.161 HD
BRANCH  45  47
HETATM   47  C15 UNL     1      91.490  36.519  44.478  1.00  0.00     0.083 C 
HETATM   48  C16 UNL     1      91.469  35.118  45.021  1.00  0.00     0.025 C 
HETATM   49  C17 UNL     1      91.763  35.385  46.502  1.00  0.00     0.002 C 
HETATM   50  C18 UNL     1      91.067  36.690  46.800  1.00  0.00     0.002 C 
HETATM   51  C19 UNL     1      90.595  37.258  45.500  1.00  0.00     0.025 C 
ENDBRANCH  45  47
ENDBRANCH  39  45
ENDBRANCH  30  31
ENDBRANCH  29  30
ENDBRANCH  28  29
ENDBRANCH  27  28
ENDBRANCH   1  27
TORSDOF 13
ENDMDL
