MODEL 1
REMARK VINA RESULT: -6.060217171      0.000      0.000
REMARK  3 active torsions:
REMARK  status: ('A' for Active; 'I' for Inactive)
REMARK    1  A    between atoms: C2_8  and  N5_9 
REMARK    2  A    between atoms: N5_9  and  N6_11 
REMARK    3  A    between atoms: N6_11  and  N7_13 
ROOT
HETATM    1  C1  UNL     1      29.575  66.731   9.055  1.00  0.00     0.195 C 
HETATM    2  N1  UNL     1      30.623  66.847   8.028  1.00  0.00    -0.108 N 
HETATM    3  N2  UNL     1      30.442  67.081   6.735  1.00  0.00     0.011 NA
HETATM    4  N3  UNL     1      31.631  67.111   6.156  1.00  0.00    -0.211 N 
ATOM      5  H3  UNL     1      31.814  67.271   5.166  1.00  0.00     0.206 HD
HETATM    6  N4  UNL     1      32.532  66.899   7.085  1.00  0.00    -0.117 N 
ATOM      7  H4  UNL     1      33.539  66.868   6.924  1.00  0.00     0.207 HD
HETATM    8  C2  UNL     1      31.939  66.727   8.279  1.00  0.00     0.728 A 
ENDROOT
BRANCH   8   9
HETATM    9  N5  UNL     1      32.435  66.498   9.442  1.00  0.00    -0.115 N 
ATOM     10  H5  UNL     1      32.669  67.300  10.028  1.00  0.00     0.207 HD
BRANCH   9  11
HETATM   11  N6  UNL     1      32.672  65.233   9.951  1.00  0.00    -0.235 N 
ATOM     12  H6  UNL     1      33.616  64.941  10.203  1.00  0.00     0.208 HD
BRANCH  11  13
HETATM   13  N7  UNL     1      31.595  64.372  10.111  1.00  0.00    -0.330 N 
ATOM     14  H72 UNL     1      30.736  64.708  10.547  1.00  0.00     0.178 HD
ATOM     15  H71 UNL     1      31.689  63.410   9.783  1.00  0.00     0.178 HD
ENDBRANCH  11  13
ENDBRANCH   9  11
ENDBRANCH   8   9
TORSDOF 3
ENDMDL
MODEL 2
REMARK VINA RESULT: -6.048311002      1.407      1.983
REMARK  3 active torsions:
REMARK  status: ('A' for Active; 'I' for Inactive)
REMARK    1  A    between atoms: C2_8  and  N5_9 
REMARK    2  A    between atoms: N5_9  and  N6_11 
REMARK    3  A    between atoms: N6_11  and  N7_13 
ROOT
HETATM    1  C1  UNL     1      29.727  66.883   7.457  1.00  0.00     0.195 C 
HETATM    2  N1  UNL     1      31.113  66.706   7.919  1.00  0.00    -0.108 N 
HETATM    3  N2  UNL     1      32.216  66.942   7.221  1.00  0.00     0.011 NA
HETATM    4  N3  UNL     1      33.253  66.660   7.992  1.00  0.00    -0.211 N 
ATOM      5  H3  UNL     1      34.235  66.742   7.732  1.00  0.00     0.206 HD
HETATM    6  N4  UNL     1      32.791  66.255   9.150  1.00  0.00    -0.117 N 
ATOM      7  H4  UNL     1      33.369  65.970   9.941  1.00  0.00     0.207 HD
HETATM    8  C2  UNL     1      31.447  66.269   9.146  1.00  0.00     0.728 A 
ENDROOT
BRANCH   8   9
HETATM    9  N5  UNL     1      30.597  65.956  10.058  1.00  0.00    -0.115 N 
ATOM     10  H5  UNL     1      30.172  66.713  10.595  1.00  0.00     0.207 HD
BRANCH   9  11
HETATM   11  N6  UNL     1      30.222  64.658  10.358  1.00  0.00    -0.235 N 
ATOM     12  H6  UNL     1      30.481  63.885   9.746  1.00  0.00     0.208 HD
BRANCH  11  13
HETATM   13  N7  UNL     1      29.485  64.434  11.514  1.00  0.00    -0.330 N 
ATOM     14  H72 UNL     1      28.597  63.934  11.460  1.00  0.00     0.178 HD
ATOM     15  H71 UNL     1      29.854  64.778  12.400  1.00  0.00     0.178 HD
ENDBRANCH  11  13
ENDBRANCH   9  11
ENDBRANCH   8   9
TORSDOF 3
ENDMDL
MODEL 3
REMARK VINA RESULT: -5.886239504      1.350      2.944
REMARK  3 active torsions:
REMARK  status: ('A' for Active; 'I' for Inactive)
REMARK    1  A    between atoms: C2_8  and  N5_9 
REMARK    2  A    between atoms: N5_9  and  N6_11 
REMARK    3  A    between atoms: N6_11  and  N7_13 
ROOT
HETATM    1  C1  UNL     1      29.756  67.039   7.649  1.00  0.00     0.195 C 
HETATM    2  N1  UNL     1      30.185  66.058   8.659  1.00  0.00    -0.108 N 
HETATM    3  N2  UNL     1      29.427  65.139   9.243  1.00  0.00     0.011 NA
HETATM    4  N3  UNL     1      30.186  64.460  10.086  1.00  0.00    -0.211 N 
ATOM      5  H3  UNL     1      29.884  63.689  10.681  1.00  0.00     0.206 HD
HETATM    6  N4  UNL     1      31.398  64.956  10.020  1.00  0.00    -0.117 N 
ATOM      7  H4  UNL     1      32.195  64.624  10.563  1.00  0.00     0.207 HD
HETATM    8  C2  UNL     1      31.440  65.965   9.132  1.00  0.00     0.728 A 
ENDROOT
BRANCH   8   9
HETATM    9  N5  UNL     1      32.411  66.720   8.759  1.00  0.00    -0.115 N 
ATOM     10  H5  UNL     1      32.534  67.612   9.239  1.00  0.00     0.207 HD
BRANCH   9  11
HETATM   11  N6  UNL     1      33.300  66.401   7.747  1.00  0.00    -0.235 N 
ATOM     12  H6  UNL     1      34.305  66.494   7.888  1.00  0.00     0.208 HD
BRANCH  11  13
HETATM   13  N7  UNL     1      32.791  65.951   6.536  1.00  0.00    -0.330 N 
ATOM     14  H72 UNL     1      31.781  65.924   6.388  1.00  0.00     0.178 HD
ATOM     15  H71 UNL     1      33.447  65.654   5.813  1.00  0.00     0.178 HD
ENDBRANCH  11  13
ENDBRANCH   9  11
ENDBRANCH   8   9
TORSDOF 3
ENDMDL
MODEL 4
REMARK VINA RESULT: -5.767985204      1.562      3.113
REMARK  3 active torsions:
REMARK  status: ('A' for Active; 'I' for Inactive)
REMARK    1  A    between atoms: C2_8  and  N5_9 
REMARK    2  A    between atoms: N5_9  and  N6_11 
REMARK    3  A    between atoms: N6_11  and  N7_13 
ROOT
HETATM    1  C1  UNL     1      30.419  66.329   9.758  1.00  0.00     0.195 C 
HETATM    2  N1  UNL     1      31.208  66.490   8.526  1.00  0.00    -0.108 N 
HETATM    3  N2  UNL     1      32.484  66.172   8.357  1.00  0.00     0.011 NA
HETATM    4  N3  UNL     1      32.816  66.471   7.112  1.00  0.00    -0.211 N 
ATOM      5  H3  UNL     1      33.733  66.339   6.686  1.00  0.00     0.206 HD
HETATM    6  N4  UNL     1      31.754  66.966   6.524  1.00  0.00    -0.117 N 
ATOM      7  H4  UNL     1      31.719  67.283   5.555  1.00  0.00     0.207 HD
HETATM    8  C2  UNL     1      30.718  66.996   7.381  1.00  0.00     0.728 A 
ENDROOT
BRANCH   8   9
HETATM    9  N5  UNL     1      29.508  67.397   7.226  1.00  0.00    -0.115 N 
ATOM     10  H5  UNL     1      29.291  68.364   7.468  1.00  0.00     0.207 HD
BRANCH   9  11
HETATM   11  N6  UNL     1      28.479  66.601   6.753  1.00  0.00    -0.235 N 
ATOM     12  H6  UNL     1      28.500  66.232   5.802  1.00  0.00     0.208 HD
BRANCH  11  13
HETATM   13  N7  UNL     1      27.419  66.315   7.603  1.00  0.00    -0.330 N 
ATOM     14  H72 UNL     1      26.461  66.367   7.255  1.00  0.00     0.178 HD
ATOM     15  H71 UNL     1      27.626  66.057   8.568  1.00  0.00     0.178 HD
ENDBRANCH  11  13
ENDBRANCH   9  11
ENDBRANCH   8   9
TORSDOF 3
ENDMDL
MODEL 5
REMARK VINA RESULT: -5.722192502      1.360      2.309
REMARK  3 active torsions:
REMARK  status: ('A' for Active; 'I' for Inactive)
REMARK    1  A    between atoms: C2_8  and  N5_9 
REMARK    2  A    between atoms: N5_9  and  N6_11 
REMARK    3  A    between atoms: N6_11  and  N7_13 
ROOT
HETATM    1  C1  UNL     1      32.739  66.631   7.990  1.00  0.00     0.195 C 
HETATM    2  N1  UNL     1      31.282  66.785   7.854  1.00  0.00    -0.108 N 
HETATM    3  N2  UNL     1      30.627  67.215   6.783  1.00  0.00     0.011 NA
HETATM    4  N3  UNL     1      29.336  67.208   7.065  1.00  0.00    -0.211 N 
ATOM      5  H3  UNL     1      28.581  67.487   6.439  1.00  0.00     0.206 HD
HETATM    6  N4  UNL     1      29.198  66.776   8.296  1.00  0.00    -0.117 N 
ATOM      7  H4  UNL     1      28.307  66.667   8.779  1.00  0.00     0.207 HD
HETATM    8  C2  UNL     1      30.401  66.499   8.829  1.00  0.00     0.728 A 
ENDROOT
BRANCH   8   9
HETATM    9  N5  UNL     1      30.727  66.059   9.991  1.00  0.00    -0.115 N 
ATOM     10  H5  UNL     1      31.199  66.700  10.629  1.00  0.00     0.207 HD
BRANCH   9  11
HETATM   11  N6  UNL     1      30.478  64.771  10.433  1.00  0.00    -0.235 N 
ATOM     12  H6  UNL     1      31.070  63.995  10.139  1.00  0.00     0.208 HD
BRANCH  11  13
HETATM   13  N7  UNL     1      29.404  64.561  11.288  1.00  0.00    -0.330 N 
ATOM     14  H72 UNL     1      29.148  65.277  11.968  1.00  0.00     0.178 HD
ATOM     15  H71 UNL     1      28.888  63.684  11.212  1.00  0.00     0.178 HD
ENDBRANCH  11  13
ENDBRANCH   9  11
ENDBRANCH   8   9
TORSDOF 3
ENDMDL
