MODEL 1
REMARK VINA RESULT: -5.904479873      0.000      0.000
REMARK  3 active torsions:
REMARK  status: ('A' for Active; 'I' for Inactive)
REMARK    1  A    between atoms: N1_1  and  C1_5 
REMARK    2  A    between atoms: C1_5  and  N2_6 
REMARK    3  A    between atoms: N2_6  and  C2_8 
ROOT
HETATM    1  C2  UNL     1      30.076  64.997   9.654  1.00  0.00     0.187 A 
HETATM    2  N3  UNL     1      31.406  64.975   9.825  1.00  0.00    -0.277 N 
ATOM      3  H3  UNL     1      31.799  64.356  10.533  1.00  0.00     0.189 HD
HETATM    4  N4  UNL     1      32.234  65.731   9.103  1.00  0.00    -0.250 N 
ATOM      5  H4  UNL     1      33.243  65.701   9.248  1.00  0.00     0.192 HD
HETATM    6  C3  UNL     1      31.684  66.534   8.176  1.00  0.00     0.341 A 
HETATM    7  O1  UNL     1      32.470  67.252   7.490  1.00  0.00    -0.245 OA
HETATM    8  N5  UNL     1      30.355  66.583   7.976  1.00  0.00    -0.271 N 
ATOM      9  H5  UNL     1      29.982  67.207   7.261  1.00  0.00     0.174 HD
HETATM   10  C4  UNL     1      29.507  65.828   8.697  1.00  0.00     0.294 A 
HETATM   11  O2  UNL     1      28.260  65.871   8.512  1.00  0.00    -0.264 OA
ENDROOT
BRANCH   1  12
HETATM   12  N2  UNL     1      29.284  64.279  10.341  1.00  0.00    -0.348 N 
ATOM     13  H2  UNL     1      28.929  63.416   9.926  1.00  0.00     0.163 HD
BRANCH  12  14
HETATM   14  C1  UNL     1      28.865  64.619  11.669  1.00  0.00     0.353 C 
BRANCH  14  15
HETATM   15  N1  UNL     1      29.447  63.708  12.648  1.00  0.00    -0.064 N 
ATOM     16  H13 UNL     1      28.756  63.048  13.006  1.00  0.00     0.276 HD
ATOM     17  H12 UNL     1      30.084  63.043  12.211  1.00  0.00     0.276 HD
ATOM     18  H11 UNL     1      29.899  64.225  13.402  1.00  0.00     0.276 HD
ENDBRANCH  14  15
ENDBRANCH  12  14
ENDBRANCH   1  12
TORSDOF 3
ENDMDL
MODEL 2
REMARK VINA RESULT: -5.778136474      1.708      3.957
REMARK  3 active torsions:
REMARK  status: ('A' for Active; 'I' for Inactive)
REMARK    1  A    between atoms: N1_1  and  C1_5 
REMARK    2  A    between atoms: C1_5  and  N2_6 
REMARK    3  A    between atoms: N2_6  and  C2_8 
ROOT
HETATM    1  C2  UNL     1      30.372  65.567   8.480  1.00  0.00     0.187 A 
HETATM    2  N3  UNL     1      30.751  64.814   9.524  1.00  0.00    -0.277 N 
ATOM      3  H3  UNL     1      31.692  64.424   9.530  1.00  0.00     0.189 HD
HETATM    4  N4  UNL     1      29.943  64.557  10.552  1.00  0.00    -0.250 N 
ATOM      5  H4  UNL     1      30.249  63.981  11.337  1.00  0.00     0.192 HD
HETATM    6  C3  UNL     1      28.709  65.088  10.515  1.00  0.00     0.341 A 
HETATM    7  O1  UNL     1      27.941  64.844  11.492  1.00  0.00    -0.245 OA
HETATM    8  N5  UNL     1      28.293  65.848   9.486  1.00  0.00    -0.271 N 
ATOM      9  H5  UNL     1      27.348  66.231   9.499  1.00  0.00     0.174 HD
HETATM   10  C4  UNL     1      29.096  66.115   8.440  1.00  0.00     0.294 A 
HETATM   11  O2  UNL     1      28.710  66.828   7.473  1.00  0.00    -0.264 OA
ENDROOT
BRANCH   1  12
HETATM   12  N2  UNL     1      31.139  65.814   7.498  1.00  0.00    -0.348 N 
ATOM     13  H2  UNL     1      31.123  65.179   6.700  1.00  0.00     0.163 HD
BRANCH  12  14
HETATM   14  C1  UNL     1      32.027  66.939   7.457  1.00  0.00     0.353 C 
BRANCH  14  15
HETATM   15  N1  UNL     1      33.359  66.568   7.922  1.00  0.00    -0.064 N 
ATOM     16  H13 UNL     1      33.701  67.212   8.635  1.00  0.00     0.276 HD
ATOM     17  H12 UNL     1      33.339  65.716   8.480  1.00  0.00     0.276 HD
ATOM     18  H11 UNL     1      34.009  66.492   7.140  1.00  0.00     0.276 HD
ENDBRANCH  14  15
ENDBRANCH  12  14
ENDBRANCH   1  12
TORSDOF 3
ENDMDL
MODEL 3
REMARK VINA RESULT: -5.534089856      2.468      3.325
REMARK  3 active torsions:
REMARK  status: ('A' for Active; 'I' for Inactive)
REMARK    1  A    between atoms: N1_1  and  C1_5 
REMARK    2  A    between atoms: C1_5  and  N2_6 
REMARK    3  A    between atoms: N2_6  and  C2_8 
ROOT
HETATM    1  C2  UNL     1      29.863  66.083   6.994  1.00  0.00     0.187 A 
HETATM    2  N3  UNL     1      30.651  66.820   6.197  1.00  0.00    -0.277 N 
ATOM      3  H3  UNL     1      30.291  67.116   5.290  1.00  0.00     0.189 HD
HETATM    4  N4  UNL     1      31.886  67.180   6.546  1.00  0.00    -0.250 N 
ATOM      5  H4  UNL     1      32.471  67.740   5.925  1.00  0.00     0.192 HD
HETATM    6  C3  UNL     1      32.330  66.776   7.748  1.00  0.00     0.341 A 
HETATM    7  O1  UNL     1      33.503  67.118   8.080  1.00  0.00    -0.245 OA
HETATM    8  N5  UNL     1      31.569  66.036   8.574  1.00  0.00    -0.271 N 
ATOM      9  H5  UNL     1      31.947  65.751   9.478  1.00  0.00     0.174 HD
HETATM   10  C4  UNL     1      30.322  65.663   8.236  1.00  0.00     0.294 A 
HETATM   11  O2  UNL     1      29.605  64.969   9.008  1.00  0.00    -0.264 OA
ENDROOT
BRANCH   1  12
HETATM   12  N2  UNL     1      28.686  65.737   6.664  1.00  0.00    -0.348 N 
ATOM     13  H2  UNL     1      28.546  64.805   6.273  1.00  0.00     0.163 HD
BRANCH  12  14
HETATM   14  C1  UNL     1      27.544  66.592   6.814  1.00  0.00     0.353 C 
BRANCH  14  15
HETATM   15  N1  UNL     1      26.901  66.380   8.106  1.00  0.00    -0.064 N 
ATOM     16  H13 UNL     1      25.941  66.722   8.109  1.00  0.00     0.276 HD
ATOM     17  H12 UNL     1      26.714  65.392   8.276  1.00  0.00     0.276 HD
ATOM     18  H11 UNL     1      27.451  66.795   8.858  1.00  0.00     0.276 HD
ENDBRANCH  14  15
ENDBRANCH  12  14
ENDBRANCH   1  12
TORSDOF 3
ENDMDL
MODEL 4
REMARK VINA RESULT: -5.479069284      2.170      4.123
REMARK  3 active torsions:
REMARK  status: ('A' for Active; 'I' for Inactive)
REMARK    1  A    between atoms: N1_1  and  C1_5 
REMARK    2  A    between atoms: C1_5  and  N2_6 
REMARK    3  A    between atoms: N2_6  and  C2_8 
ROOT
HETATM    1  C2  UNL     1      30.360  66.190   8.906  1.00  0.00     0.187 A 
HETATM    2  N3  UNL     1      30.585  66.459  10.201  1.00  0.00    -0.277 N 
ATOM      3  H3  UNL     1      31.539  66.405  10.555  1.00  0.00     0.189 HD
HETATM    4  N4  UNL     1      29.607  66.795  11.043  1.00  0.00    -0.250 N 
ATOM      5  H4  UNL     1      29.797  66.995  12.025  1.00  0.00     0.192 HD
HETATM    6  C3  UNL     1      28.360  66.860  10.545  1.00  0.00     0.341 A 
HETATM    7  O1  UNL     1      27.431  67.179  11.344  1.00  0.00    -0.245 OA
HETATM    8  N5  UNL     1      28.096  66.597   9.253  1.00  0.00    -0.271 N 
ATOM      9  H5  UNL     1      27.135  66.659   8.918  1.00  0.00     0.174 HD
HETATM   10  C4  UNL     1      29.072  66.255   8.392  1.00  0.00     0.294 A 
HETATM   11  O2  UNL     1      28.829  66.008   7.179  1.00  0.00    -0.264 OA
ENDROOT
BRANCH   1  12
HETATM   12  N2  UNL     1      31.290  65.869   8.102  1.00  0.00    -0.348 N 
ATOM     13  H2  UNL     1      31.410  64.883   7.870  1.00  0.00     0.163 HD
BRANCH  12  14
HETATM   14  C1  UNL     1      32.177  66.823   7.505  1.00  0.00     0.353 C 
BRANCH  14  15
HETATM   15  N1  UNL     1      31.670  67.268   6.211  1.00  0.00    -0.064 N 
ATOM     16  H13 UNL     1      30.707  67.597   6.277  1.00  0.00     0.276 HD
ATOM     17  H12 UNL     1      32.111  68.137   5.913  1.00  0.00     0.276 HD
ATOM     18  H11 UNL     1      31.770  66.534   5.510  1.00  0.00     0.276 HD
ENDBRANCH  14  15
ENDBRANCH  12  14
ENDBRANCH   1  12
TORSDOF 3
ENDMDL
MODEL 5
REMARK VINA RESULT: -5.448527699      2.466      4.711
REMARK  3 active torsions:
REMARK  status: ('A' for Active; 'I' for Inactive)
REMARK    1  A    between atoms: N1_1  and  C1_5 
REMARK    2  A    between atoms: C1_5  and  N2_6 
REMARK    3  A    between atoms: N2_6  and  C2_8 
ROOT
HETATM    1  C2  UNL     1      29.550  66.884   7.606  1.00  0.00     0.187 A 
HETATM    2  N3  UNL     1      28.357  66.841   6.993  1.00  0.00    -0.277 N 
ATOM      3  H3  UNL     1      28.295  67.138   6.020  1.00  0.00     0.189 HD
HETATM    4  N4  UNL     1      27.251  66.425   7.609  1.00  0.00    -0.250 N 
ATOM      5  H4  UNL     1      26.352  66.400   7.127  1.00  0.00     0.192 HD
HETATM    6  C3  UNL     1      27.367  66.038   8.891  1.00  0.00     0.341 A 
HETATM    7  O1  UNL     1      26.316  65.642   9.476  1.00  0.00    -0.245 OA
HETATM    8  N5  UNL     1      28.545  66.067   9.538  1.00  0.00    -0.271 N 
ATOM      9  H5  UNL     1      28.587  65.764  10.511  1.00  0.00     0.174 HD
HETATM   10  C4  UNL     1      29.670  66.486   8.931  1.00  0.00     0.294 A 
HETATM   11  O2  UNL     1      30.778  66.515   9.534  1.00  0.00    -0.264 OA
ENDROOT
BRANCH   1  12
HETATM   12  N2  UNL     1      30.606  67.281   7.022  1.00  0.00    -0.348 N 
ATOM     13  H2  UNL     1      30.803  68.282   7.004  1.00  0.00     0.163 HD
BRANCH  12  14
HETATM   14  C1  UNL     1      31.535  66.393   6.386  1.00  0.00     0.353 C 
BRANCH  14  15
HETATM   15  N1  UNL     1      32.819  66.400   7.078  1.00  0.00    -0.064 N 
ATOM     16  H13 UNL     1      33.600  66.357   6.423  1.00  0.00     0.276 HD
ATOM     17  H12 UNL     1      33.017  67.310   7.494  1.00  0.00     0.276 HD
ATOM     18  H11 UNL     1      32.865  65.651   7.769  1.00  0.00     0.276 HD
ENDBRANCH  14  15
ENDBRANCH  12  14
ENDBRANCH   1  12
TORSDOF 3
ENDMDL
