MODEL 1
REMARK VINA RESULT: -7.348499222      0.000      0.000
REMARK  3 active torsions:
REMARK  status: ('A' for Active; 'I' for Inactive)
REMARK       I    between atoms: C1_4  and  N3_6 
REMARK    1  A    between atoms: N3_6  and  S1_8 
REMARK    2  A    between atoms: S1_8  and  C2_11 
REMARK    3  A    between atoms: C6_18  and  C7_19 
ROOT
HETATM    1  C2  UNL     1     -13.876 -28.138 -27.346  1.00  0.00     0.109 A 
HETATM    2  C3  UNL     1     -14.895 -27.757 -26.495  1.00  0.00     0.031 A 
HETATM    3  C4  UNL     1     -16.197 -28.026 -26.851  1.00  0.00     0.047 A 
HETATM    4  C5  UNL     1     -16.485 -28.666 -28.038  1.00  0.00     0.116 A 
HETATM    5  N4  UNL     1     -17.831 -28.936 -28.391  1.00  0.00    -0.083 NA
HETATM    6  N5  UNL     1     -15.472 -29.005 -28.806  1.00  0.00    -0.341 N 
ATOM      7  H5  UNL     1     -15.687 -29.477 -29.684  1.00  0.00     0.167 HD
HETATM    8  C6  UNL     1     -14.144 -28.772 -28.521  1.00  0.00     0.095 A 
ENDROOT
BRANCH   1   9
HETATM    9  S1  UNL     1     -12.228 -27.797 -26.902  1.00  0.00     0.267 S 
HETATM   10  O1  UNL     1     -12.173 -26.941 -25.663  1.00  0.00    -0.200 OA
HETATM   11  O2  UNL     1     -11.486 -27.133 -28.063  1.00  0.00    -0.200 OA
BRANCH   9  12
HETATM   12  N3  UNL     1     -11.314 -29.206 -26.539  1.00  0.00    -0.254 N 
HETATM   13  C1  UNL     1     -10.071 -29.133 -25.878  1.00  0.00     0.195 C 
HETATM   14  N1  UNL     1      -9.295 -28.113 -25.799  1.00  0.00    -0.373 N 
HETATM   15  N2  UNL     1      -9.567 -30.321 -25.197  1.00  0.00    -0.063 NA
ATOM     16  H12 UNL     1      -8.396 -28.061 -25.321  1.00  0.00     0.158 HD
ATOM     17  H11 UNL     1      -9.647 -27.283 -26.275  1.00  0.00     0.158 HD
ATOM     18  H3  UNL     1     -11.681 -30.119 -26.810  1.00  0.00     0.181 HD
ENDBRANCH   9  12
ENDBRANCH   1   9
BRANCH   8  19
HETATM   19  C7  UNL     1     -13.163 -29.231 -29.493  1.00  0.00     0.289 C 
HETATM   20  O3  UNL     1     -13.355 -29.704 -30.611  1.00  0.00    -0.300 OA
ENDBRANCH   8  19
TORSDOF 3
ENDMDL
MODEL 2
REMARK VINA RESULT: -7.165902455      1.433      1.711
REMARK  3 active torsions:
REMARK  status: ('A' for Active; 'I' for Inactive)
REMARK       I    between atoms: C1_4  and  N3_6 
REMARK    1  A    between atoms: N3_6  and  S1_8 
REMARK    2  A    between atoms: S1_8  and  C2_11 
REMARK    3  A    between atoms: C6_18  and  C7_19 
ROOT
HETATM    1  C2  UNL     1     -13.087 -28.013 -27.156  1.00  0.00     0.109 A 
HETATM    2  C3  UNL     1     -13.229 -27.394 -25.930  1.00  0.00     0.031 A 
HETATM    3  C4  UNL     1     -14.494 -27.204 -25.420  1.00  0.00     0.047 A 
HETATM    4  C5  UNL     1     -15.606 -27.625 -26.121  1.00  0.00     0.116 A 
HETATM    5  N4  UNL     1     -16.901 -27.422 -25.583  1.00  0.00    -0.083 NA
HETATM    6  N5  UNL     1     -15.406 -28.208 -27.283  1.00  0.00    -0.341 N 
ATOM      7  H5  UNL     1     -16.229 -28.518 -27.799  1.00  0.00     0.167 HD
HETATM    8  C6  UNL     1     -14.175 -28.434 -27.859  1.00  0.00     0.095 A 
ENDROOT
BRANCH   1   9
HETATM    9  S1  UNL     1     -11.491 -28.251 -27.806  1.00  0.00     0.267 S 
HETATM   10  O1  UNL     1     -10.661 -27.000 -27.664  1.00  0.00    -0.200 OA
HETATM   11  O2  UNL     1     -11.567 -28.698 -29.267  1.00  0.00    -0.200 OA
BRANCH   9  12
HETATM   12  N3  UNL     1     -10.608 -29.491 -27.008  1.00  0.00    -0.254 N 
HETATM   13  C1  UNL     1      -9.977 -29.271 -25.766  1.00  0.00     0.195 C 
HETATM   14  N1  UNL     1      -9.639 -28.141 -25.260  1.00  0.00    -0.373 N 
HETATM   15  N2  UNL     1      -9.651 -30.422 -24.931  1.00  0.00    -0.063 NA
ATOM     16  H12 UNL     1      -9.183 -27.982 -24.362  1.00  0.00     0.158 HD
ATOM     17  H11 UNL     1      -9.867 -27.336 -25.844  1.00  0.00     0.158 HD
ATOM     18  H3  UNL     1     -10.539 -30.411 -27.445  1.00  0.00     0.181 HD
ENDBRANCH   9  12
ENDBRANCH   1   9
BRANCH   8  19
HETATM   19  C7  UNL     1     -14.156 -29.106 -29.150  1.00  0.00     0.289 C 
HETATM   20  O3  UNL     1     -14.485 -30.260 -29.418  1.00  0.00    -0.300 OA
ENDBRANCH   8  19
TORSDOF 3
ENDMDL
MODEL 3
REMARK VINA RESULT: -6.842505720      1.194      2.400
REMARK  3 active torsions:
REMARK  status: ('A' for Active; 'I' for Inactive)
REMARK       I    between atoms: C1_4  and  N3_6 
REMARK    1  A    between atoms: N3_6  and  S1_8 
REMARK    2  A    between atoms: S1_8  and  C2_11 
REMARK    3  A    between atoms: C6_18  and  C7_19 
ROOT
HETATM    1  C2  UNL     1     -13.707 -28.268 -27.599  1.00  0.00     0.109 A 
HETATM    2  C3  UNL     1     -13.985 -28.851 -28.819  1.00  0.00     0.031 A 
HETATM    3  C4  UNL     1     -15.293 -29.142 -29.137  1.00  0.00     0.047 A 
HETATM    4  C5  UNL     1     -16.312 -28.858 -28.253  1.00  0.00     0.116 A 
HETATM    5  N4  UNL     1     -17.654 -29.165 -28.594  1.00  0.00    -0.083 NA
HETATM    6  N5  UNL     1     -15.984 -28.303 -27.106  1.00  0.00    -0.341 N 
ATOM      7  H5  UNL     1     -16.740 -28.094 -26.454  1.00  0.00     0.167 HD
HETATM    8  C6  UNL     1     -14.703 -27.981 -26.716  1.00  0.00     0.095 A 
ENDROOT
BRANCH   1   9
HETATM    9  S1  UNL     1     -12.055 -27.901 -27.192  1.00  0.00     0.267 S 
HETATM   10  O1  UNL     1     -11.990 -26.913 -26.055  1.00  0.00    -0.200 OA
HETATM   11  O2  UNL     1     -11.304 -27.379 -28.417  1.00  0.00    -0.200 OA
BRANCH   9  12
HETATM   12  N3  UNL     1     -11.160 -29.272 -26.673  1.00  0.00    -0.254 N 
HETATM   13  C1  UNL     1      -9.991 -29.143 -25.893  1.00  0.00     0.195 C 
HETATM   14  N1  UNL     1      -9.245 -28.104 -25.784  1.00  0.00    -0.373 N 
HETATM   15  N2  UNL     1      -9.541 -30.288 -25.110  1.00  0.00    -0.063 NA
ATOM     16  H12 UNL     1      -8.401 -28.011 -25.220  1.00  0.00     0.158 HD
ATOM     17  H11 UNL     1      -9.561 -27.304 -26.331  1.00  0.00     0.158 HD
ATOM     18  H3  UNL     1     -11.481 -30.204 -26.936  1.00  0.00     0.181 HD
ENDBRANCH   9  12
ENDBRANCH   1   9
BRANCH   8  19
HETATM   19  C7  UNL     1     -14.539 -27.360 -25.409  1.00  0.00     0.289 C 
HETATM   20  O3  UNL     1     -15.218 -26.475 -24.891  1.00  0.00    -0.300 OA
ENDBRANCH   8  19
TORSDOF 3
ENDMDL
MODEL 4
REMARK VINA RESULT: -6.684137472      4.150      5.236
REMARK  3 active torsions:
REMARK  status: ('A' for Active; 'I' for Inactive)
REMARK       I    between atoms: C1_4  and  N3_6 
REMARK    1  A    between atoms: N3_6  and  S1_8 
REMARK    2  A    between atoms: S1_8  and  C2_11 
REMARK    3  A    between atoms: C6_18  and  C7_19 
ROOT
HETATM    1  C2  UNL     1     -14.471 -27.248 -25.735  1.00  0.00     0.109 A 
HETATM    2  C3  UNL     1     -13.149 -26.867 -25.617  1.00  0.00     0.031 A 
HETATM    3  C4  UNL     1     -12.272 -27.179 -26.631  1.00  0.00     0.047 A 
HETATM    4  C5  UNL     1     -12.702 -27.862 -27.749  1.00  0.00     0.116 A 
HETATM    5  N4  UNL     1     -11.787 -28.177 -28.785  1.00  0.00    -0.083 NA
HETATM    6  N5  UNL     1     -13.973 -28.198 -27.804  1.00  0.00    -0.341 N 
ATOM      7  H5  UNL     1     -14.289 -28.703 -28.631  1.00  0.00     0.167 HD
HETATM    8  C6  UNL     1     -14.912 -27.922 -26.833  1.00  0.00     0.095 A 
ENDROOT
BRANCH   1   9
HETATM    9  S1  UNL     1     -15.583 -26.859 -24.454  1.00  0.00     0.267 S 
HETATM   10  O1  UNL     1     -16.102 -28.111 -23.795  1.00  0.00    -0.200 OA
HETATM   11  O2  UNL     1     -16.733 -26.000 -24.984  1.00  0.00    -0.200 OA
BRANCH   9  12
HETATM   12  N3  UNL     1     -14.876 -25.926 -23.197  1.00  0.00    -0.254 N 
HETATM   13  C1  UNL     1     -15.562 -25.664 -21.992  1.00  0.00     0.195 C 
HETATM   14  N1  UNL     1     -16.830 -25.716 -21.797  1.00  0.00    -0.373 N 
HETATM   15  N2  UNL     1     -14.791 -25.287 -20.813  1.00  0.00    -0.063 NA
ATOM     16  H12 UNL     1     -17.326 -25.527 -20.927  1.00  0.00     0.158 HD
ATOM     17  H11 UNL     1     -17.369 -25.980 -22.621  1.00  0.00     0.158 HD
ATOM     18  H3  UNL     1     -13.936 -25.552 -23.324  1.00  0.00     0.181 HD
ENDBRANCH   9  12
ENDBRANCH   1   9
BRANCH   8  19
HETATM   19  C7  UNL     1     -16.276 -28.367 -27.079  1.00  0.00     0.289 C 
HETATM   20  O3  UNL     1     -16.728 -28.942 -28.066  1.00  0.00    -0.300 OA
ENDBRANCH   8  19
TORSDOF 3
ENDMDL
MODEL 5
REMARK VINA RESULT: -6.676790275      2.714      3.299
REMARK  3 active torsions:
REMARK  status: ('A' for Active; 'I' for Inactive)
REMARK       I    between atoms: C1_4  and  N3_6 
REMARK    1  A    between atoms: N3_6  and  S1_8 
REMARK    2  A    between atoms: S1_8  and  C2_11 
REMARK    3  A    between atoms: C6_18  and  C7_19 
ROOT
HETATM    1  C2  UNL     1     -14.333 -27.039 -25.697  1.00  0.00     0.109 A 
HETATM    2  C3  UNL     1     -14.048 -25.945 -24.903  1.00  0.00     0.031 A 
HETATM    3  C4  UNL     1     -15.086 -25.263 -24.309  1.00  0.00     0.047 A 
HETATM    4  C5  UNL     1     -16.392 -25.663 -24.500  1.00  0.00     0.116 A 
HETATM    5  N4  UNL     1     -17.450 -24.950 -23.882  1.00  0.00    -0.083 NA
HETATM    6  N5  UNL     1     -16.600 -26.712 -25.266  1.00  0.00    -0.341 N 
ATOM      7  H5  UNL     1     -17.566 -27.005 -25.406  1.00  0.00     0.167 HD
HETATM    8  C6  UNL     1     -15.618 -27.446 -25.894  1.00  0.00     0.095 A 
ENDROOT
BRANCH   1   9
HETATM    9  S1  UNL     1     -13.025 -27.902 -26.453  1.00  0.00     0.267 S 
HETATM   10  O1  UNL     1     -12.466 -27.119 -27.613  1.00  0.00    -0.200 OA
HETATM   11  O2  UNL     1     -13.486 -29.291 -26.899  1.00  0.00    -0.200 OA
BRANCH   9  12
HETATM   12  N3  UNL     1     -11.699 -28.191 -25.399  1.00  0.00    -0.254 N 
HETATM   13  C1  UNL     1     -10.505 -28.786 -25.857  1.00  0.00     0.195 C 
HETATM   14  N1  UNL     1     -10.353 -29.505 -26.909  1.00  0.00    -0.373 N 
HETATM   15  N2  UNL     1      -9.284 -28.595 -25.081  1.00  0.00    -0.063 NA
ATOM     16  H12 UNL     1      -9.490 -29.936 -27.239  1.00  0.00     0.158 HD
ATOM     17  H11 UNL     1     -11.206 -29.639 -27.451  1.00  0.00     0.158 HD
ATOM     18  H3  UNL     1     -11.777 -27.924 -24.417  1.00  0.00     0.181 HD
ENDBRANCH   9  12
ENDBRANCH   1   9
BRANCH   8  19
HETATM   19  C7  UNL     1     -16.044 -28.584 -26.694  1.00  0.00     0.289 C 
HETATM   20  O3  UNL     1     -16.498 -28.590 -27.837  1.00  0.00    -0.300 OA
ENDBRANCH   8  19
TORSDOF 3
ENDMDL
