MODEL 1
REMARK VINA RESULT: -7.416159905      0.000      0.000
REMARK  13 active torsions:
REMARK  status: ('A' for Active; 'I' for Inactive)
REMARK    1  A    between atoms: N1_2  and  C2_5 
REMARK    2  A    between atoms: C2_5  and  C3_6 
REMARK    3  A    between atoms: C3_6  and  C4_7 
REMARK    4  A    between atoms: C4_7  and  O1_8 
REMARK    5  A    between atoms: C6_15  and  C7_16 
REMARK    6  A    between atoms: C7_16  and  O3_17 
REMARK    7  A    between atoms: C8_19  and  O4_20 
REMARK    8  A    between atoms: C9_22  and  O5_23 
REMARK    9  A    between atoms: C11_26  and  N3_27 
REMARK   10  A    between atoms: N3_27  and  C12_29 
REMARK   11  A    between atoms: C12_29  and  C13_30 
REMARK   12  A    between atoms: C13_30  and  C14_31 
REMARK   13  A    between atoms: C14_31  and  N4_32 
ROOT
HETATM    1  C3  UNL     1      35.706  53.416  18.323  1.00  0.00     0.193 C 
HETATM    2  N2  UNL     1      34.661  53.863  19.207  1.00  0.00    -0.034 N 
ATOM      3  H21 UNL     1      33.831  54.201  18.720  1.00  0.00     0.281 HD
ATOM      4  H22 UNL     1      34.881  54.733  19.693  1.00  0.00     0.281 HD
HETATM    5  C5  UNL     1      34.400  52.760  20.093  1.00  0.00     0.331 C 
HETATM    6  O2  UNL     1      33.151  52.780  20.646  1.00  0.00    -0.348 OA
HETATM    7  C6  UNL     1      32.877  51.628  21.325  1.00  0.00     0.179 C 
HETATM    8  C8  UNL     1      33.955  50.598  21.349  1.00  0.00     0.178 C 
HETATM    9  C9  UNL     1      34.589  50.352  19.990  1.00  0.00     0.159 C 
HETATM   10  C10 UNL     1      34.475  51.576  19.147  1.00  0.00     0.098 C 
HETATM   11  C11 UNL     1      35.704  51.917  18.347  1.00  0.00     0.127 C 
ENDROOT
BRANCH  11  12
HETATM   12  N3  UNL     1      35.703  51.387  17.030  1.00  0.00    -0.414 N 
ATOM     13  H3  UNL     1      36.539  51.391  16.445  1.00  0.00     0.153 HD
BRANCH  12  14
HETATM   14  C12 UNL     1      34.447  50.841  16.570  1.00  0.00     0.116 C 
BRANCH  14  15
HETATM   15  C13 UNL     1      34.750  49.415  16.101  1.00  0.00     0.046 C 
BRANCH  15  16
HETATM   16  C14 UNL     1      34.047  48.459  17.024  1.00  0.00     0.231 C 
BRANCH  16  17
HETATM   17  N4  UNL     1      34.975  47.749  17.885  1.00  0.00    -0.079 N 
ATOM     18  H43 UNL     1      35.828  48.288  18.032  1.00  0.00     0.274 HD
ATOM     19  H42 UNL     1      34.637  47.717  18.846  1.00  0.00     0.274 HD
ATOM     20  H41 UNL     1      35.184  46.815  17.534  1.00  0.00     0.274 HD
ENDBRANCH  16  17
ENDBRANCH  15  16
ENDBRANCH  14  15
ENDBRANCH  12  14
ENDBRANCH  11  12
BRANCH   1  21
HETATM   21  C2  UNL     1      37.080  53.898  18.710  1.00  0.00     0.275 C 
BRANCH  21  22
HETATM   22  N1  UNL     1      37.285  55.292  18.455  1.00  0.00    -0.076 N 
HETATM   23  C1  UNL     1      37.686  55.979  19.660  1.00  0.00     0.267 C 
ATOM     24  H12 UNL     1      36.464  55.723  18.030  1.00  0.00     0.276 HD
ATOM     25  H11 UNL     1      37.948  55.444  17.695  1.00  0.00     0.276 HD
ENDBRANCH  21  22
ENDBRANCH   1  21
BRANCH   1  26
HETATM   26  C4  UNL     1      35.381  54.012  16.962  1.00  0.00     0.207 C 
BRANCH  26  27
HETATM   27  O1  UNL     1      34.377  54.955  17.003  1.00  0.00    -0.398 OA
ATOM     28  H1  UNL     1      33.969  55.109  16.159  1.00  0.00     0.209 HD
ENDBRANCH  26  27
ENDBRANCH   1  26
BRANCH   9  29
HETATM   29  O5  UNL     1      35.895  49.909  20.179  1.00  0.00    -0.392 OA
ATOM     30  H5  UNL     1      36.242  49.618  19.345  1.00  0.00     0.210 HD
ENDBRANCH   9  29
BRANCH   8  31
HETATM   31  O4  UNL     1      33.405  49.414  21.842  1.00  0.00    -0.390 OA
ATOM     32  H4  UNL     1      33.757  49.270  22.713  1.00  0.00     0.210 HD
ENDBRANCH   8  31
BRANCH   7  33
HETATM   33  C7  UNL     1      32.557  51.970  22.786  1.00  0.00     0.198 C 
BRANCH  33  34
HETATM   34  O3  UNL     1      33.630  51.693  23.626  1.00  0.00    -0.398 OA
ATOM     35  H3  UNL     1      34.315  52.346  23.546  1.00  0.00     0.209 HD
ENDBRANCH  33  34
ENDBRANCH   7  33
TORSDOF 13
ENDMDL
MODEL 2
REMARK VINA RESULT: -7.088905953      1.146      1.716
REMARK  13 active torsions:
REMARK  status: ('A' for Active; 'I' for Inactive)
REMARK    1  A    between atoms: N1_2  and  C2_5 
REMARK    2  A    between atoms: C2_5  and  C3_6 
REMARK    3  A    between atoms: C3_6  and  C4_7 
REMARK    4  A    between atoms: C4_7  and  O1_8 
REMARK    5  A    between atoms: C6_15  and  C7_16 
REMARK    6  A    between atoms: C7_16  and  O3_17 
REMARK    7  A    between atoms: C8_19  and  O4_20 
REMARK    8  A    between atoms: C9_22  and  O5_23 
REMARK    9  A    between atoms: C11_26  and  N3_27 
REMARK   10  A    between atoms: N3_27  and  C12_29 
REMARK   11  A    between atoms: C12_29  and  C13_30 
REMARK   12  A    between atoms: C13_30  and  C14_31 
REMARK   13  A    between atoms: C14_31  and  N4_32 
ROOT
HETATM    1  C3  UNL     1      35.974  53.663  18.417  1.00  0.00     0.193 C 
HETATM    2  N2  UNL     1      34.890  54.076  19.270  1.00  0.00    -0.034 N 
ATOM      3  H21 UNL     1      34.094  54.459  18.761  1.00  0.00     0.281 HD
ATOM      4  H22 UNL     1      35.098  54.910  19.819  1.00  0.00     0.281 HD
HETATM    5  C5  UNL     1      34.563  52.927  20.072  1.00  0.00     0.331 C 
HETATM    6  O2  UNL     1      33.287  52.938  20.558  1.00  0.00    -0.348 OA
HETATM    7  C6  UNL     1      32.958  51.753  21.150  1.00  0.00     0.179 C 
HETATM    8  C8  UNL     1      34.016  50.702  21.168  1.00  0.00     0.178 C 
HETATM    9  C9  UNL     1      34.719  50.527  19.833  1.00  0.00     0.159 C 
HETATM   10  C10 UNL     1      34.670  51.801  19.061  1.00  0.00     0.098 C 
HETATM   11  C11 UNL     1      35.946  52.165  18.350  1.00  0.00     0.127 C 
ENDROOT
BRANCH  11  12
HETATM   12  N3  UNL     1      36.009  51.715  17.005  1.00  0.00    -0.414 N 
ATOM     13  H3  UNL     1      36.839  51.848  16.428  1.00  0.00     0.153 HD
BRANCH  12  14
HETATM   14  C12 UNL     1      34.823  51.057  16.504  1.00  0.00     0.116 C 
BRANCH  14  15
HETATM   15  C13 UNL     1      35.087  50.782  15.021  1.00  0.00     0.046 C 
BRANCH  15  16
HETATM   16  C14 UNL     1      35.293  52.100  14.328  1.00  0.00     0.231 C 
BRANCH  16  17
HETATM   17  N4  UNL     1      34.062  52.863  14.231  1.00  0.00    -0.079 N 
ATOM     18  H43 UNL     1      33.285  52.367  14.665  1.00  0.00     0.274 HD
ATOM     19  H42 UNL     1      34.087  53.685  14.834  1.00  0.00     0.274 HD
ATOM     20  H41 UNL     1      33.846  53.119  13.267  1.00  0.00     0.274 HD
ENDBRANCH  16  17
ENDBRANCH  15  16
ENDBRANCH  14  15
ENDBRANCH  12  14
ENDBRANCH  11  12
BRANCH   1  21
HETATM   21  C2  UNL     1      37.332  54.094  18.906  1.00  0.00     0.275 C 
BRANCH  21  22
HETATM   22  N1  UNL     1      37.622  55.470  18.635  1.00  0.00    -0.076 N 
HETATM   23  C1  UNL     1      37.703  56.227  19.862  1.00  0.00     0.267 C 
ATOM     24  H12 UNL     1      36.951  55.876  17.984  1.00  0.00     0.276 HD
ATOM     25  H11 UNL     1      38.466  55.574  18.070  1.00  0.00     0.276 HD
ENDBRANCH  21  22
ENDBRANCH   1  21
BRANCH   1  26
HETATM   26  C4  UNL     1      35.733  54.345  17.080  1.00  0.00     0.207 C 
BRANCH  26  27
HETATM   27  O1  UNL     1      34.405  54.622  16.838  1.00  0.00    -0.398 OA
ATOM     28  H1  UNL     1      34.209  54.759  15.919  1.00  0.00     0.209 HD
ENDBRANCH  26  27
ENDBRANCH   1  26
BRANCH   9  29
HETATM   29  O5  UNL     1      36.005  50.048  20.064  1.00  0.00    -0.392 OA
ATOM     30  H5  UNL     1      36.474  50.024  19.239  1.00  0.00     0.210 HD
ENDBRANCH   9  29
BRANCH   8  31
HETATM   31  O4  UNL     1      33.421  49.502  21.559  1.00  0.00    -0.390 OA
ATOM     32  H4  UNL     1      34.006  48.794  21.315  1.00  0.00     0.210 HD
ENDBRANCH   8  31
BRANCH   7  33
HETATM   33  C7  UNL     1      32.564  52.013  22.610  1.00  0.00     0.198 C 
BRANCH  33  34
HETATM   34  O3  UNL     1      33.591  51.679  23.486  1.00  0.00    -0.398 OA
ATOM     35  H3  UNL     1      33.361  50.935  24.030  1.00  0.00     0.209 HD
ENDBRANCH  33  34
ENDBRANCH   7  33
TORSDOF 13
ENDMDL
MODEL 3
REMARK VINA RESULT: -6.691335518      3.761      7.333
REMARK  13 active torsions:
REMARK  status: ('A' for Active; 'I' for Inactive)
REMARK    1  A    between atoms: N1_2  and  C2_5 
REMARK    2  A    between atoms: C2_5  and  C3_6 
REMARK    3  A    between atoms: C3_6  and  C4_7 
REMARK    4  A    between atoms: C4_7  and  O1_8 
REMARK    5  A    between atoms: C6_15  and  C7_16 
REMARK    6  A    between atoms: C7_16  and  O3_17 
REMARK    7  A    between atoms: C8_19  and  O4_20 
REMARK    8  A    between atoms: C9_22  and  O5_23 
REMARK    9  A    between atoms: C11_26  and  N3_27 
REMARK   10  A    between atoms: N3_27  and  C12_29 
REMARK   11  A    between atoms: C12_29  and  C13_30 
REMARK   12  A    between atoms: C13_30  and  C14_31 
REMARK   13  A    between atoms: C14_31  and  N4_32 
ROOT
HETATM    1  C3  UNL     1      35.553  53.964  15.512  1.00  0.00     0.193 C 
HETATM    2  N2  UNL     1      35.823  54.828  14.392  1.00  0.00    -0.034 N 
ATOM      3  H21 UNL     1      35.166  55.604  14.307  1.00  0.00     0.281 HD
ATOM      4  H22 UNL     1      35.624  54.399  13.488  1.00  0.00     0.281 HD
HETATM    5  C5  UNL     1      37.192  55.247  14.542  1.00  0.00     0.331 C 
HETATM    6  O2  UNL     1      37.482  56.421  13.908  1.00  0.00    -0.348 OA
HETATM    7  C6  UNL     1      38.728  56.877  14.229  1.00  0.00     0.179 C 
HETATM    8  C8  UNL     1      39.523  56.035  15.169  1.00  0.00     0.178 C 
HETATM    9  C9  UNL     1      38.731  55.565  16.378  1.00  0.00     0.159 C 
HETATM   10  C10 UNL     1      37.282  55.485  16.037  1.00  0.00     0.098 C 
HETATM   11  C11 UNL     1      36.567  54.273  16.571  1.00  0.00     0.127 C 
ENDROOT
BRANCH  11  12
HETATM   12  N3  UNL     1      35.941  54.478  17.830  1.00  0.00    -0.414 N 
ATOM     13  H3  UNL     1      35.165  55.129  17.949  1.00  0.00     0.153 HD
BRANCH  12  14
HETATM   14  C12 UNL     1      36.471  53.706  18.931  1.00  0.00     0.116 C 
BRANCH  14  15
HETATM   15  C13 UNL     1      35.259  53.171  19.696  1.00  0.00     0.046 C 
BRANCH  15  16
HETATM   16  C14 UNL     1      35.341  51.669  19.714  1.00  0.00     0.231 C 
BRANCH  16  17
HETATM   17  N4  UNL     1      34.999  51.090  18.428  1.00  0.00    -0.079 N 
ATOM     18  H43 UNL     1      35.222  51.727  17.664  1.00  0.00     0.274 HD
ATOM     19  H42 UNL     1      35.629  50.324  18.189  1.00  0.00     0.274 HD
ATOM     20  H41 UNL     1      34.025  50.793  18.389  1.00  0.00     0.274 HD
ENDBRANCH  16  17
ENDBRANCH  15  16
ENDBRANCH  14  15
ENDBRANCH  12  14
ENDBRANCH  11  12
BRANCH   1  21
HETATM   21  C2  UNL     1      35.637  52.497  15.183  1.00  0.00     0.275 C 
BRANCH  21  22
HETATM   22  N1  UNL     1      34.514  52.017  14.434  1.00  0.00    -0.076 N 
HETATM   23  C1  UNL     1      34.948  51.400  13.202  1.00  0.00     0.267 C 
ATOM     24  H12 UNL     1      33.830  52.754  14.266  1.00  0.00     0.276 HD
ATOM     25  H11 UNL     1      33.931  51.389  14.987  1.00  0.00     0.276 HD
ENDBRANCH  21  22
ENDBRANCH   1  21
BRANCH   1  26
HETATM   26  C4  UNL     1      34.119  54.257  15.925  1.00  0.00     0.207 C 
BRANCH  26  27
HETATM   27  O1  UNL     1      33.601  53.328  16.801  1.00  0.00    -0.398 OA
ATOM     28  H1  UNL     1      33.452  52.478  16.405  1.00  0.00     0.209 HD
ENDBRANCH  26  27
ENDBRANCH   1  26
BRANCH   9  29
HETATM   29  O5  UNL     1      39.278  54.368  16.832  1.00  0.00    -0.392 OA
ATOM     30  H5  UNL     1      40.207  54.493  16.978  1.00  0.00     0.210 HD
ENDBRANCH   9  29
BRANCH   8  31
HETATM   31  O4  UNL     1      40.628  56.780  15.580  1.00  0.00    -0.390 OA
ATOM     32  H4  UNL     1      40.370  57.694  15.611  1.00  0.00     0.210 HD
ENDBRANCH   8  31
BRANCH   7  33
HETATM   33  C7  UNL     1      39.559  57.014  12.946  1.00  0.00     0.198 C 
BRANCH  33  34
HETATM   34  O3  UNL     1      38.779  57.423  11.870  1.00  0.00    -0.398 OA
ATOM     35  H3  UNL     1      38.976  56.928  11.084  1.00  0.00     0.209 HD
ENDBRANCH  33  34
ENDBRANCH   7  33
TORSDOF 13
ENDMDL
MODEL 4
REMARK VINA RESULT: -6.549066880      1.917      5.224
REMARK  13 active torsions:
REMARK  status: ('A' for Active; 'I' for Inactive)
REMARK    1  A    between atoms: N1_2  and  C2_5 
REMARK    2  A    between atoms: C2_5  and  C3_6 
REMARK    3  A    between atoms: C3_6  and  C4_7 
REMARK    4  A    between atoms: C4_7  and  O1_8 
REMARK    5  A    between atoms: C6_15  and  C7_16 
REMARK    6  A    between atoms: C7_16  and  O3_17 
REMARK    7  A    between atoms: C8_19  and  O4_20 
REMARK    8  A    between atoms: C9_22  and  O5_23 
REMARK    9  A    between atoms: C11_26  and  N3_27 
REMARK   10  A    between atoms: N3_27  and  C12_29 
REMARK   11  A    between atoms: C12_29  and  C13_30 
REMARK   12  A    between atoms: C13_30  and  C14_31 
REMARK   13  A    between atoms: C14_31  and  N4_32 
ROOT
HETATM    1  C3  UNL     1      35.050  51.964  19.745  1.00  0.00     0.193 C 
HETATM    2  N2  UNL     1      36.207  52.820  19.804  1.00  0.00    -0.034 N 
ATOM      3  H21 UNL     1      37.058  52.336  20.088  1.00  0.00     0.281 HD
ATOM      4  H22 UNL     1      36.182  53.486  20.576  1.00  0.00     0.281 HD
HETATM    5  C5  UNL     1      36.300  53.442  18.510  1.00  0.00     0.331 C 
HETATM    6  O2  UNL     1      37.558  53.872  18.194  1.00  0.00    -0.348 OA
HETATM    7  C6  UNL     1      37.643  54.280  16.895  1.00  0.00     0.179 C 
HETATM    8  C8  UNL     1      36.392  54.198  16.088  1.00  0.00     0.178 C 
HETATM    9  C9  UNL     1      35.652  52.882  16.251  1.00  0.00     0.159 C 
HETATM   10  C10 UNL     1      35.951  52.291  17.586  1.00  0.00     0.098 C 
HETATM   11  C11 UNL     1      34.769  51.690  18.298  1.00  0.00     0.127 C 
ENDROOT
BRANCH  11  12
HETATM   12  N3  UNL     1      34.598  50.300  18.067  1.00  0.00    -0.414 N 
ATOM     13  H3  UNL     1      34.529  49.629  18.832  1.00  0.00     0.153 HD
BRANCH  12  14
HETATM   14  C12 UNL     1      34.529  49.894  16.682  1.00  0.00     0.116 C 
BRANCH  14  15
HETATM   15  C13 UNL     1      34.268  48.386  16.694  1.00  0.00     0.046 C 
BRANCH  15  16
HETATM   16  C14 UNL     1      34.419  47.896  18.108  1.00  0.00     0.231 C 
BRANCH  16  17
HETATM   17  N4  UNL     1      35.652  47.155  18.300  1.00  0.00    -0.079 N 
ATOM     18  H43 UNL     1      35.693  46.340  17.689  1.00  0.00     0.274 HD
ATOM     19  H42 UNL     1      36.453  47.670  17.935  1.00  0.00     0.274 HD
ATOM     20  H41 UNL     1      35.794  46.894  19.276  1.00  0.00     0.274 HD
ENDBRANCH  16  17
ENDBRANCH  15  16
ENDBRANCH  14  15
ENDBRANCH  12  14
ENDBRANCH  11  12
BRANCH   1  21
HETATM   21  C2  UNL     1      33.816  52.563  20.367  1.00  0.00     0.275 C 
BRANCH  21  22
HETATM   22  N1  UNL     1      32.904  51.584  20.877  1.00  0.00    -0.076 N 
HETATM   23  C1  UNL     1      32.456  51.943  22.201  1.00  0.00     0.267 C 
ATOM     24  H12 UNL     1      33.306  50.647  20.855  1.00  0.00     0.276 HD
ATOM     25  H11 UNL     1      32.122  51.429  20.241  1.00  0.00     0.276 HD
ENDBRANCH  21  22
ENDBRANCH   1  21
BRANCH   1  26
HETATM   26  C4  UNL     1      35.410  50.724  20.549  1.00  0.00     0.207 C 
BRANCH  26  27
HETATM   27  O1  UNL     1      35.700  50.993  21.870  1.00  0.00    -0.398 OA
ATOM     28  H1  UNL     1      35.964  50.225  22.361  1.00  0.00     0.209 HD
ENDBRANCH  26  27
ENDBRANCH   1  26
BRANCH   9  29
HETATM   29  O5  UNL     1      34.297  53.098  16.013  1.00  0.00    -0.392 OA
ATOM     30  H5  UNL     1      34.077  52.746  15.159  1.00  0.00     0.210 HD
ENDBRANCH   9  29
BRANCH   8  31
HETATM   31  O4  UNL     1      36.732  54.395  14.749  1.00  0.00    -0.390 OA
ATOM     32  H4  UNL     1      37.675  54.503  14.700  1.00  0.00     0.210 HD
ENDBRANCH   8  31
BRANCH   7  33
HETATM   33  C7  UNL     1      38.100  55.745  16.858  1.00  0.00     0.198 C 
BRANCH  33  34
HETATM   34  O3  UNL     1      37.106  56.581  16.362  1.00  0.00    -0.398 OA
ATOM     35  H3  UNL     1      36.969  57.335  16.923  1.00  0.00     0.209 HD
ENDBRANCH  33  34
ENDBRANCH   7  33
TORSDOF 13
ENDMDL
MODEL 5
REMARK VINA RESULT: -6.439063081      3.529      4.566
REMARK  13 active torsions:
REMARK  status: ('A' for Active; 'I' for Inactive)
REMARK    1  A    between atoms: N1_2  and  C2_5 
REMARK    2  A    between atoms: C2_5  and  C3_6 
REMARK    3  A    between atoms: C3_6  and  C4_7 
REMARK    4  A    between atoms: C4_7  and  O1_8 
REMARK    5  A    between atoms: C6_15  and  C7_16 
REMARK    6  A    between atoms: C7_16  and  O3_17 
REMARK    7  A    between atoms: C8_19  and  O4_20 
REMARK    8  A    between atoms: C9_22  and  O5_23 
REMARK    9  A    between atoms: C11_26  and  N3_27 
REMARK   10  A    between atoms: N3_27  and  C12_29 
REMARK   11  A    between atoms: C12_29  and  C13_30 
REMARK   12  A    between atoms: C13_30  and  C14_31 
REMARK   13  A    between atoms: C14_31  and  N4_32 
ROOT
HETATM    1  C3  UNL     1      34.155  54.004  14.282  1.00  0.00     0.193 C 
HETATM    2  N2  UNL     1      33.737  54.565  15.541  1.00  0.00    -0.034 N 
ATOM      3  H21 UNL     1      32.725  54.557  15.674  1.00  0.00     0.281 HD
ATOM      4  H22 UNL     1      33.860  55.576  15.599  1.00  0.00     0.281 HD
HETATM    5  C5  UNL     1      34.457  53.838  16.553  1.00  0.00     0.331 C 
HETATM    6  O2  UNL     1      33.853  53.854  17.778  1.00  0.00    -0.348 OA
HETATM    7  C6  UNL     1      34.463  53.004  18.655  1.00  0.00     0.179 C 
HETATM    8  C8  UNL     1      35.641  52.249  18.140  1.00  0.00     0.178 C 
HETATM    9  C9  UNL     1      35.413  51.629  16.772  1.00  0.00     0.159 C 
HETATM   10  C10 UNL     1      34.398  52.420  16.018  1.00  0.00     0.098 C 
HETATM   11  C11 UNL     1      34.713  52.641  14.563  1.00  0.00     0.127 C 
ENDROOT
BRANCH  11  12
HETATM   12  N3  UNL     1      34.148  51.671  13.694  1.00  0.00    -0.414 N 
ATOM     13  H3  UNL     1      33.167  51.399  13.752  1.00  0.00     0.153 HD
BRANCH  12  14
HETATM   14  C12 UNL     1      35.048  51.093  12.722  1.00  0.00     0.116 C 
BRANCH  14  15
HETATM   15  C13 UNL     1      34.164  50.378  11.697  1.00  0.00     0.046 C 
BRANCH  15  16
HETATM   16  C14 UNL     1      35.057  49.760  10.657  1.00  0.00     0.231 C 
BRANCH  16  17
HETATM   17  N4  UNL     1      34.431  49.731   9.349  1.00  0.00    -0.079 N 
ATOM     18  H43 UNL     1      33.912  48.865   9.206  1.00  0.00     0.274 HD
ATOM     19  H42 UNL     1      33.658  50.394   9.294  1.00  0.00     0.274 HD
ATOM     20  H41 UNL     1      35.105  49.886   8.599  1.00  0.00     0.274 HD
ENDBRANCH  16  17
ENDBRANCH  15  16
ENDBRANCH  14  15
ENDBRANCH  12  14
ENDBRANCH  11  12
BRANCH   1  21
HETATM   21  C2  UNL     1      35.208  54.815  13.574  1.00  0.00     0.275 C 
BRANCH  21  22
HETATM   22  N1  UNL     1      36.533  54.299  13.745  1.00  0.00    -0.076 N 
HETATM   23  C1  UNL     1      37.385  55.278  14.378  1.00  0.00     0.267 C 
ATOM     24  H12 UNL     1      36.926  53.969  12.864  1.00  0.00     0.276 HD
ATOM     25  H11 UNL     1      36.531  53.414  14.252  1.00  0.00     0.276 HD
ENDBRANCH  21  22
ENDBRANCH   1  21
BRANCH   1  26
HETATM   26  C4  UNL     1      32.917  53.994  13.400  1.00  0.00     0.207 C 
BRANCH  26  27
HETATM   27  O1  UNL     1      31.763  53.671  14.080  1.00  0.00    -0.398 OA
ATOM     28  H1  UNL     1      31.154  54.396  14.156  1.00  0.00     0.209 HD
ENDBRANCH  26  27
ENDBRANCH   1  26
BRANCH   9  29
HETATM   29  O5  UNL     1      36.639  51.510  16.124  1.00  0.00    -0.392 OA
ATOM     30  H5  UNL     1      36.665  52.128  15.404  1.00  0.00     0.210 HD
ENDBRANCH   9  29
BRANCH   8  31
HETATM   31  O4  UNL     1      35.954  51.257  19.069  1.00  0.00    -0.390 OA
ATOM     32  H4  UNL     1      35.635  51.541  19.919  1.00  0.00     0.210 HD
ENDBRANCH   8  31
BRANCH   7  33
HETATM   33  C7  UNL     1      34.945  53.802  19.874  1.00  0.00     0.198 C 
BRANCH  33  34
HETATM   34  O3  UNL     1      33.977  53.854  20.870  1.00  0.00    -0.398 OA
ATOM     35  H3  UNL     1      34.192  54.497  21.536  1.00  0.00     0.209 HD
ENDBRANCH  33  34
ENDBRANCH   7  33
TORSDOF 13
ENDMDL
