MODEL 1
REMARK VINA RESULT: -6.935085848      0.000      0.000
REMARK  14 active torsions:
REMARK  status: ('A' for Active; 'I' for Inactive)
REMARK    1  A    between atoms: N1_1  and  C1_5 
REMARK    2  A    between atoms: C1_5  and  C2_6 
REMARK    3  A    between atoms: C2_6  and  N2_7 
REMARK    4  A    between atoms: N2_7  and  C3_9 
REMARK    5  A    between atoms: C4_10  and  C5_11 
REMARK    6  A    between atoms: C5_11  and  N3_12 
REMARK    7  A    between atoms: C6_16  and  N4_17 
REMARK    8  A    between atoms: N4_17  and  O1_19 
REMARK    9  A    between atoms: O1_19  and  C7_20 
REMARK   10  A    between atoms: C8_22  and  C9_23 
REMARK   11  A    between atoms: C9_23  and  N5_24 
REMARK   12  A    between atoms: C10_29  and  C11_30 
REMARK   13  A    between atoms: C11_30  and  O4_31 
REMARK   14  A    between atoms: C12_33  and  O5_34 
ROOT
HETATM    1  N4  UNL     1      34.645  53.656  19.225  1.00  0.00    -0.292 N 
ATOM      2  H4  UNL     1      33.882  54.311  19.400  1.00  0.00     0.188 HD
ENDROOT
BRANCH   1   3
HETATM    3  C6  UNL     1      34.750  52.487  20.018  1.00  0.00     0.136 A 
HETATM    4  C3  UNL     1      34.321  51.182  19.507  1.00  0.00     0.109 A 
HETATM    5  C4  UNL     1      33.380  51.850  20.390  1.00  0.00     0.062 A 
BRANCH   4   6
HETATM    6  N2  UNL     1      34.973  49.942  19.670  1.00  0.00    -0.413 N 
ATOM      7  H2  UNL     1      35.917  49.875  20.053  1.00  0.00     0.153 HD
BRANCH   6   8
HETATM    8  C2  UNL     1      34.239  48.788  19.270  1.00  0.00     0.141 C 
BRANCH   8   9
HETATM    9  C1  UNL     1      33.695  49.041  17.870  1.00  0.00     0.248 C 
BRANCH   9  10
HETATM   10  N1  UNL     1      34.672  48.594  16.905  1.00  0.00    -0.078 N 
ATOM     11  H13 UNL     1      35.381  47.989  17.320  1.00  0.00     0.274 HD
ATOM     12  H12 UNL     1      34.286  47.923  16.241  1.00  0.00     0.274 HD
ATOM     13  H11 UNL     1      35.075  49.411  16.446  1.00  0.00     0.274 HD
ENDBRANCH   9  10
ENDBRANCH   8   9
ENDBRANCH   6   8
ENDBRANCH   4   6
BRANCH   5  14
HETATM   14  C5  UNL     1      33.245  51.690  21.863  1.00  0.00     0.238 C 
BRANCH  14  15
HETATM   15  N3  UNL     1      32.832  50.383  22.316  1.00  0.00    -0.079 N 
ATOM     16  H33 UNL     1      31.866  50.208  22.039  1.00  0.00     0.274 HD
ATOM     17  H32 UNL     1      33.310  49.661  21.777  1.00  0.00     0.274 HD
ATOM     18  H31 UNL     1      32.945  50.205  23.313  1.00  0.00     0.274 HD
ENDBRANCH  14  15
ENDBRANCH   5  14
ENDBRANCH   1   3
BRANCH   1  19
HETATM   19  O1  UNL     1      35.502  53.913  18.278  1.00  0.00    -0.249 OA
BRANCH  19  20
HETATM   20  C7  UNL     1      34.964  53.832  16.996  1.00  0.00     0.322 C 
HETATM   21  O2  UNL     1      35.311  54.936  16.215  1.00  0.00    -0.325 OA
HETATM   22  C8  UNL     1      36.311  54.763  15.319  1.00  0.00     0.289 C 
HETATM   23  O3  UNL     1      36.259  53.614  14.575  1.00  0.00    -0.349 OA
HETATM   24  C10 UNL     1      35.178  52.809  14.834  1.00  0.00     0.181 C 
HETATM   25  C12 UNL     1      35.172  52.518  16.335  1.00  0.00     0.206 C 
BRANCH  22  26
HETATM   26  C9  UNL     1      37.692  54.976  15.964  1.00  0.00     0.290 C 
BRANCH  26  27
HETATM   27  N5  UNL     1      37.607  55.998  16.993  1.00  0.00    -0.075 N 
ATOM     28  H53 UNL     1      38.512  56.432  17.177  1.00  0.00     0.274 HD
ATOM     29  H52 UNL     1      37.108  56.827  16.669  1.00  0.00     0.274 HD
ATOM     30  H51 UNL     1      37.191  55.608  17.838  1.00  0.00     0.274 HD
ENDBRANCH  26  27
ENDBRANCH  22  26
BRANCH  24  31
HETATM   31  C11 UNL     1      35.219  51.553  14.046  1.00  0.00     0.199 C 
BRANCH  31  32
HETATM   32  O4  UNL     1      34.395  50.593  14.656  1.00  0.00    -0.398 OA
ATOM     33  H4  UNL     1      33.668  50.390  14.080  1.00  0.00     0.209 HD
ENDBRANCH  31  32
ENDBRANCH  24  31
BRANCH  25  34
HETATM   34  O5  UNL     1      36.343  51.858  16.690  1.00  0.00    -0.388 OA
ATOM     35  H5  UNL     1      36.707  51.293  16.018  1.00  0.00     0.210 HD
ENDBRANCH  25  34
ENDBRANCH  19  20
ENDBRANCH   1  19
TORSDOF 14
ENDMDL
MODEL 2
REMARK VINA RESULT: -6.539310986      2.774      6.518
REMARK  14 active torsions:
REMARK  status: ('A' for Active; 'I' for Inactive)
REMARK    1  A    between atoms: N1_1  and  C1_5 
REMARK    2  A    between atoms: C1_5  and  C2_6 
REMARK    3  A    between atoms: C2_6  and  N2_7 
REMARK    4  A    between atoms: N2_7  and  C3_9 
REMARK    5  A    between atoms: C4_10  and  C5_11 
REMARK    6  A    between atoms: C5_11  and  N3_12 
REMARK    7  A    between atoms: C6_16  and  N4_17 
REMARK    8  A    between atoms: N4_17  and  O1_19 
REMARK    9  A    between atoms: O1_19  and  C7_20 
REMARK   10  A    between atoms: C8_22  and  C9_23 
REMARK   11  A    between atoms: C9_23  and  N5_24 
REMARK   12  A    between atoms: C10_29  and  C11_30 
REMARK   13  A    between atoms: C11_30  and  O4_31 
REMARK   14  A    between atoms: C12_33  and  O5_34 
ROOT
HETATM    1  N4  UNL     1      35.056  51.471  17.070  1.00  0.00    -0.292 N 
ATOM      2  H4  UNL     1      34.720  50.654  16.558  1.00  0.00     0.188 HD
ENDROOT
BRANCH   1   3
HETATM    3  C6  UNL     1      35.331  52.667  16.362  1.00  0.00     0.136 A 
HETATM    4  C3  UNL     1      35.471  53.948  17.060  1.00  0.00     0.109 A 
HETATM    5  C4  UNL     1      34.184  53.717  16.426  1.00  0.00     0.062 A 
BRANCH   4   6
HETATM    6  N2  UNL     1      36.422  54.960  16.812  1.00  0.00    -0.413 N 
ATOM      7  H2  UNL     1      36.207  55.771  16.231  1.00  0.00     0.153 HD
BRANCH   6   8
HETATM    8  C2  UNL     1      37.700  54.785  17.418  1.00  0.00     0.141 C 
BRANCH   8   9
HETATM    9  C1  UNL     1      37.490  54.635  18.919  1.00  0.00     0.248 C 
BRANCH   9  10
HETATM   10  N1  UNL     1      37.552  55.943  19.528  1.00  0.00    -0.078 N 
ATOM     11  H13 UNL     1      37.966  55.920  20.460  1.00  0.00     0.274 HD
ATOM     12  H12 UNL     1      38.242  56.548  19.083  1.00  0.00     0.274 HD
ATOM     13  H11 UNL     1      36.616  56.349  19.526  1.00  0.00     0.274 HD
ENDBRANCH   9  10
ENDBRANCH   8   9
ENDBRANCH   6   8
ENDBRANCH   4   6
BRANCH   5  14
HETATM   14  C5  UNL     1      33.757  54.129  15.062  1.00  0.00     0.238 C 
BRANCH  14  15
HETATM   15  N3  UNL     1      32.334  54.135  14.825  1.00  0.00    -0.079 N 
ATOM     16  H33 UNL     1      31.839  54.383  15.682  1.00  0.00     0.274 HD
ATOM     17  H32 UNL     1      32.082  54.927  14.234  1.00  0.00     0.274 HD
ATOM     18  H31 UNL     1      31.946  53.276  14.437  1.00  0.00     0.274 HD
ENDBRANCH  14  15
ENDBRANCH   5  14
ENDBRANCH   1   3
BRANCH   1  19
HETATM   19  O1  UNL     1      35.225  51.392  18.359  1.00  0.00    -0.249 OA
BRANCH  19  20
HETATM   20  C7  UNL     1      34.068  51.050  19.057  1.00  0.00     0.322 C 
HETATM   21  O2  UNL     1      34.027  49.689  19.362  1.00  0.00    -0.325 OA
HETATM   22  C8  UNL     1      34.355  49.333  20.626  1.00  0.00     0.289 C 
HETATM   23  O3  UNL     1      33.804  50.092  21.626  1.00  0.00    -0.349 OA
HETATM   24  C10 UNL     1      32.976  51.098  21.195  1.00  0.00     0.181 C 
HETATM   25  C12 UNL     1      33.766  51.949  20.201  1.00  0.00     0.206 C 
BRANCH  22  26
HETATM   26  C9  UNL     1      35.875  49.168  20.791  1.00  0.00     0.290 C 
BRANCH  26  27
HETATM   27  N5  UNL     1      36.344  49.974  21.906  1.00  0.00    -0.075 N 
ATOM     28  H53 UNL     1      36.662  50.895  21.605  1.00  0.00     0.274 HD
ATOM     29  H52 UNL     1      35.579  50.271  22.512  1.00  0.00     0.274 HD
ATOM     30  H51 UNL     1      37.066  49.470  22.421  1.00  0.00     0.274 HD
ENDBRANCH  26  27
ENDBRANCH  22  26
BRANCH  24  31
HETATM   31  C11 UNL     1      32.470  51.920  22.320  1.00  0.00     0.199 C 
BRANCH  31  32
HETATM   32  O4  UNL     1      33.352  51.815  23.407  1.00  0.00    -0.398 OA
ATOM     33  H4  UNL     1      33.047  52.368  24.116  1.00  0.00     0.209 HD
ENDBRANCH  31  32
ENDBRANCH  24  31
BRANCH  25  34
HETATM   34  O5  UNL     1      34.878  52.496  20.831  1.00  0.00    -0.388 OA
ATOM     35  H5  UNL     1      34.941  53.443  20.788  1.00  0.00     0.210 HD
ENDBRANCH  25  34
ENDBRANCH  19  20
ENDBRANCH   1  19
TORSDOF 14
ENDMDL
MODEL 3
REMARK VINA RESULT: -6.473813281      1.586      2.788
REMARK  14 active torsions:
REMARK  status: ('A' for Active; 'I' for Inactive)
REMARK    1  A    between atoms: N1_1  and  C1_5 
REMARK    2  A    between atoms: C1_5  and  C2_6 
REMARK    3  A    between atoms: C2_6  and  N2_7 
REMARK    4  A    between atoms: N2_7  and  C3_9 
REMARK    5  A    between atoms: C4_10  and  C5_11 
REMARK    6  A    between atoms: C5_11  and  N3_12 
REMARK    7  A    between atoms: C6_16  and  N4_17 
REMARK    8  A    between atoms: N4_17  and  O1_19 
REMARK    9  A    between atoms: O1_19  and  C7_20 
REMARK   10  A    between atoms: C8_22  and  C9_23 
REMARK   11  A    between atoms: C9_23  and  N5_24 
REMARK   12  A    between atoms: C10_29  and  C11_30 
REMARK   13  A    between atoms: C11_30  and  O4_31 
REMARK   14  A    between atoms: C12_33  and  O5_34 
ROOT
HETATM    1  N4  UNL     1      34.129  52.723  18.487  1.00  0.00    -0.292 N 
ATOM      2  H4  UNL     1      33.964  53.704  18.712  1.00  0.00     0.188 HD
ENDROOT
BRANCH   1   3
HETATM    3  C6  UNL     1      34.183  51.770  19.534  1.00  0.00     0.136 A 
HETATM    4  C3  UNL     1      33.330  50.579  19.524  1.00  0.00     0.109 A 
HETATM    5  C4  UNL     1      32.873  51.671  20.366  1.00  0.00     0.062 A 
BRANCH   4   6
HETATM    6  N2  UNL     1      33.691  49.264  19.882  1.00  0.00    -0.413 N 
ATOM      7  H2  UNL     1      33.474  48.876  20.800  1.00  0.00     0.153 HD
BRANCH   6   8
HETATM    8  C2  UNL     1      34.377  48.506  18.888  1.00  0.00     0.141 C 
BRANCH   8   9
HETATM    9  C1  UNL     1      33.721  48.795  17.543  1.00  0.00     0.248 C 
BRANCH   9  10
HETATM   10  N1  UNL     1      34.740  49.222  16.614  1.00  0.00    -0.078 N 
ATOM     11  H13 UNL     1      35.594  48.671  16.691  1.00  0.00     0.274 HD
ATOM     12  H12 UNL     1      34.508  48.990  15.647  1.00  0.00     0.274 HD
ATOM     13  H11 UNL     1      34.906  50.220  16.747  1.00  0.00     0.274 HD
ENDBRANCH   9  10
ENDBRANCH   8   9
ENDBRANCH   6   8
ENDBRANCH   4   6
BRANCH   5  14
HETATM   14  C5  UNL     1      33.141  51.872  21.816  1.00  0.00     0.238 C 
BRANCH  14  15
HETATM   15  N3  UNL     1      32.757  50.784  22.682  1.00  0.00    -0.079 N 
ATOM     16  H33 UNL     1      31.780  50.539  22.522  1.00  0.00     0.274 HD
ATOM     17  H32 UNL     1      33.213  49.922  22.381  1.00  0.00     0.274 HD
ATOM     18  H31 UNL     1      32.920  50.932  23.678  1.00  0.00     0.274 HD
ENDBRANCH  14  15
ENDBRANCH   5  14
ENDBRANCH   1   3
BRANCH   1  19
HETATM   19  O1  UNL     1      34.286  52.371  17.242  1.00  0.00    -0.249 OA
BRANCH  19  20
HETATM   20  C7  UNL     1      35.545  52.673  16.728  1.00  0.00     0.322 C 
HETATM   21  O2  UNL     1      35.820  51.949  15.567  1.00  0.00    -0.325 OA
HETATM   22  C8  UNL     1      35.678  52.600  14.389  1.00  0.00     0.289 C 
HETATM   23  O3  UNL     1      36.207  53.863  14.333  1.00  0.00    -0.349 OA
HETATM   24  C10 UNL     1      36.828  54.278  15.485  1.00  0.00     0.181 C 
HETATM   25  C12 UNL     1      35.822  54.129  16.628  1.00  0.00     0.206 C 
BRANCH  22  26
HETATM   26  C9  UNL     1      34.224  52.556  13.889  1.00  0.00     0.290 C 
BRANCH  26  27
HETATM   27  N5  UNL     1      33.742  53.905  13.642  1.00  0.00    -0.075 N 
ATOM     28  H53 UNL     1      32.726  53.940  13.565  1.00  0.00     0.274 HD
ATOM     29  H52 UNL     1      33.852  54.505  14.459  1.00  0.00     0.274 HD
ATOM     30  H51 UNL     1      34.201  54.293  12.818  1.00  0.00     0.274 HD
ENDBRANCH  26  27
ENDBRANCH  22  26
BRANCH  24  31
HETATM   31  C11 UNL     1      37.316  55.675  15.381  1.00  0.00     0.199 C 
BRANCH  31  32
HETATM   32  O4  UNL     1      37.226  56.295  16.637  1.00  0.00    -0.398 OA
ATOM     33  H4  UNL     1      38.066  56.239  17.077  1.00  0.00     0.209 HD
ENDBRANCH  31  32
ENDBRANCH  24  31
BRANCH  25  34
HETATM   34  O5  UNL     1      34.711  54.926  16.382  1.00  0.00    -0.388 OA
ATOM     35  H5  UNL     1      34.857  55.647  15.780  1.00  0.00     0.210 HD
ENDBRANCH  25  34
ENDBRANCH  19  20
ENDBRANCH   1  19
TORSDOF 14
ENDMDL
MODEL 4
REMARK VINA RESULT: -6.416980138      2.604      6.592
REMARK  14 active torsions:
REMARK  status: ('A' for Active; 'I' for Inactive)
REMARK    1  A    between atoms: N1_1  and  C1_5 
REMARK    2  A    between atoms: C1_5  and  C2_6 
REMARK    3  A    between atoms: C2_6  and  N2_7 
REMARK    4  A    between atoms: N2_7  and  C3_9 
REMARK    5  A    between atoms: C4_10  and  C5_11 
REMARK    6  A    between atoms: C5_11  and  N3_12 
REMARK    7  A    between atoms: C6_16  and  N4_17 
REMARK    8  A    between atoms: N4_17  and  O1_19 
REMARK    9  A    between atoms: O1_19  and  C7_20 
REMARK   10  A    between atoms: C8_22  and  C9_23 
REMARK   11  A    between atoms: C9_23  and  N5_24 
REMARK   12  A    between atoms: C10_29  and  C11_30 
REMARK   13  A    between atoms: C11_30  and  O4_31 
REMARK   14  A    between atoms: C12_33  and  O5_34 
ROOT
HETATM    1  N4  UNL     1      35.386  51.706  17.036  1.00  0.00    -0.292 N 
ATOM      2  H4  UNL     1      35.005  50.881  16.573  1.00  0.00     0.188 HD
ENDROOT
BRANCH   1   3
HETATM    3  C6  UNL     1      35.916  52.760  16.252  1.00  0.00     0.136 A 
HETATM    4  C3  UNL     1      35.784  54.158  16.668  1.00  0.00     0.109 A 
HETATM    5  C4  UNL     1      34.837  53.712  15.661  1.00  0.00     0.062 A 
BRANCH   4   6
HETATM    6  N2  UNL     1      36.762  55.172  16.590  1.00  0.00    -0.413 N 
ATOM      7  H2  UNL     1      36.631  56.004  16.014  1.00  0.00     0.153 HD
BRANCH   6   8
HETATM    8  C2  UNL     1      37.943  54.968  17.362  1.00  0.00     0.141 C 
BRANCH   8   9
HETATM    9  C1  UNL     1      37.528  54.812  18.820  1.00  0.00     0.248 C 
BRANCH   9  10
HETATM   10  N1  UNL     1      37.602  56.103  19.462  1.00  0.00    -0.078 N 
ATOM     11  H13 UNL     1      37.315  56.863  18.845  1.00  0.00     0.274 HD
ATOM     12  H12 UNL     1      36.885  56.225  20.177  1.00  0.00     0.274 HD
ATOM     13  H11 UNL     1      38.545  56.232  19.829  1.00  0.00     0.274 HD
ENDBRANCH   9  10
ENDBRANCH   8   9
ENDBRANCH   6   8
ENDBRANCH   4   6
BRANCH   5  14
HETATM   14  C5  UNL     1      34.967  53.818  14.182  1.00  0.00     0.238 C 
BRANCH  14  15
HETATM   15  N3  UNL     1      33.794  54.280  13.481  1.00  0.00    -0.079 N 
ATOM     16  H33 UNL     1      33.879  55.276  13.278  1.00  0.00     0.274 HD
ATOM     17  H32 UNL     1      33.783  53.902  12.533  1.00  0.00     0.274 HD
ATOM     18  H31 UNL     1      32.902  54.094  13.939  1.00  0.00     0.274 HD
ENDBRANCH  14  15
ENDBRANCH   5  14
ENDBRANCH   1   3
BRANCH   1  19
HETATM   19  O1  UNL     1      35.378  51.768  18.337  1.00  0.00    -0.249 OA
BRANCH  19  20
HETATM   20  C7  UNL     1      34.102  51.879  18.886  1.00  0.00     0.322 C 
HETATM   21  O2  UNL     1      33.282  50.811  18.517  1.00  0.00    -0.325 OA
HETATM   22  C8  UNL     1      33.102  49.830  19.433  1.00  0.00     0.289 C 
HETATM   23  O3  UNL     1      32.845  50.245  20.714  1.00  0.00    -0.349 OA
HETATM   24  C10 UNL     1      32.787  51.607  20.877  1.00  0.00     0.181 C 
HETATM   25  C12 UNL     1      34.094  52.190  20.339  1.00  0.00     0.206 C 
BRANCH  22  26
HETATM   26  C9  UNL     1      34.230  48.786  19.375  1.00  0.00     0.290 C 
BRANCH  26  27
HETATM   27  N5  UNL     1      34.554  48.482  17.991  1.00  0.00    -0.075 N 
ATOM     28  H53 UNL     1      35.141  47.652  17.910  1.00  0.00     0.274 HD
ATOM     29  H52 UNL     1      33.743  48.143  17.474  1.00  0.00     0.274 HD
ATOM     30  H51 UNL     1      34.979  49.295  17.547  1.00  0.00     0.274 HD
ENDBRANCH  26  27
ENDBRANCH  22  26
BRANCH  24  31
HETATM   31  C11 UNL     1      32.575  51.987  22.294  1.00  0.00     0.199 C 
BRANCH  31  32
HETATM   32  O4  UNL     1      32.990  53.315  22.487  1.00  0.00    -0.398 OA
ATOM     33  H4  UNL     1      32.409  53.740  23.107  1.00  0.00     0.209 HD
ENDBRANCH  31  32
ENDBRANCH  24  31
BRANCH  25  34
HETATM   34  O5  UNL     1      35.168  51.678  21.058  1.00  0.00    -0.388 OA
ATOM     35  H5  UNL     1      35.927  52.247  21.109  1.00  0.00     0.210 HD
ENDBRANCH  25  34
ENDBRANCH  19  20
ENDBRANCH   1  19
TORSDOF 14
ENDMDL
MODEL 5
REMARK VINA RESULT: -6.367212823      2.882      6.227
REMARK  14 active torsions:
REMARK  status: ('A' for Active; 'I' for Inactive)
REMARK    1  A    between atoms: N1_1  and  C1_5 
REMARK    2  A    between atoms: C1_5  and  C2_6 
REMARK    3  A    between atoms: C2_6  and  N2_7 
REMARK    4  A    between atoms: N2_7  and  C3_9 
REMARK    5  A    between atoms: C4_10  and  C5_11 
REMARK    6  A    between atoms: C5_11  and  N3_12 
REMARK    7  A    between atoms: C6_16  and  N4_17 
REMARK    8  A    between atoms: N4_17  and  O1_19 
REMARK    9  A    between atoms: O1_19  and  C7_20 
REMARK   10  A    between atoms: C8_22  and  C9_23 
REMARK   11  A    between atoms: C9_23  and  N5_24 
REMARK   12  A    between atoms: C10_29  and  C11_30 
REMARK   13  A    between atoms: C11_30  and  O4_31 
REMARK   14  A    between atoms: C12_33  and  O5_34 
ROOT
HETATM    1  N4  UNL     1      34.413  53.635  18.447  1.00  0.00    -0.292 N 
ATOM      2  H4  UNL     1      34.848  54.168  19.201  1.00  0.00     0.188 HD
ENDROOT
BRANCH   1   3
HETATM    3  C6  UNL     1      34.641  54.022  17.104  1.00  0.00     0.136 A 
HETATM    4  C3  UNL     1      34.938  53.030  16.067  1.00  0.00     0.109 A 
HETATM    5  C4  UNL     1      36.086  53.742  16.602  1.00  0.00     0.062 A 
BRANCH   4   6
HETATM    6  N2  UNL     1      34.443  52.995  14.747  1.00  0.00    -0.413 N 
ATOM      7  H2  UNL     1      34.754  52.296  14.073  1.00  0.00     0.153 HD
BRANCH   6   8
HETATM    8  C2  UNL     1      33.482  53.991  14.409  1.00  0.00     0.141 C 
BRANCH   8   9
HETATM    9  C1  UNL     1      32.866  53.612  13.068  1.00  0.00     0.248 C 
BRANCH   9  10
HETATM   10  N1  UNL     1      33.036  52.192  12.866  1.00  0.00    -0.078 N 
ATOM     11  H13 UNL     1      33.707  51.784  13.515  1.00  0.00     0.274 HD
ATOM     12  H12 UNL     1      32.217  51.656  13.153  1.00  0.00     0.274 HD
ATOM     13  H11 UNL     1      33.287  52.029  11.890  1.00  0.00     0.274 HD
ENDBRANCH   9  10
ENDBRANCH   8   9
ENDBRANCH   6   8
ENDBRANCH   4   6
BRANCH   5  14
HETATM   14  C5  UNL     1      36.718  54.978  16.067  1.00  0.00     0.238 C 
BRANCH  14  15
HETATM   15  N3  UNL     1      37.571  55.694  16.984  1.00  0.00    -0.079 N 
ATOM     16  H33 UNL     1      37.052  55.931  17.829  1.00  0.00     0.274 HD
ATOM     17  H32 UNL     1      38.272  55.063  17.372  1.00  0.00     0.274 HD
ATOM     18  H31 UNL     1      38.024  56.527  16.609  1.00  0.00     0.274 HD
ENDBRANCH  14  15
ENDBRANCH   5  14
ENDBRANCH   1   3
BRANCH   1  19
HETATM   19  O1  UNL     1      33.658  52.615  18.740  1.00  0.00    -0.249 OA
BRANCH  19  20
HETATM   20  C7  UNL     1      33.887  52.094  20.012  1.00  0.00     0.322 C 
HETATM   21  O2  UNL     1      32.988  51.073  20.326  1.00  0.00    -0.325 OA
HETATM   22  C8  UNL     1      33.440  49.802  20.215  1.00  0.00     0.289 C 
HETATM   23  O3  UNL     1      34.683  49.558  20.737  1.00  0.00    -0.349 OA
HETATM   24  C10 UNL     1      35.285  50.645  21.321  1.00  0.00     0.181 C 
HETATM   25  C12 UNL     1      35.311  51.768  20.283  1.00  0.00     0.206 C 
BRANCH  22  26
HETATM   26  C9  UNL     1      33.300  49.275  18.776  1.00  0.00     0.290 C 
BRANCH  26  27
HETATM   27  N5  UNL     1      34.575  48.757  18.310  1.00  0.00    -0.075 N 
ATOM     28  H53 UNL     1      34.461  47.927  17.728  1.00  0.00     0.274 HD
ATOM     29  H52 UNL     1      35.006  49.368  17.617  1.00  0.00     0.274 HD
ATOM     30  H51 UNL     1      35.192  48.585  19.104  1.00  0.00     0.274 HD
ENDBRANCH  26  27
ENDBRANCH  22  26
BRANCH  24  31
HETATM   31  C11 UNL     1      36.651  50.330  21.803  1.00  0.00     0.199 C 
BRANCH  31  32
HETATM   32  O4  UNL     1      36.773  50.722  23.146  1.00  0.00    -0.398 OA
ATOM     33  H4  UNL     1      36.478  51.620  23.240  1.00  0.00     0.209 HD
ENDBRANCH  31  32
ENDBRANCH  24  31
BRANCH  25  34
HETATM   34  O5  UNL     1      36.046  51.365  19.175  1.00  0.00    -0.388 OA
ATOM     35  H5  UNL     1      35.789  50.530  18.802  1.00  0.00     0.210 HD
ENDBRANCH  25  34
ENDBRANCH  19  20
ENDBRANCH   1  19
TORSDOF 14
ENDMDL
