MODEL 1
REMARK VINA RESULT: -7.237793566      0.000      0.000
REMARK  10 active torsions:
REMARK  status: ('A' for Active; 'I' for Inactive)
REMARK    1  A    between atoms: C2_2  and  C3_3 
REMARK    2  A    between atoms: C3_3  and  N1_4 
REMARK    3  A    between atoms: N1_4  and  C4_7 
REMARK    4  A    between atoms: C4_7  and  C5_8 
REMARK    5  A    between atoms: C5_8  and  N2_9 
REMARK    6  A    between atoms: N2_9  and  C6_11 
REMARK    7  A    between atoms: C9_14  and  N3_15 
REMARK    8  A    between atoms: C10_18  and  C11_19 
REMARK    9  A    between atoms: N4_20  and  N5_22 
REMARK   10  A    between atoms: N5_22  and  N6_24 
ROOT
HETATM    1  C6  UNL     1       7.272  24.757  30.414  1.00  0.00     0.029 A 
HETATM    2  C7  UNL     1       6.908  25.629  29.426  1.00  0.00     0.031 A 
HETATM    3  C8  UNL     1       7.818  26.191  28.567  1.00  0.00     0.039 A 
HETATM    4  C9  UNL     1       9.195  25.901  28.658  1.00  0.00     0.114 A 
HETATM    5  C10 UNL     1       9.559  25.027  29.653  1.00  0.00     0.016 A 
HETATM    6  C12 UNL     1       8.609  24.461  30.518  1.00  0.00     0.044 A 
ENDROOT
BRANCH   1   7
HETATM    7  N2  UNL     1       6.341  24.158  31.346  1.00  0.00    -0.388 N 
ATOM      8  H2  UNL     1       5.942  23.242  31.136  1.00  0.00     0.159 HD
BRANCH   7   9
HETATM    9  C5  UNL     1       5.971  24.818  32.546  1.00  0.00     0.147 C 
BRANCH   9  10
HETATM   10  C4  UNL     1       4.647  25.538  32.518  1.00  0.00     0.252 C 
BRANCH  10  11
HETATM   11  N1  UNL     1       4.380  25.967  33.894  1.00  0.00    -0.071 N 
ATOM     12  H12 UNL     1       5.101  26.574  34.283  1.00  0.00     0.277 HD
ATOM     13  H11 UNL     1       4.470  25.220  34.584  1.00  0.00     0.277 HD
BRANCH  11  14
HETATM   14  C3  UNL     1       3.056  26.575  33.854  1.00  0.00     0.259 C 
BRANCH  14  15
HETATM   15  C2  UNL     1       3.057  27.602  32.793  1.00  0.00    -0.010 C 
HETATM   16  C1  UNL     1       2.740  28.855  33.089  1.00  0.00     0.008 C 
ENDBRANCH  14  15
ENDBRANCH  11  14
ENDBRANCH  10  11
ENDBRANCH   9  10
ENDBRANCH   7   9
ENDBRANCH   1   7
BRANCH   5  17
HETATM   17  C11 UNL     1      10.959  24.693  29.854  1.00  0.00     0.122 C 
HETATM   18  N4  UNL     1      11.906  25.508  29.486  1.00  0.00    -0.297 N 
ATOM     19  H4  UNL     1      11.644  26.392  29.050  1.00  0.00     0.187 HD
BRANCH  18  20
HETATM   20  N5  UNL     1      13.243  25.234  29.657  1.00  0.00    -0.250 N 
ATOM     21  H5  UNL     1      13.592  25.179  30.613  1.00  0.00     0.207 HD
BRANCH  20  22
HETATM   22  N6  UNL     1      14.154  25.026  28.629  1.00  0.00    -0.331 N 
ATOM     23  H62 UNL     1      14.453  25.855  28.115  1.00  0.00     0.178 HD
ATOM     24  H61 UNL     1      14.538  24.120  28.359  1.00  0.00     0.178 HD
ENDBRANCH  20  22
ENDBRANCH  18  20
ENDBRANCH   5  17
BRANCH   4  25
HETATM   25  N3  UNL     1      10.064  26.533  27.745  1.00  0.00    -0.115 N 
HETATM   26  O1  UNL     1      10.301  27.747  27.885  1.00  0.00    -0.532 OA
HETATM   27  O2  UNL     1      10.647  25.890  26.711  1.00  0.00    -0.532 OA
ENDBRANCH   4  25
TORSDOF 10
ENDMDL
MODEL 2
REMARK VINA RESULT: -7.159622922      0.985      1.121
REMARK  10 active torsions:
REMARK  status: ('A' for Active; 'I' for Inactive)
REMARK    1  A    between atoms: C2_2  and  C3_3 
REMARK    2  A    between atoms: C3_3  and  N1_4 
REMARK    3  A    between atoms: N1_4  and  C4_7 
REMARK    4  A    between atoms: C4_7  and  C5_8 
REMARK    5  A    between atoms: C5_8  and  N2_9 
REMARK    6  A    between atoms: N2_9  and  C6_11 
REMARK    7  A    between atoms: C9_14  and  N3_15 
REMARK    8  A    between atoms: C10_18  and  C11_19 
REMARK    9  A    between atoms: N4_20  and  N5_22 
REMARK   10  A    between atoms: N5_22  and  N6_24 
ROOT
HETATM    1  C6  UNL     1       6.282  24.825  30.921  1.00  0.00     0.029 A 
HETATM    2  C7  UNL     1       5.887  25.543  29.826  1.00  0.00     0.031 A 
HETATM    3  C8  UNL     1       6.759  25.917  28.836  1.00  0.00     0.039 A 
HETATM    4  C9  UNL     1       8.127  25.581  28.892  1.00  0.00     0.114 A 
HETATM    5  C10 UNL     1       8.524  24.863  29.993  1.00  0.00     0.016 A 
HETATM    6  C12 UNL     1       7.612  24.488  30.993  1.00  0.00     0.044 A 
ENDROOT
BRANCH   1   7
HETATM    7  N2  UNL     1       5.393  24.428  31.991  1.00  0.00    -0.388 N 
ATOM      8  H2  UNL     1       4.914  23.528  31.935  1.00  0.00     0.159 HD
BRANCH   7   9
HETATM    9  C5  UNL     1       5.173  25.264  33.116  1.00  0.00     0.147 C 
BRANCH   9  10
HETATM   10  C4  UNL     1       3.807  25.892  33.211  1.00  0.00     0.252 C 
BRANCH  10  11
HETATM   11  N1  UNL     1       3.764  26.599  34.494  1.00  0.00    -0.071 N 
ATOM     12  H12 UNL     1       4.650  27.032  34.755  1.00  0.00     0.277 HD
ATOM     13  H11 UNL     1       3.691  25.982  35.303  1.00  0.00     0.277 HD
BRANCH  11  14
HETATM   14  C3  UNL     1       2.660  27.543  34.372  1.00  0.00     0.259 C 
BRANCH  14  15
HETATM   15  C2  UNL     1       2.717  28.141  33.023  1.00  0.00    -0.010 C 
HETATM   16  C1  UNL     1       1.868  29.105  32.694  1.00  0.00     0.008 C 
ENDBRANCH  14  15
ENDBRANCH  11  14
ENDBRANCH  10  11
ENDBRANCH   9  10
ENDBRANCH   7   9
ENDBRANCH   1   7
BRANCH   5  17
HETATM   17  C11 UNL     1       9.920  24.500  30.164  1.00  0.00     0.122 C 
HETATM   18  N4  UNL     1      10.873  25.224  29.648  1.00  0.00    -0.297 N 
ATOM     19  H4  UNL     1      10.616  26.057  29.117  1.00  0.00     0.187 HD
BRANCH  18  20
HETATM   20  N5  UNL     1      12.207  24.920  29.784  1.00  0.00    -0.250 N 
ATOM     21  H5  UNL     1      12.449  24.127  30.378  1.00  0.00     0.207 HD
BRANCH  20  22
HETATM   22  N6  UNL     1      13.250  25.608  29.177  1.00  0.00    -0.331 N 
ATOM     23  H62 UNL     1      13.017  26.513  28.768  1.00  0.00     0.178 HD
ATOM     24  H61 UNL     1      14.213  25.277  29.113  1.00  0.00     0.178 HD
ENDBRANCH  20  22
ENDBRANCH  18  20
ENDBRANCH   5  17
BRANCH   4  25
HETATM   25  N3  UNL     1       8.958  26.018  27.838  1.00  0.00    -0.115 N 
HETATM   26  O1  UNL     1       9.318  27.208  27.813  1.00  0.00    -0.532 OA
HETATM   27  O2  UNL     1       9.375  25.209  26.841  1.00  0.00    -0.532 OA
ENDBRANCH   4  25
TORSDOF 10
ENDMDL
MODEL 3
REMARK VINA RESULT: -6.911138075      3.008      7.768
REMARK  10 active torsions:
REMARK  status: ('A' for Active; 'I' for Inactive)
REMARK    1  A    between atoms: C2_2  and  C3_3 
REMARK    2  A    between atoms: C3_3  and  N1_4 
REMARK    3  A    between atoms: N1_4  and  C4_7 
REMARK    4  A    between atoms: C4_7  and  C5_8 
REMARK    5  A    between atoms: C5_8  and  N2_9 
REMARK    6  A    between atoms: N2_9  and  C6_11 
REMARK    7  A    between atoms: C9_14  and  N3_15 
REMARK    8  A    between atoms: C10_18  and  C11_19 
REMARK    9  A    between atoms: N4_20  and  N5_22 
REMARK   10  A    between atoms: N5_22  and  N6_24 
ROOT
HETATM    1  C6  UNL     1       8.895  26.610  29.335  1.00  0.00     0.029 A 
HETATM    2  C7  UNL     1       8.326  26.113  28.195  1.00  0.00     0.031 A 
HETATM    3  C8  UNL     1       7.194  25.338  28.212  1.00  0.00     0.039 A 
HETATM    4  C9  UNL     1       6.548  25.005  29.420  1.00  0.00     0.114 A 
HETATM    5  C10 UNL     1       7.121  25.502  30.565  1.00  0.00     0.016 A 
HETATM    6  C12 UNL     1       8.278  26.295  30.521  1.00  0.00     0.044 A 
ENDROOT
BRANCH   1   7
HETATM    7  N2  UNL     1      10.096  27.416  29.353  1.00  0.00    -0.388 N 
ATOM      8  H2  UNL     1      10.049  28.375  29.699  1.00  0.00     0.159 HD
BRANCH   7   9
HETATM    9  C5  UNL     1      11.338  26.900  28.900  1.00  0.00     0.147 C 
BRANCH   9  10
HETATM   10  C4  UNL     1      11.713  25.538  29.425  1.00  0.00     0.252 C 
BRANCH  10  11
HETATM   11  N1  UNL     1      13.155  25.392  29.204  1.00  0.00    -0.071 N 
ATOM     12  H12 UNL     1      13.613  24.773  29.872  1.00  0.00     0.277 HD
ATOM     13  H11 UNL     1      13.693  26.229  29.431  1.00  0.00     0.277 HD
BRANCH  11  14
HETATM   14  C3  UNL     1      13.287  24.965  27.817  1.00  0.00     0.259 C 
BRANCH  14  15
HETATM   15  C2  UNL     1      14.724  24.958  27.476  1.00  0.00    -0.010 C 
HETATM   16  C1  UNL     1      15.391  23.812  27.459  1.00  0.00     0.008 C 
ENDBRANCH  14  15
ENDBRANCH  11  14
ENDBRANCH  10  11
ENDBRANCH   9  10
ENDBRANCH   7   9
ENDBRANCH   1   7
BRANCH   5  17
HETATM   17  C11 UNL     1       6.552  25.184  31.863  1.00  0.00     0.122 C 
HETATM   18  N4  UNL     1       5.659  25.955  32.415  1.00  0.00    -0.297 N 
ATOM     19  H4  UNL     1       5.364  26.793  31.914  1.00  0.00     0.187 HD
BRANCH  18  20
HETATM   20  N5  UNL     1       5.093  25.693  33.641  1.00  0.00    -0.250 N 
ATOM     21  H5  UNL     1       5.540  24.984  34.222  1.00  0.00     0.207 HD
BRANCH  20  22
HETATM   22  N6  UNL     1       3.961  26.317  34.149  1.00  0.00    -0.331 N 
ATOM     23  H62 UNL     1       3.072  25.842  33.989  1.00  0.00     0.178 HD
ATOM     24  H61 UNL     1       3.957  27.200  34.661  1.00  0.00     0.178 HD
ENDBRANCH  20  22
ENDBRANCH  18  20
ENDBRANCH   5  17
BRANCH   4  25
HETATM   25  N3  UNL     1       5.397  24.192  29.349  1.00  0.00    -0.115 N 
HETATM   26  O1  UNL     1       4.396  24.513  30.015  1.00  0.00    -0.532 OA
HETATM   27  O2  UNL     1       5.327  23.070  28.602  1.00  0.00    -0.532 OA
ENDBRANCH   4  25
TORSDOF 10
ENDMDL
MODEL 4
REMARK VINA RESULT: -6.899034294      2.297      3.352
REMARK  10 active torsions:
REMARK  status: ('A' for Active; 'I' for Inactive)
REMARK    1  A    between atoms: C2_2  and  C3_3 
REMARK    2  A    between atoms: C3_3  and  N1_4 
REMARK    3  A    between atoms: N1_4  and  C4_7 
REMARK    4  A    between atoms: C4_7  and  C5_8 
REMARK    5  A    between atoms: C5_8  and  N2_9 
REMARK    6  A    between atoms: N2_9  and  C6_11 
REMARK    7  A    between atoms: C9_14  and  N3_15 
REMARK    8  A    between atoms: C10_18  and  C11_19 
REMARK    9  A    between atoms: N4_20  and  N5_22 
REMARK   10  A    between atoms: N5_22  and  N6_24 
ROOT
HETATM    1  C6  UNL     1       8.862  25.866  28.941  1.00  0.00     0.029 A 
HETATM    2  C7  UNL     1       9.415  24.892  29.725  1.00  0.00     0.031 A 
HETATM    3  C8  UNL     1      10.765  24.648  29.757  1.00  0.00     0.039 A 
HETATM    4  C9  UNL     1      11.667  25.395  28.973  1.00  0.00     0.114 A 
HETATM    5  C10 UNL     1      11.111  26.371  28.184  1.00  0.00     0.016 A 
HETATM    6  C12 UNL     1       9.727  26.604  28.170  1.00  0.00     0.044 A 
ENDROOT
BRANCH   1   7
HETATM    7  N2  UNL     1       7.443  26.139  28.872  1.00  0.00    -0.388 N 
ATOM      8  H2  UNL     1       7.125  27.054  28.552  1.00  0.00     0.159 HD
BRANCH   7   9
HETATM    9  C5  UNL     1       6.485  25.159  29.240  1.00  0.00     0.147 C 
BRANCH   9  10
HETATM   10  C4  UNL     1       5.704  25.445  30.497  1.00  0.00     0.252 C 
BRANCH  10  11
HETATM   11  N1  UNL     1       6.208  24.521  31.517  1.00  0.00    -0.071 N 
ATOM     12  H12 UNL     1       7.223  24.425  31.520  1.00  0.00     0.277 HD
ATOM     13  H11 UNL     1       5.998  23.541  31.325  1.00  0.00     0.277 HD
BRANCH  11  14
HETATM   14  C3  UNL     1       5.659  25.006  32.776  1.00  0.00     0.259 C 
BRANCH  14  15
HETATM   15  C2  UNL     1       4.437  25.780  32.474  1.00  0.00    -0.010 C 
HETATM   16  C1  UNL     1       3.442  25.809  33.350  1.00  0.00     0.008 C 
ENDBRANCH  14  15
ENDBRANCH  11  14
ENDBRANCH  10  11
ENDBRANCH   9  10
ENDBRANCH   7   9
ENDBRANCH   1   7
BRANCH   5  17
HETATM   17  C11 UNL     1      11.953  27.171  27.310  1.00  0.00     0.122 C 
HETATM   18  N4  UNL     1      12.615  26.627  26.329  1.00  0.00    -0.297 N 
ATOM     19  H4  UNL     1      12.531  25.620  26.185  1.00  0.00     0.187 HD
BRANCH  18  20
HETATM   20  N5  UNL     1      13.422  27.343  25.477  1.00  0.00    -0.250 N 
ATOM     21  H5  UNL     1      12.966  27.981  24.825  1.00  0.00     0.207 HD
BRANCH  20  22
HETATM   22  N6  UNL     1      14.808  27.266  25.435  1.00  0.00    -0.331 N 
ATOM     23  H62 UNL     1      15.218  26.359  25.659  1.00  0.00     0.178 HD
ATOM     24  H61 UNL     1      15.432  28.038  25.199  1.00  0.00     0.178 HD
ENDBRANCH  20  22
ENDBRANCH  18  20
ENDBRANCH   5  17
BRANCH   4  25
HETATM   25  N3  UNL     1      13.038  25.070  29.055  1.00  0.00    -0.115 N 
HETATM   26  O1  UNL     1      13.661  25.361  30.092  1.00  0.00    -0.532 OA
HETATM   27  O2  UNL     1      13.717  24.467  28.056  1.00  0.00    -0.532 OA
ENDBRANCH   4  25
TORSDOF 10
ENDMDL
MODEL 5
REMARK VINA RESULT: -6.881312165      3.597      5.493
REMARK  10 active torsions:
REMARK  status: ('A' for Active; 'I' for Inactive)
REMARK    1  A    between atoms: C2_2  and  C3_3 
REMARK    2  A    between atoms: C3_3  and  N1_4 
REMARK    3  A    between atoms: N1_4  and  C4_7 
REMARK    4  A    between atoms: C4_7  and  C5_8 
REMARK    5  A    between atoms: C5_8  and  N2_9 
REMARK    6  A    between atoms: N2_9  and  C6_11 
REMARK    7  A    between atoms: C9_14  and  N3_15 
REMARK    8  A    between atoms: C10_18  and  C11_19 
REMARK    9  A    between atoms: N4_20  and  N5_22 
REMARK   10  A    between atoms: N5_22  and  N6_24 
ROOT
HETATM    1  C6  UNL     1      11.847  25.266  27.561  1.00  0.00     0.029 A 
HETATM    2  C7  UNL     1      11.908  26.213  26.577  1.00  0.00     0.031 A 
HETATM    3  C8  UNL     1      13.075  26.529  25.930  1.00  0.00     0.039 A 
HETATM    4  C9  UNL     1      14.291  25.891  26.248  1.00  0.00     0.114 A 
HETATM    5  C10 UNL     1      14.229  24.942  27.239  1.00  0.00     0.016 A 
HETATM    6  C12 UNL     1      13.022  24.632  27.885  1.00  0.00     0.044 A 
ENDROOT
BRANCH   1   7
HETATM    7  N2  UNL     1      10.636  24.918  28.275  1.00  0.00    -0.388 N 
ATOM      8  H2  UNL     1       9.981  24.258  27.855  1.00  0.00     0.159 HD
BRANCH   7   9
HETATM    9  C5  UNL     1      10.344  25.477  29.546  1.00  0.00     0.147 C 
BRANCH   9  10
HETATM   10  C4  UNL     1       9.440  26.683  29.540  1.00  0.00     0.252 C 
BRANCH  10  11
HETATM   11  N1  UNL     1       8.129  26.220  30.003  1.00  0.00    -0.071 N 
ATOM     12  H12 UNL     1       7.688  26.840  30.682  1.00  0.00     0.277 HD
ATOM     13  H11 UNL     1       8.171  25.397  30.605  1.00  0.00     0.277 HD
BRANCH  11  14
HETATM   14  C3  UNL     1       7.344  26.022  28.790  1.00  0.00     0.259 C 
BRANCH  14  15
HETATM   15  C2  UNL     1       6.001  25.552  29.187  1.00  0.00    -0.010 C 
HETATM   16  C1  UNL     1       5.703  25.418  30.472  1.00  0.00     0.008 C 
ENDBRANCH  14  15
ENDBRANCH  11  14
ENDBRANCH  10  11
ENDBRANCH   9  10
ENDBRANCH   7   9
ENDBRANCH   1   7
BRANCH   5  17
HETATM   17  C11 UNL     1      15.435  24.254  27.666  1.00  0.00     0.122 C 
HETATM   18  N4  UNL     1      15.784  23.114  27.139  1.00  0.00    -0.297 N 
ATOM     19  H4  UNL     1      15.188  22.711  26.416  1.00  0.00     0.187 HD
BRANCH  18  20
HETATM   20  N5  UNL     1      16.916  22.428  27.512  1.00  0.00    -0.250 N 
ATOM     21  H5  UNL     1      17.803  22.735  27.113  1.00  0.00     0.207 HD
BRANCH  20  22
HETATM   22  N6  UNL     1      16.946  21.350  28.388  1.00  0.00    -0.331 N 
ATOM     23  H62 UNL     1      16.096  20.789  28.443  1.00  0.00     0.178 HD
ATOM     24  H61 UNL     1      17.743  21.086  28.967  1.00  0.00     0.178 HD
ENDBRANCH  20  22
ENDBRANCH  18  20
ENDBRANCH   5  17
BRANCH   4  25
HETATM   25  N3  UNL     1      15.448  26.286  25.544  1.00  0.00    -0.115 N 
HETATM   26  O1  UNL     1      15.659  27.501  25.373  1.00  0.00    -0.532 OA
HETATM   27  O2  UNL     1      16.337  25.411  25.030  1.00  0.00    -0.532 OA
ENDBRANCH   4  25
TORSDOF 10
ENDMDL
