MODEL 1
REMARK VINA RESULT: -8.410694489      0.000      0.000
REMARK  11 active torsions:
REMARK  status: ('A' for Active; 'I' for Inactive)
REMARK    1  A    between atoms: O1_2  and  C2_3 
REMARK    2  A    between atoms: C2_3  and  C3_5 
REMARK    3  A    between atoms: C3_5  and  C4_6 
REMARK    4  A    between atoms: C3_5  and  C17_23 
REMARK    5  A    between atoms: C5_7  and  C6_8 
REMARK    6  A    between atoms: C6_8  and  O3_9 
REMARK    7  A    between atoms: C7_11  and  O4_12 
REMARK    8  A    between atoms: C17_23  and  C18_25 
REMARK    9  A    between atoms: C18_25  and  C19_26 
REMARK   10  A    between atoms: C18_25  and  C20_29 
REMARK   11  A    between atoms: C20_29  and  O8_30 
ROOT
HETATM    1  C3  UNL     1      23.412  31.080  20.382  1.00  0.00     0.183 C 
ENDROOT
BRANCH   1   2
HETATM    2  C2  UNL     1      22.653  32.243  19.869  1.00  0.00     0.273 C 
HETATM    3  O2  UNL     1      23.128  33.366  19.682  1.00  0.00    -0.264 OA
BRANCH   2   4
HETATM    4  O1  UNL     1      21.286  32.037  19.580  1.00  0.00    -0.326 OA
HETATM    5  C1  UNL     1      20.289  32.893  20.108  1.00  0.00     0.213 C 
ENDBRANCH   2   4
ENDBRANCH   1   2
BRANCH   1   6
HETATM    6  C4  UNL     1      23.500  29.973  19.435  1.00  0.00    -0.005 C 
HETATM    7  C5  UNL     1      24.622  29.616  18.861  1.00  0.00     0.011 C 
BRANCH   7   8
HETATM    8  C6  UNL     1      24.810  28.522  17.903  1.00  0.00     0.109 C 
HETATM    9  C7  UNL     1      25.043  28.945  16.492  1.00  0.00     0.161 C 
HETATM   10  C8  UNL     1      26.509  28.776  16.218  1.00  0.00     0.069 C 
HETATM   11  C9  UNL     1      26.969  27.785  17.179  1.00  0.00    -0.073 C 
HETATM   12  C10 UNL     1      28.078  27.050  17.361  1.00  0.00    -0.015 C 
HETATM   13  C16 UNL     1      25.908  27.567  18.195  1.00  0.00     0.055 C 
HETATM   14  C11 UNL     1      28.208  26.100  18.497  1.00  0.00    -0.030 C 
HETATM   15  C12 UNL     1      29.690  25.957  18.782  1.00  0.00     0.019 C 
HETATM   16  C13 UNL     1      27.708  24.744  18.048  1.00  0.00     0.019 C 
HETATM   17  C14 UNL     1      27.478  26.534  19.740  1.00  0.00     0.013 C 
HETATM   18  C15 UNL     1      26.583  27.731  19.529  1.00  0.00     0.013 C 
BRANCH   8  19
HETATM   19  O3  UNL     1      23.616  27.754  17.883  1.00  0.00    -0.382 OA
ATOM     20  H3  UNL     1      23.133  27.990  17.099  1.00  0.00     0.211 HD
ENDBRANCH   8  19
BRANCH   9  21
HETATM   21  O4  UNL     1      24.354  28.088  15.601  1.00  0.00    -0.392 OA
ATOM     22  H4  UNL     1      23.652  28.559  15.167  1.00  0.00     0.210 HD
ENDBRANCH   9  21
ENDBRANCH   7   8
ENDBRANCH   1   6
BRANCH   1  23
HETATM   23  C17 UNL     1      22.868  30.722  21.722  1.00  0.00     0.186 C 
HETATM   24  O5  UNL     1      22.723  31.682  22.453  1.00  0.00    -0.291 OA
BRANCH  23  25
HETATM   25  C18 UNL     1      22.552  29.307  22.077  1.00  0.00     0.120 C 
BRANCH  25  26
HETATM   26  C19 UNL     1      21.096  29.037  21.958  1.00  0.00     0.216 C 
HETATM   27  O6  UNL     1      20.391  29.270  20.951  1.00  0.00    -0.644 OA
HETATM   28  O7  UNL     1      20.413  28.482  23.019  1.00  0.00    -0.644 OA
ENDBRANCH  25  26
BRANCH  25  29
HETATM   29  C20 UNL     1      23.296  28.696  23.159  1.00  0.00     0.088 C 
HETATM   30  C21 UNL     1      23.742  27.366  23.349  1.00  0.00    -0.046 C 
HETATM   31  C22 UNL     1      24.719  26.751  22.329  1.00  0.00     0.037 C 
HETATM   32  C25 UNL     1      22.876  26.214  23.732  1.00  0.00     0.037 C 
HETATM   33  C23 UNL     1      25.110  25.460  23.032  1.00  0.00     0.005 C 
HETATM   34  C24 UNL     1      23.899  25.061  23.789  1.00  0.00     0.005 C 
BRANCH  29  35
HETATM   35  O8  UNL     1      22.713  29.170  24.377  1.00  0.00    -0.359 OA
ATOM     36  H8  UNL     1      22.897  30.101  24.422  1.00  0.00     0.217 HD
ENDBRANCH  29  35
ENDBRANCH  25  29
ENDBRANCH  23  25
ENDBRANCH   1  23
TORSDOF 11
ENDMDL
MODEL 2
REMARK VINA RESULT: -8.086693134      3.341      8.208
REMARK  11 active torsions:
REMARK  status: ('A' for Active; 'I' for Inactive)
REMARK    1  A    between atoms: O1_2  and  C2_3 
REMARK    2  A    between atoms: C2_3  and  C3_5 
REMARK    3  A    between atoms: C3_5  and  C4_6 
REMARK    4  A    between atoms: C3_5  and  C17_23 
REMARK    5  A    between atoms: C5_7  and  C6_8 
REMARK    6  A    between atoms: C6_8  and  O3_9 
REMARK    7  A    between atoms: C7_11  and  O4_12 
REMARK    8  A    between atoms: C17_23  and  C18_25 
REMARK    9  A    between atoms: C18_25  and  C19_26 
REMARK   10  A    between atoms: C18_25  and  C20_29 
REMARK   11  A    between atoms: C20_29  and  O8_30 
ROOT
HETATM    1  C3  UNL     1      25.194  26.568  21.490  1.00  0.00     0.183 C 
ENDROOT
BRANCH   1   2
HETATM    2  C2  UNL     1      24.384  27.805  21.561  1.00  0.00     0.273 C 
HETATM    3  O2  UNL     1      24.136  28.424  22.599  1.00  0.00    -0.264 OA
BRANCH   2   4
HETATM    4  O1  UNL     1      23.864  28.300  20.345  1.00  0.00    -0.326 OA
HETATM    5  C1  UNL     1      24.113  29.631  19.931  1.00  0.00     0.213 C 
ENDBRANCH   2   4
ENDBRANCH   1   2
BRANCH   1   6
HETATM    6  C4  UNL     1      25.315  25.871  22.766  1.00  0.00    -0.005 C 
HETATM    7  C5  UNL     1      24.303  25.280  23.351  1.00  0.00     0.011 C 
BRANCH   7   8
HETATM    8  C6  UNL     1      24.327  24.556  24.626  1.00  0.00     0.109 C 
HETATM    9  C7  UNL     1      25.622  23.898  24.960  1.00  0.00     0.161 C 
HETATM   10  C8  UNL     1      26.295  24.749  25.998  1.00  0.00     0.069 C 
HETATM   11  C9  UNL     1      25.222  25.495  26.638  1.00  0.00    -0.073 C 
HETATM   12  C10 UNL     1      25.091  26.263  27.732  1.00  0.00    -0.015 C 
HETATM   13  C16 UNL     1      23.980  25.339  25.839  1.00  0.00     0.055 C 
HETATM   14  C11 UNL     1      23.794  26.893  28.094  1.00  0.00    -0.030 C 
HETATM   15  C12 UNL     1      24.119  28.125  28.914  1.00  0.00     0.019 C 
HETATM   16  C13 UNL     1      23.037  25.944  28.997  1.00  0.00     0.019 C 
HETATM   17  C14 UNL     1      22.947  27.265  26.908  1.00  0.00     0.013 C 
HETATM   18  C15 UNL     1      23.474  26.735  25.596  1.00  0.00     0.013 C 
BRANCH   8  19
HETATM   19  O3  UNL     1      23.371  23.509  24.549  1.00  0.00    -0.382 OA
ATOM     20  H3  UNL     1      23.835  22.708  24.334  1.00  0.00     0.211 HD
ENDBRANCH   8  19
BRANCH   9  21
HETATM   21  O4  UNL     1      25.393  22.631  25.549  1.00  0.00    -0.392 OA
ATOM     22  H4  UNL     1      25.063  22.020  24.900  1.00  0.00     0.210 HD
ENDBRANCH   9  21
ENDBRANCH   7   8
ENDBRANCH   1   6
BRANCH   1  23
HETATM   23  C17 UNL     1      26.488  26.895  20.825  1.00  0.00     0.186 C 
HETATM   24  O5  UNL     1      27.299  27.399  21.576  1.00  0.00    -0.291 OA
BRANCH  23  25
HETATM   25  C18 UNL     1      26.708  26.610  19.377  1.00  0.00     0.120 C 
BRANCH  25  26
HETATM   26  C19 UNL     1      27.351  25.286  19.182  1.00  0.00     0.216 C 
HETATM   27  O6  UNL     1      26.893  24.188  19.571  1.00  0.00    -0.644 OA
HETATM   28  O7  UNL     1      28.559  25.201  18.524  1.00  0.00    -0.644 OA
ENDBRANCH  25  26
BRANCH  25  29
HETATM   29  C20 UNL     1      27.091  27.712  18.519  1.00  0.00     0.088 C 
HETATM   30  C21 UNL     1      26.813  27.973  17.155  1.00  0.00    -0.046 C 
HETATM   31  C22 UNL     1      25.349  28.131  16.705  1.00  0.00     0.037 C 
HETATM   32  C25 UNL     1      27.454  27.280  16.000  1.00  0.00     0.037 C 
HETATM   33  C23 UNL     1      25.526  28.628  15.280  1.00  0.00     0.005 C 
HETATM   34  C24 UNL     1      26.769  27.973  14.803  1.00  0.00     0.005 C 
BRANCH  29  35
HETATM   35  O8  UNL     1      28.477  27.964  18.769  1.00  0.00    -0.359 OA
ATOM     36  H8  UNL     1      28.752  28.623  18.142  1.00  0.00     0.217 HD
ENDBRANCH  29  35
ENDBRANCH  25  29
ENDBRANCH  23  25
ENDBRANCH   1  23
TORSDOF 11
ENDMDL
MODEL 3
REMARK VINA RESULT: -8.065869177      2.723      7.419
REMARK  11 active torsions:
REMARK  status: ('A' for Active; 'I' for Inactive)
REMARK    1  A    between atoms: O1_2  and  C2_3 
REMARK    2  A    between atoms: C2_3  and  C3_5 
REMARK    3  A    between atoms: C3_5  and  C4_6 
REMARK    4  A    between atoms: C3_5  and  C17_23 
REMARK    5  A    between atoms: C5_7  and  C6_8 
REMARK    6  A    between atoms: C6_8  and  O3_9 
REMARK    7  A    between atoms: C7_11  and  O4_12 
REMARK    8  A    between atoms: C17_23  and  C18_25 
REMARK    9  A    between atoms: C18_25  and  C19_26 
REMARK   10  A    between atoms: C18_25  and  C20_29 
REMARK   11  A    between atoms: C20_29  and  O8_30 
ROOT
HETATM    1  C3  UNL     1      25.499  27.558  18.400  1.00  0.00     0.183 C 
ENDROOT
BRANCH   1   2
HETATM    2  C2  UNL     1      25.246  28.398  17.206  1.00  0.00     0.273 C 
HETATM    3  O2  UNL     1      24.873  29.573  17.240  1.00  0.00    -0.264 OA
BRANCH   2   4
HETATM    4  O1  UNL     1      25.449  27.794  15.946  1.00  0.00    -0.326 OA
HETATM    5  C1  UNL     1      26.241  28.420  14.954  1.00  0.00     0.213 C 
ENDBRANCH   2   4
ENDBRANCH   1   2
BRANCH   1   6
HETATM    6  C4  UNL     1      24.948  28.109  19.633  1.00  0.00    -0.005 C 
HETATM    7  C5  UNL     1      24.471  27.359  20.595  1.00  0.00     0.011 C 
BRANCH   7   8
HETATM    8  C6  UNL     1      23.900  27.817  21.865  1.00  0.00     0.109 C 
HETATM    9  C7  UNL     1      22.473  27.447  22.092  1.00  0.00     0.161 C 
HETATM   10  C8  UNL     1      22.463  26.307  23.068  1.00  0.00     0.069 C 
HETATM   11  C9  UNL     1      23.720  26.410  23.793  1.00  0.00    -0.073 C 
HETATM   12  C10 UNL     1      24.255  25.855  24.893  1.00  0.00    -0.015 C 
HETATM   13  C16 UNL     1      24.600  27.385  23.101  1.00  0.00     0.055 C 
HETATM   14  C11 UNL     1      25.621  26.208  25.360  1.00  0.00    -0.030 C 
HETATM   15  C12 UNL     1      26.136  25.020  26.148  1.00  0.00     0.019 C 
HETATM   16  C13 UNL     1      25.512  27.369  26.325  1.00  0.00     0.019 C 
HETATM   17  C14 UNL     1      26.576  26.549  24.248  1.00  0.00     0.013 C 
HETATM   18  C15 UNL     1      25.911  26.678  22.898  1.00  0.00     0.013 C 
BRANCH   8  19
HETATM   19  O3  UNL     1      23.934  29.236  21.870  1.00  0.00    -0.382 OA
ATOM     20  H3  UNL     1      23.044  29.549  21.985  1.00  0.00     0.211 HD
ENDBRANCH   8  19
BRANCH   9  21
HETATM   21  O4  UNL     1      21.776  28.519  22.700  1.00  0.00    -0.392 OA
ATOM     22  H4  UNL     1      21.061  28.805  22.144  1.00  0.00     0.210 HD
ENDBRANCH   9  21
ENDBRANCH   7   8
ENDBRANCH   1   6
BRANCH   1  23
HETATM   23  C17 UNL     1      26.955  27.242  18.447  1.00  0.00     0.186 C 
HETATM   24  O5  UNL     1      27.624  28.132  18.933  1.00  0.00    -0.291 OA
BRANCH  23  25
HETATM   25  C18 UNL     1      27.483  25.944  17.931  1.00  0.00     0.120 C 
BRANCH  25  26
HETATM   26  C19 UNL     1      27.058  24.812  18.794  1.00  0.00     0.216 C 
HETATM   27  O6  UNL     1      26.928  24.852  20.038  1.00  0.00    -0.644 OA
HETATM   28  O7  UNL     1      26.773  23.589  18.228  1.00  0.00    -0.644 OA
ENDBRANCH  25  26
BRANCH  25  29
HETATM   29  C20 UNL     1      28.812  25.932  17.356  1.00  0.00     0.088 C 
HETATM   30  C21 UNL     1      29.396  25.095  16.374  1.00  0.00    -0.046 C 
HETATM   31  C22 UNL     1      28.783  25.059  14.961  1.00  0.00     0.037 C 
HETATM   32  C25 UNL     1      29.834  23.687  16.594  1.00  0.00     0.037 C 
HETATM   33  C23 UNL     1      29.831  24.262  14.202  1.00  0.00     0.005 C 
HETATM   34  C24 UNL     1      30.377  23.309  15.200  1.00  0.00     0.005 C 
BRANCH  29  35
HETATM   35  O8  UNL     1      29.731  26.086  18.443  1.00  0.00    -0.359 OA
ATOM     36  H8  UNL     1      30.603  25.994  18.077  1.00  0.00     0.217 HD
ENDBRANCH  29  35
ENDBRANCH  25  29
ENDBRANCH  23  25
ENDBRANCH   1  23
TORSDOF 11
ENDMDL
MODEL 4
REMARK VINA RESULT: -7.942181169      1.639      2.432
REMARK  11 active torsions:
REMARK  status: ('A' for Active; 'I' for Inactive)
REMARK    1  A    between atoms: O1_2  and  C2_3 
REMARK    2  A    between atoms: C2_3  and  C3_5 
REMARK    3  A    between atoms: C3_5  and  C4_6 
REMARK    4  A    between atoms: C3_5  and  C17_23 
REMARK    5  A    between atoms: C5_7  and  C6_8 
REMARK    6  A    between atoms: C6_8  and  O3_9 
REMARK    7  A    between atoms: C7_11  and  O4_12 
REMARK    8  A    between atoms: C17_23  and  C18_25 
REMARK    9  A    between atoms: C18_25  and  C19_26 
REMARK   10  A    between atoms: C18_25  and  C20_29 
REMARK   11  A    between atoms: C20_29  and  O8_30 
ROOT
HETATM    1  C3  UNL     1      23.756  29.271  21.333  1.00  0.00     0.183 C 
ENDROOT
BRANCH   1   2
HETATM    2  C2  UNL     1      22.477  30.001  21.483  1.00  0.00     0.273 C 
HETATM    3  O2  UNL     1      22.371  31.229  21.543  1.00  0.00    -0.264 OA
BRANCH   2   4
HETATM    4  O1  UNL     1      21.302  29.222  21.564  1.00  0.00    -0.326 OA
HETATM    5  C1  UNL     1      20.057  29.727  21.115  1.00  0.00     0.213 C 
ENDBRANCH   2   4
ENDBRANCH   1   2
BRANCH   1   6
HETATM    6  C4  UNL     1      23.875  28.547  20.072  1.00  0.00    -0.005 C 
HETATM    7  C5  UNL     1      24.829  28.780  19.206  1.00  0.00     0.011 C 
BRANCH   7   8
HETATM    8  C6  UNL     1      25.031  28.108  17.919  1.00  0.00     0.109 C 
HETATM    9  C7  UNL     1      25.308  29.012  16.765  1.00  0.00     0.161 C 
HETATM   10  C8  UNL     1      26.779  28.925  16.480  1.00  0.00     0.069 C 
HETATM   11  C9  UNL     1      27.201  27.643  17.022  1.00  0.00    -0.073 C 
HETATM   12  C10 UNL     1      28.298  26.870  16.947  1.00  0.00    -0.015 C 
HETATM   13  C16 UNL     1      26.111  27.090  17.865  1.00  0.00     0.055 C 
HETATM   14  C11 UNL     1      28.386  25.569  17.660  1.00  0.00    -0.030 C 
HETATM   15  C12 UNL     1      29.858  25.302  17.905  1.00  0.00     0.019 C 
HETATM   16  C13 UNL     1      27.884  24.481  16.735  1.00  0.00     0.019 C 
HETATM   17  C14 UNL     1      27.627  25.534  18.959  1.00  0.00     0.013 C 
HETATM   18  C15 UNL     1      26.751  26.743  19.181  1.00  0.00     0.013 C 
BRANCH   8  19
HETATM   19  O3  UNL     1      23.831  27.424  17.593  1.00  0.00    -0.382 OA
ATOM     20  H3  UNL     1      23.876  26.557  17.978  1.00  0.00     0.211 HD
ENDBRANCH   8  19
BRANCH   9  21
HETATM   21  O4  UNL     1      24.634  28.553  15.608  1.00  0.00    -0.392 OA
ATOM     22  H4  UNL     1      25.218  28.029  15.072  1.00  0.00     0.210 HD
ENDBRANCH   9  21
ENDBRANCH   7   8
ENDBRANCH   1   6
BRANCH   1  23
HETATM   23  C17 UNL     1      23.968  28.445  22.556  1.00  0.00     0.186 C 
HETATM   24  O5  UNL     1      24.119  29.109  23.563  1.00  0.00    -0.291 OA
BRANCH  23  25
HETATM   25  C18 UNL     1      23.985  26.954  22.490  1.00  0.00     0.120 C 
BRANCH  25  26
HETATM   26  C19 UNL     1      22.701  26.381  22.969  1.00  0.00     0.216 C 
HETATM   27  O6  UNL     1      22.022  25.515  22.374  1.00  0.00    -0.644 OA
HETATM   28  O7  UNL     1      22.165  26.806  24.165  1.00  0.00    -0.644 OA
ENDBRANCH  25  26
BRANCH  25  29
HETATM   29  C20 UNL     1      25.223  26.274  22.812  1.00  0.00     0.088 C 
HETATM   30  C21 UNL     1      25.585  25.471  23.921  1.00  0.00    -0.046 C 
HETATM   31  C22 UNL     1      24.801  24.174  24.194  1.00  0.00     0.037 C 
HETATM   32  C25 UNL     1      25.892  25.980  25.288  1.00  0.00     0.037 C 
HETATM   33  C23 UNL     1      25.653  23.533  25.277  1.00  0.00     0.005 C 
HETATM   34  C24 UNL     1      26.212  24.674  26.042  1.00  0.00     0.005 C 
BRANCH  29  35
HETATM   35  O8  UNL     1      26.281  27.199  22.540  1.00  0.00    -0.359 OA
ATOM     36  H8  UNL     1      27.095  26.727  22.673  1.00  0.00     0.217 HD
ENDBRANCH  29  35
ENDBRANCH  25  29
ENDBRANCH  23  25
ENDBRANCH   1  23
TORSDOF 11
ENDMDL
MODEL 5
REMARK VINA RESULT: -7.934311454      2.194      5.084
REMARK  11 active torsions:
REMARK  status: ('A' for Active; 'I' for Inactive)
REMARK    1  A    between atoms: O1_2  and  C2_3 
REMARK    2  A    between atoms: C2_3  and  C3_5 
REMARK    3  A    between atoms: C3_5  and  C4_6 
REMARK    4  A    between atoms: C3_5  and  C17_23 
REMARK    5  A    between atoms: C5_7  and  C6_8 
REMARK    6  A    between atoms: C6_8  and  O3_9 
REMARK    7  A    between atoms: C7_11  and  O4_12 
REMARK    8  A    between atoms: C17_23  and  C18_25 
REMARK    9  A    between atoms: C18_25  and  C19_26 
REMARK   10  A    between atoms: C18_25  and  C20_29 
REMARK   11  A    between atoms: C20_29  and  O8_30 
ROOT
HETATM    1  C3  UNL     1      24.860  25.979  22.348  1.00  0.00     0.183 C 
ENDROOT
BRANCH   1   2
HETATM    2  C2  UNL     1      25.644  26.180  23.588  1.00  0.00     0.273 C 
HETATM    3  O2  UNL     1      26.578  26.976  23.708  1.00  0.00    -0.264 OA
BRANCH   2   4
HETATM    4  O1  UNL     1      25.285  25.394  24.706  1.00  0.00    -0.326 OA
HETATM    5  C1  UNL     1      25.266  23.980  24.630  1.00  0.00     0.213 C 
ENDBRANCH   2   4
ENDBRANCH   1   2
BRANCH   1   6
HETATM    6  C4  UNL     1      25.473  26.570  21.163  1.00  0.00    -0.005 C 
HETATM    7  C5  UNL     1      26.134  25.867  20.279  1.00  0.00     0.011 C 
BRANCH   7   8
HETATM    8  C6  UNL     1      26.781  26.369  19.062  1.00  0.00     0.109 C 
HETATM    9  C7  UNL     1      27.861  27.374  19.284  1.00  0.00     0.161 C 
HETATM   10  C8  UNL     1      29.169  26.664  19.092  1.00  0.00     0.069 C 
HETATM   11  C9  UNL     1      28.865  25.517  18.251  1.00  0.00    -0.073 C 
HETATM   12  C10 UNL     1      29.569  24.605  17.560  1.00  0.00    -0.015 C 
HETATM   13  C16 UNL     1      27.392  25.353  18.168  1.00  0.00     0.055 C 
HETATM   14  C11 UNL     1      28.902  23.529  16.781  1.00  0.00    -0.030 C 
HETATM   15  C12 UNL     1      29.883  22.377  16.695  1.00  0.00     0.019 C 
HETATM   16  C13 UNL     1      28.675  24.028  15.371  1.00  0.00     0.019 C 
HETATM   17  C14 UNL     1      27.602  23.062  17.379  1.00  0.00     0.013 C 
HETATM   18  C15 UNL     1      27.121  23.918  18.526  1.00  0.00     0.013 C 
BRANCH   8  19
HETATM   19  O3  UNL     1      25.793  27.031  18.287  1.00  0.00    -0.382 OA
ATOM     20  H3  UNL     1      26.237  27.632  17.701  1.00  0.00     0.211 HD
ENDBRANCH   8  19
BRANCH   9  21
HETATM   21  O4  UNL     1      27.794  28.392  18.303  1.00  0.00    -0.392 OA
ATOM     22  H4  UNL     1      27.545  29.218  18.701  1.00  0.00     0.210 HD
ENDBRANCH   9  21
ENDBRANCH   7   8
ENDBRANCH   1   6
BRANCH   1  23
HETATM   23  C17 UNL     1      23.456  26.403  22.610  1.00  0.00     0.186 C 
HETATM   24  O5  UNL     1      22.662  25.482  22.575  1.00  0.00    -0.291 OA
BRANCH  23  25
HETATM   25  C18 UNL     1      23.115  27.830  22.881  1.00  0.00     0.120 C 
BRANCH  25  26
HETATM   26  C19 UNL     1      23.009  28.089  24.339  1.00  0.00     0.216 C 
HETATM   27  O6  UNL     1      22.556  27.291  25.191  1.00  0.00    -0.644 OA
HETATM   28  O7  UNL     1      23.430  29.296  24.853  1.00  0.00    -0.644 OA
ENDBRANCH  25  26
BRANCH  25  29
HETATM   29  C20 UNL     1      22.194  28.492  21.979  1.00  0.00     0.088 C 
HETATM   30  C21 UNL     1      22.405  29.489  20.996  1.00  0.00    -0.046 C 
HETATM   31  C22 UNL     1      23.348  29.190  19.816  1.00  0.00     0.037 C 
HETATM   32  C25 UNL     1      22.654  30.932  21.276  1.00  0.00     0.037 C 
HETATM   33  C23 UNL     1      23.091  30.389  18.918  1.00  0.00     0.005 C 
HETATM   34  C24 UNL     1      22.801  31.505  19.851  1.00  0.00     0.005 C 
BRANCH  29  35
HETATM   35  O8  UNL     1      21.039  28.834  22.751  1.00  0.00    -0.359 OA
ATOM     36  H8  UNL     1      20.494  29.380  22.197  1.00  0.00     0.217 HD
ENDBRANCH  29  35
ENDBRANCH  25  29
ENDBRANCH  23  25
ENDBRANCH   1  23
TORSDOF 11
ENDMDL
