MODEL 1
REMARK VINA RESULT: -7.552570123      0.000      0.000
REMARK  11 active torsions:
REMARK  status: ('A' for Active; 'I' for Inactive)
REMARK    1  A    between atoms: O1_2  and  C2_3 
REMARK    2  A    between atoms: C2_3  and  C3_5 
REMARK    3  A    between atoms: C3_5  and  C4_6 
REMARK    4  A    between atoms: C6_8  and  O3_9 
REMARK    5  A    between atoms: C6_8  and  C7_11 
REMARK    6  A    between atoms: C7_11  and  C8_12 
REMARK    7  A    between atoms: C15_20  and  C16_21 
REMARK    8  A    between atoms: C16_21  and  C18_23 
REMARK    9  A    between atoms: C18_23  and  C19_24 
REMARK   10  A    between atoms: C24_31  and  O7_32 
REMARK   11  A    between atoms: C25_34  and  O8_35 
ROOT
HETATM    1  C4  UNL     1      25.321  28.669  18.039  1.00  0.00     0.029 C 
HETATM    2  C5  UNL     1      25.661  27.237  18.228  1.00  0.00     0.046 C 
HETATM    3  C6  UNL     1      26.550  26.961  19.462  1.00  0.00     0.069 C 
HETATM    4  C10 UNL     1      25.672  26.833  20.680  1.00  0.00     0.027 C 
HETATM    5  C11 UNL     1      26.457  26.999  21.923  1.00  0.00     0.009 C 
HETATM    6  C12 UNL     1      25.675  27.551  23.122  1.00  0.00     0.010 C 
HETATM    7  C13 UNL     1      24.358  26.927  23.175  1.00  0.00    -0.036 C 
HETATM    8  C14 UNL     1      24.479  25.392  23.201  1.00  0.00     0.016 C 
HETATM    9  C15 UNL     1      23.377  27.222  24.206  1.00  0.00    -0.002 C 
HETATM   10  C20 UNL     1      22.097  26.653  23.550  1.00  0.00     0.006 C 
HETATM   11  C21 UNL     1      22.364  26.649  22.045  1.00  0.00     0.006 C 
HETATM   12  C22 UNL     1      23.630  27.413  21.954  1.00  0.00     0.001 C 
HETATM   13  C23 UNL     1      24.337  27.476  20.662  1.00  0.00     0.029 C 
HETATM   14  C24 UNL     1      24.148  28.834  20.106  1.00  0.00     0.152 C 
HETATM   15  C25 UNL     1      23.950  28.853  18.582  1.00  0.00     0.152 C 
ENDROOT
BRANCH   3  16
HETATM   16  O3  UNL     1      27.592  27.851  19.571  1.00  0.00    -0.389 OA
ATOM     17  H3  UNL     1      27.551  28.365  20.370  1.00  0.00     0.210 HD
ENDBRANCH   3  16
BRANCH   3  18
HETATM   18  C7  UNL     1      27.198  25.673  19.000  1.00  0.00     0.115 C 
BRANCH  18  19
HETATM   19  C8  UNL     1      28.234  25.676  18.017  1.00  0.00     0.126 C 
HETATM   20  C9  UNL     1      28.178  24.557  16.973  1.00  0.00     0.091 C 
HETATM   21  O4  UNL     1      29.145  26.426  17.884  1.00  0.00    -0.298 OA
ENDBRANCH  18  19
ENDBRANCH   3  18
BRANCH   1  22
HETATM   22  C3  UNL     1      25.509  29.217  16.670  1.00  0.00     0.118 C 
BRANCH  22  23
HETATM   23  C2  UNL     1      25.988  28.326  15.629  1.00  0.00     0.258 C 
HETATM   24  O2  UNL     1      25.283  27.807  14.741  1.00  0.00    -0.265 OA
BRANCH  23  25
HETATM   25  O1  UNL     1      27.340  28.006  15.597  1.00  0.00    -0.326 OA
HETATM   26  C1  UNL     1      27.883  27.240  14.512  1.00  0.00     0.213 C 
ENDBRANCH  23  25
ENDBRANCH  22  23
ENDBRANCH   1  22
BRANCH  15  27
HETATM   27  O8  UNL     1      23.021  27.903  18.215  1.00  0.00    -0.393 OA
ATOM     28  H8  UNL     1      22.439  27.601  18.903  1.00  0.00     0.210 HD
ENDBRANCH  15  27
BRANCH  14  29
HETATM   29  O7  UNL     1      24.961  29.843  20.452  1.00  0.00    -0.393 OA
ATOM     30  H7  UNL     1      24.708  30.747  20.308  1.00  0.00     0.210 HD
ENDBRANCH  14  29
BRANCH   9  31
HETATM   31  C16 UNL     1      23.031  28.498  24.766  1.00  0.00    -0.004 C 
HETATM   32  C17 UNL     1      21.485  28.505  24.880  1.00  0.00     0.011 C 
BRANCH  31  33
HETATM   33  C18 UNL     1      23.494  28.884  26.136  1.00  0.00     0.117 C 
BRANCH  33  34
HETATM   34  C19 UNL     1      24.904  29.358  26.149  1.00  0.00     0.172 C 
HETATM   35  O5  UNL     1      25.275  30.510  25.820  1.00  0.00    -0.648 OA
HETATM   36  O6  UNL     1      25.956  28.505  26.548  1.00  0.00    -0.648 OA
ENDBRANCH  33  34
ENDBRANCH  31  33
ENDBRANCH   9  31
TORSDOF 11
ENDMDL
MODEL 2
REMARK VINA RESULT: -7.351933674      0.722      1.049
REMARK  11 active torsions:
REMARK  status: ('A' for Active; 'I' for Inactive)
REMARK    1  A    between atoms: O1_2  and  C2_3 
REMARK    2  A    between atoms: C2_3  and  C3_5 
REMARK    3  A    between atoms: C3_5  and  C4_6 
REMARK    4  A    between atoms: C6_8  and  O3_9 
REMARK    5  A    between atoms: C6_8  and  C7_11 
REMARK    6  A    between atoms: C7_11  and  C8_12 
REMARK    7  A    between atoms: C15_20  and  C16_21 
REMARK    8  A    between atoms: C16_21  and  C18_23 
REMARK    9  A    between atoms: C18_23  and  C19_24 
REMARK   10  A    between atoms: C24_31  and  O7_32 
REMARK   11  A    between atoms: C25_34  and  O8_35 
ROOT
HETATM    1  C4  UNL     1      25.538  28.102  18.072  1.00  0.00     0.029 C 
HETATM    2  C5  UNL     1      25.651  26.666  18.427  1.00  0.00     0.046 C 
HETATM    3  C6  UNL     1      26.458  26.400  19.718  1.00  0.00     0.069 C 
HETATM    4  C10 UNL     1      25.543  26.543  20.907  1.00  0.00     0.027 C 
HETATM    5  C11 UNL     1      26.315  26.728  22.155  1.00  0.00     0.009 C 
HETATM    6  C12 UNL     1      25.599  27.522  23.256  1.00  0.00     0.010 C 
HETATM    7  C13 UNL     1      24.202  27.112  23.323  1.00  0.00    -0.036 C 
HETATM    8  C14 UNL     1      24.086  25.589  23.519  1.00  0.00     0.016 C 
HETATM    9  C15 UNL     1      23.254  27.665  24.276  1.00  0.00    -0.002 C 
HETATM   10  C20 UNL     1      21.918  27.224  23.635  1.00  0.00     0.006 C 
HETATM   11  C21 UNL     1      22.215  27.010  22.151  1.00  0.00     0.006 C 
HETATM   12  C22 UNL     1      23.585  27.561  22.028  1.00  0.00     0.001 C 
HETATM   13  C23 UNL     1      24.323  27.372  20.766  1.00  0.00     0.029 C 
HETATM   14  C24 UNL     1      24.357  28.672  20.061  1.00  0.00     0.152 C 
HETATM   15  C25 UNL     1      24.200  28.548  18.537  1.00  0.00     0.152 C 
ENDROOT
BRANCH   3  16
HETATM   16  O3  UNL     1      27.622  27.131  19.773  1.00  0.00    -0.389 OA
ATOM     17  H3  UNL     1      27.762  27.531  20.623  1.00  0.00     0.210 HD
ENDBRANCH   3  16
BRANCH   3  18
HETATM   18  C7  UNL     1      26.912  24.986  19.424  1.00  0.00     0.115 C 
BRANCH  18  19
HETATM   19  C8  UNL     1      27.870  24.713  18.401  1.00  0.00     0.126 C 
HETATM   20  C9  UNL     1      27.517  23.585  17.429  1.00  0.00     0.091 C 
HETATM   21  O4  UNL     1      28.914  25.238  18.187  1.00  0.00    -0.298 OA
ENDBRANCH  18  19
ENDBRANCH   3  18
BRANCH   1  22
HETATM   22  C3  UNL     1      25.839  28.458  16.660  1.00  0.00     0.118 C 
BRANCH  22  23
HETATM   23  C2  UNL     1      27.115  28.050  16.102  1.00  0.00     0.258 C 
HETATM   24  O2  UNL     1      28.188  27.973  16.732  1.00  0.00    -0.265 OA
BRANCH  23  25
HETATM   25  O1  UNL     1      27.176  27.714  14.755  1.00  0.00    -0.326 OA
HETATM   26  C1  UNL     1      28.330  27.051  14.220  1.00  0.00     0.213 C 
ENDBRANCH  23  25
ENDBRANCH  22  23
ENDBRANCH   1  22
BRANCH  15  27
HETATM   27  O8  UNL     1      23.145  27.713  18.238  1.00  0.00    -0.393 OA
ATOM     28  H8  UNL     1      22.934  27.620  17.316  1.00  0.00     0.210 HD
ENDBRANCH  15  27
BRANCH  14  29
HETATM   29  O7  UNL     1      25.306  29.581  20.329  1.00  0.00    -0.393 OA
ATOM     30  H7  UNL     1      26.027  29.727  19.728  1.00  0.00     0.210 HD
ENDBRANCH  14  29
BRANCH   9  31
HETATM   31  C16 UNL     1      23.095  29.033  24.682  1.00  0.00    -0.004 C 
HETATM   32  C17 UNL     1      21.570  29.312  24.640  1.00  0.00     0.011 C 
BRANCH  31  33
HETATM   33  C18 UNL     1      23.504  29.479  26.050  1.00  0.00     0.117 C 
BRANCH  33  34
HETATM   34  C19 UNL     1      24.970  29.706  26.162  1.00  0.00     0.172 C 
HETATM   35  O5  UNL     1      25.804  28.835  26.503  1.00  0.00    -0.648 OA
HETATM   36  O6  UNL     1      25.536  30.969  25.881  1.00  0.00    -0.648 OA
ENDBRANCH  33  34
ENDBRANCH  31  33
ENDBRANCH   9  31
TORSDOF 11
ENDMDL
MODEL 3
REMARK VINA RESULT: -7.290175299      1.336      1.594
REMARK  11 active torsions:
REMARK  status: ('A' for Active; 'I' for Inactive)
REMARK    1  A    between atoms: O1_2  and  C2_3 
REMARK    2  A    between atoms: C2_3  and  C3_5 
REMARK    3  A    between atoms: C3_5  and  C4_6 
REMARK    4  A    between atoms: C6_8  and  O3_9 
REMARK    5  A    between atoms: C6_8  and  C7_11 
REMARK    6  A    between atoms: C7_11  and  C8_12 
REMARK    7  A    between atoms: C15_20  and  C16_21 
REMARK    8  A    between atoms: C16_21  and  C18_23 
REMARK    9  A    between atoms: C18_23  and  C19_24 
REMARK   10  A    between atoms: C24_31  and  O7_32 
REMARK   11  A    between atoms: C25_34  and  O8_35 
ROOT
HETATM    1  C4  UNL     1      25.327  28.661  18.052  1.00  0.00     0.029 C 
HETATM    2  C5  UNL     1      25.688  27.233  18.232  1.00  0.00     0.046 C 
HETATM    3  C6  UNL     1      26.582  26.962  19.463  1.00  0.00     0.069 C 
HETATM    4  C10 UNL     1      25.708  26.815  20.682  1.00  0.00     0.027 C 
HETATM    5  C11 UNL     1      26.493  26.985  21.924  1.00  0.00     0.009 C 
HETATM    6  C12 UNL     1      25.705  27.518  23.128  1.00  0.00     0.010 C 
HETATM    7  C13 UNL     1      24.397  26.876  23.179  1.00  0.00    -0.036 C 
HETATM    8  C14 UNL     1      24.540  25.343  23.196  1.00  0.00     0.016 C 
HETATM    9  C15 UNL     1      23.414  27.152  24.213  1.00  0.00    -0.002 C 
HETATM   10  C20 UNL     1      22.141  26.569  23.556  1.00  0.00     0.006 C 
HETATM   11  C21 UNL     1      22.405  26.576  22.051  1.00  0.00     0.006 C 
HETATM   12  C22 UNL     1      23.661  27.359  21.962  1.00  0.00     0.001 C 
HETATM   13  C23 UNL     1      24.364  27.439  20.669  1.00  0.00     0.029 C 
HETATM   14  C24 UNL     1      24.155  28.798  20.122  1.00  0.00     0.152 C 
HETATM   15  C25 UNL     1      23.955  28.822  18.598  1.00  0.00     0.152 C 
ENDROOT
BRANCH   3  16
HETATM   16  O3  UNL     1      27.613  27.866  19.576  1.00  0.00    -0.389 OA
ATOM     17  H3  UNL     1      27.331  28.696  19.943  1.00  0.00     0.210 HD
ENDBRANCH   3  16
BRANCH   3  18
HETATM   18  C7  UNL     1      27.248  25.686  18.992  1.00  0.00     0.115 C 
BRANCH  18  19
HETATM   19  C8  UNL     1      28.282  25.709  18.008  1.00  0.00     0.126 C 
HETATM   20  C9  UNL     1      28.226  24.609  16.945  1.00  0.00     0.091 C 
HETATM   21  O4  UNL     1      29.191  26.464  17.887  1.00  0.00    -0.298 OA
ENDBRANCH  18  19
ENDBRANCH   3  18
BRANCH   1  22
HETATM   22  C3  UNL     1      25.506  29.219  16.685  1.00  0.00     0.118 C 
BRANCH  22  23
HETATM   23  C2  UNL     1      25.978  28.337  15.635  1.00  0.00     0.258 C 
HETATM   24  O2  UNL     1      25.271  27.837  14.738  1.00  0.00    -0.265 OA
BRANCH  23  25
HETATM   25  O1  UNL     1      27.327  28.004  15.602  1.00  0.00    -0.326 OA
HETATM   26  C1  UNL     1      27.874  27.283  14.489  1.00  0.00     0.213 C 
ENDBRANCH  23  25
ENDBRANCH  22  23
ENDBRANCH   1  22
BRANCH  15  27
HETATM   27  O8  UNL     1      23.039  27.862  18.227  1.00  0.00    -0.393 OA
ATOM     28  H8  UNL     1      23.131  27.013  18.645  1.00  0.00     0.210 HD
ENDBRANCH  15  27
BRANCH  14  29
HETATM   29  O7  UNL     1      24.955  29.816  20.473  1.00  0.00    -0.393 OA
ATOM     30  H7  UNL     1      25.294  30.419  19.822  1.00  0.00     0.210 HD
ENDBRANCH  14  29
BRANCH   9  31
HETATM   31  C16 UNL     1      23.051  28.419  24.782  1.00  0.00    -0.004 C 
HETATM   32  C17 UNL     1      23.674  28.440  26.202  1.00  0.00     0.011 C 
BRANCH  31  33
HETATM   33  C18 UNL     1      23.521  29.699  24.165  1.00  0.00     0.117 C 
BRANCH  33  34
HETATM   34  C19 UNL     1      22.500  30.311  23.273  1.00  0.00     0.172 C 
HETATM   35  O5  UNL     1      21.270  30.074  23.325  1.00  0.00    -0.648 OA
HETATM   36  O6  UNL     1      22.868  31.234  22.270  1.00  0.00    -0.648 OA
ENDBRANCH  33  34
ENDBRANCH  31  33
ENDBRANCH   9  31
TORSDOF 11
ENDMDL
MODEL 4
REMARK VINA RESULT: -7.255228467      2.271      4.496
REMARK  11 active torsions:
REMARK  status: ('A' for Active; 'I' for Inactive)
REMARK    1  A    between atoms: O1_2  and  C2_3 
REMARK    2  A    between atoms: C2_3  and  C3_5 
REMARK    3  A    between atoms: C3_5  and  C4_6 
REMARK    4  A    between atoms: C6_8  and  O3_9 
REMARK    5  A    between atoms: C6_8  and  C7_11 
REMARK    6  A    between atoms: C7_11  and  C8_12 
REMARK    7  A    between atoms: C15_20  and  C16_21 
REMARK    8  A    between atoms: C16_21  and  C18_23 
REMARK    9  A    between atoms: C18_23  and  C19_24 
REMARK   10  A    between atoms: C24_31  and  O7_32 
REMARK   11  A    between atoms: C25_34  and  O8_35 
ROOT
HETATM    1  C4  UNL     1      26.684  27.507  18.752  1.00  0.00     0.029 C 
HETATM    2  C5  UNL     1      26.014  28.692  19.340  1.00  0.00     0.046 C 
HETATM    3  C6  UNL     1      24.583  28.413  19.854  1.00  0.00     0.069 C 
HETATM    4  C10 UNL     1      24.664  27.861  21.254  1.00  0.00     0.027 C 
HETATM    5  C11 UNL     1      23.404  27.184  21.634  1.00  0.00     0.009 C 
HETATM    6  C12 UNL     1      23.552  26.057  22.664  1.00  0.00     0.010 C 
HETATM    7  C13 UNL     1      24.497  26.462  23.698  1.00  0.00    -0.036 C 
HETATM    8  C14 UNL     1      24.072  27.797  24.336  1.00  0.00     0.016 C 
HETATM    9  C15 UNL     1      24.845  25.622  24.832  1.00  0.00    -0.002 C 
HETATM   10  C20 UNL     1      26.134  26.325  25.319  1.00  0.00     0.006 C 
HETATM   11  C21 UNL     1      26.684  27.078  24.109  1.00  0.00     0.006 C 
HETATM   12  C22 UNL     1      25.829  26.565  23.012  1.00  0.00     0.001 C 
HETATM   13  C23 UNL     1      25.916  27.195  21.682  1.00  0.00     0.029 C 
HETATM   14  C24 UNL     1      26.634  26.263  20.784  1.00  0.00     0.152 C 
HETATM   15  C25 UNL     1      27.585  26.966  19.802  1.00  0.00     0.152 C 
ENDROOT
BRANCH   3  16
HETATM   16  O3  UNL     1      23.838  27.674  18.966  1.00  0.00    -0.389 OA
ATOM     17  H3  UNL     1      24.306  26.914  18.640  1.00  0.00     0.210 HD
ENDBRANCH   3  16
BRANCH   3  18
HETATM   18  C7  UNL     1      24.019  29.815  19.748  1.00  0.00     0.115 C 
BRANCH  18  19
HETATM   19  C8  UNL     1      22.615  30.041  19.628  1.00  0.00     0.126 C 
HETATM   20  C9  UNL     1      21.906  30.567  20.879  1.00  0.00     0.091 C 
HETATM   21  O4  UNL     1      21.903  29.882  18.691  1.00  0.00    -0.298 OA
ENDBRANCH  18  19
ENDBRANCH   3  18
BRANCH   1  22
HETATM   22  C3  UNL     1      27.341  27.706  17.434  1.00  0.00     0.118 C 
BRANCH  22  23
HETATM   23  C2  UNL     1      26.505  27.808  16.253  1.00  0.00     0.258 C 
HETATM   24  O2  UNL     1      25.270  27.984  16.255  1.00  0.00    -0.265 OA
BRANCH  23  25
HETATM   25  O1  UNL     1      27.101  27.703  15.002  1.00  0.00    -0.326 OA
HETATM   26  C1  UNL     1      28.346  27.008  14.844  1.00  0.00     0.213 C 
ENDBRANCH  23  25
ENDBRANCH  22  23
ENDBRANCH   1  22
BRANCH  15  27
HETATM   27  O8  UNL     1      28.356  27.891  20.474  1.00  0.00    -0.393 OA
ATOM     28  H8  UNL     1      28.126  28.045  21.382  1.00  0.00     0.210 HD
ENDBRANCH  15  27
BRANCH  14  29
HETATM   29  O7  UNL     1      25.982  25.287  20.136  1.00  0.00    -0.393 OA
ATOM     30  H7  UNL     1      25.521  25.461  19.324  1.00  0.00     0.210 HD
ENDBRANCH  14  29
BRANCH   9  31
HETATM   31  C16 UNL     1      25.103  24.210  24.848  1.00  0.00    -0.004 C 
HETATM   32  C17 UNL     1      26.394  24.025  25.689  1.00  0.00     0.011 C 
BRANCH  31  33
HETATM   33  C18 UNL     1      24.130  23.260  25.471  1.00  0.00     0.117 C 
BRANCH  33  34
HETATM   34  C19 UNL     1      24.048  23.414  26.949  1.00  0.00     0.172 C 
HETATM   35  O5  UNL     1      23.555  24.405  27.538  1.00  0.00    -0.648 OA
HETATM   36  O6  UNL     1      24.541  22.414  27.815  1.00  0.00    -0.648 OA
ENDBRANCH  33  34
ENDBRANCH  31  33
ENDBRANCH   9  31
TORSDOF 11
ENDMDL
MODEL 5
REMARK VINA RESULT: -7.096989213      2.556      4.757
REMARK  11 active torsions:
REMARK  status: ('A' for Active; 'I' for Inactive)
REMARK    1  A    between atoms: O1_2  and  C2_3 
REMARK    2  A    between atoms: C2_3  and  C3_5 
REMARK    3  A    between atoms: C3_5  and  C4_6 
REMARK    4  A    between atoms: C6_8  and  O3_9 
REMARK    5  A    between atoms: C6_8  and  C7_11 
REMARK    6  A    between atoms: C7_11  and  C8_12 
REMARK    7  A    between atoms: C15_20  and  C16_21 
REMARK    8  A    between atoms: C16_21  and  C18_23 
REMARK    9  A    between atoms: C18_23  and  C19_24 
REMARK   10  A    between atoms: C24_31  and  O7_32 
REMARK   11  A    between atoms: C25_34  and  O8_35 
ROOT
HETATM    1  C4  UNL     1      26.607  27.585  19.187  1.00  0.00     0.029 C 
HETATM    2  C5  UNL     1      25.863  28.744  19.739  1.00  0.00     0.046 C 
HETATM    3  C6  UNL     1      24.427  28.405  20.200  1.00  0.00     0.069 C 
HETATM    4  C10 UNL     1      24.477  27.866  21.605  1.00  0.00     0.027 C 
HETATM    5  C11 UNL     1      23.234  27.136  21.941  1.00  0.00     0.009 C 
HETATM    6  C12 UNL     1      23.391  26.023  22.986  1.00  0.00     0.010 C 
HETATM    7  C13 UNL     1      24.276  26.476  24.053  1.00  0.00    -0.036 C 
HETATM    8  C14 UNL     1      23.768  27.795  24.663  1.00  0.00     0.016 C 
HETATM    9  C15 UNL     1      24.616  25.660  25.206  1.00  0.00    -0.002 C 
HETATM   10  C20 UNL     1      25.853  26.421  25.737  1.00  0.00     0.006 C 
HETATM   11  C21 UNL     1      26.416  27.191  24.543  1.00  0.00     0.006 C 
HETATM   12  C22 UNL     1      25.628  26.633  23.417  1.00  0.00     0.001 C 
HETATM   13  C23 UNL     1      25.739  27.258  22.087  1.00  0.00     0.029 C 
HETATM   14  C24 UNL     1      26.532  26.353  21.225  1.00  0.00     0.152 C 
HETATM   15  C25 UNL     1      27.489  27.091  20.275  1.00  0.00     0.152 C 
ENDROOT
BRANCH   3  16
HETATM   16  O3  UNL     1      23.749  27.629  19.289  1.00  0.00    -0.389 OA
ATOM     17  H3  UNL     1      23.246  26.937  19.702  1.00  0.00     0.210 HD
ENDBRANCH   3  16
BRANCH   3  18
HETATM   18  C7  UNL     1      23.806  29.780  20.061  1.00  0.00     0.115 C 
BRANCH  18  19
HETATM   19  C8  UNL     1      22.446  29.942  19.660  1.00  0.00     0.126 C 
HETATM   20  C9  UNL     1      21.434  30.172  20.785  1.00  0.00     0.091 C 
HETATM   21  O4  UNL     1      21.974  29.925  18.570  1.00  0.00    -0.298 OA
ENDBRANCH  18  19
ENDBRANCH   3  18
BRANCH   1  22
HETATM   22  C3  UNL     1      27.306  27.805  17.893  1.00  0.00     0.118 C 
BRANCH  22  23
HETATM   23  C2  UNL     1      26.524  27.772  16.672  1.00  0.00     0.258 C 
HETATM   24  O2  UNL     1      25.283  27.869  16.604  1.00  0.00    -0.265 OA
BRANCH  23  25
HETATM   25  O1  UNL     1      27.188  27.618  15.460  1.00  0.00    -0.326 OA
HETATM   26  C1  UNL     1      28.432  26.907  15.394  1.00  0.00     0.213 C 
ENDBRANCH  23  25
ENDBRANCH  22  23
ENDBRANCH   1  22
BRANCH  15  27
HETATM   27  O8  UNL     1      28.192  28.053  20.969  1.00  0.00    -0.393 OA
ATOM     28  H8  UNL     1      27.888  28.238  21.850  1.00  0.00     0.210 HD
ENDBRANCH  15  27
BRANCH  14  29
HETATM   29  O7  UNL     1      25.949  25.345  20.560  1.00  0.00    -0.393 OA
ATOM     30  H7  UNL     1      25.810  24.501  20.973  1.00  0.00     0.210 HD
ENDBRANCH  14  29
BRANCH   9  31
HETATM   31  C16 UNL     1      24.935  24.260  25.243  1.00  0.00    -0.004 C 
HETATM   32  C17 UNL     1      24.445  23.751  26.624  1.00  0.00     0.011 C 
BRANCH  31  33
HETATM   33  C18 UNL     1      24.318  23.307  24.270  1.00  0.00     0.117 C 
BRANCH  33  34
HETATM   34  C19 UNL     1      25.196  22.142  23.977  1.00  0.00     0.172 C 
HETATM   35  O5  UNL     1      25.151  21.459  22.927  1.00  0.00    -0.648 OA
HETATM   36  O6  UNL     1      26.172  21.714  24.902  1.00  0.00    -0.648 OA
ENDBRANCH  33  34
ENDBRANCH  31  33
ENDBRANCH   9  31
TORSDOF 11
ENDMDL
