MODEL 1
REMARK VINA RESULT: -8.440400044      0.000      0.000
REMARK  12 active torsions:
REMARK  status: ('A' for Active; 'I' for Inactive)
REMARK    1  A    between atoms: C2_2  and  N1_3 
REMARK    2  A    between atoms: N1_3  and  C3_4 
REMARK    3  A    between atoms: N1_3  and  S2_36 
REMARK    4  A    between atoms: C6_7  and  C7_8 
REMARK    5  A    between atoms: C8_9  and  C9_10 
REMARK    6  A    between atoms: C8_9  and  C17_25 
REMARK    7  A    between atoms: C9_10  and  S1_11 
REMARK    8  A    between atoms: S1_11  and  C10_12 
REMARK    9  A    between atoms: N5_18  and  C11_19 
REMARK   10  A    between atoms: S2_36  and  C23_39 
REMARK   11  A    between atoms: C25_43  and  S3_44 
REMARK   12  A    between atoms: S3_44  and  N9_45 
ROOT
HETATM    1  C7  UNL     1     -13.823 -11.676 -20.565  1.00  0.00     0.020 C 
HETATM    2  C8  UNL     1     -12.637 -11.530 -21.015  1.00  0.00    -0.030 C 
ENDROOT
BRANCH   1   3
HETATM    3  C6  UNL     1     -14.242 -11.986 -19.235  1.00  0.00    -0.035 A 
HETATM    4  C5  UNL     1     -14.468 -13.317 -18.865  1.00  0.00     0.013 A 
HETATM    5  C4  UNL     1     -14.793 -13.581 -17.561  1.00  0.00     0.031 A 
HETATM    6  C3  UNL     1     -14.910 -12.624 -16.593  1.00  0.00     0.045 A 
HETATM    7  C22 UNL     1     -14.683 -11.321 -16.980  1.00  0.00     0.031 A 
HETATM    8  C21 UNL     1     -14.354 -10.973 -18.265  1.00  0.00     0.013 A 
BRANCH   6   9
HETATM    9  N1  UNL     1     -15.245 -12.932 -15.260  1.00  0.00    -0.272 N 
BRANCH   9  10
HETATM   10  C2  UNL     1     -16.346 -12.210 -14.656  1.00  0.00     0.137 C 
HETATM   11  C1  UNL     1     -17.628 -12.403 -15.440  1.00  0.00     0.028 C 
ENDBRANCH   9  10
BRANCH   9  12
HETATM   12  S2  UNL     1     -14.369 -14.117 -14.408  1.00  0.00     0.273 S 
HETATM   13  O2  UNL     1     -14.652 -15.503 -14.958  1.00  0.00    -0.199 OA
HETATM   14  O3  UNL     1     -14.833 -14.128 -12.963  1.00  0.00    -0.199 OA
BRANCH  12  15
HETATM   15  C23 UNL     1     -12.639 -13.845 -14.467  1.00  0.00     0.138 A 
HETATM   16  C24 UNL     1     -11.842 -13.284 -13.503  1.00  0.00     0.122 A 
HETATM   17  N8  UNL     1     -10.577 -13.177 -13.757  1.00  0.00    -0.348 N 
HETATM   18  C25 UNL     1     -10.087 -13.594 -14.901  1.00  0.00     0.192 A 
ATOM     19  H8  UNL     1      -9.955 -12.763 -13.061  1.00  0.00     0.166 HD
HETATM   20  S4  UNL     1     -11.501 -14.185 -15.693  1.00  0.00    -0.044 SA
BRANCH  18  21
HETATM   21  S3  UNL     1      -8.418 -13.566 -15.492  1.00  0.00     0.279 S 
HETATM   22  O4  UNL     1      -8.518 -13.841 -16.981  1.00  0.00    -0.199 OA
HETATM   23  O5  UNL     1      -7.633 -14.594 -14.777  1.00  0.00    -0.199 OA
BRANCH  21  24
HETATM   24  N9  UNL     1      -7.699 -12.037 -15.311  1.00  0.00    -0.323 N 
ATOM     25  H92 UNL     1      -8.057 -11.326 -14.674  1.00  0.00     0.169 HD
ATOM     26  H91 UNL     1      -6.880 -11.923 -15.908  1.00  0.00     0.169 HD
ENDBRANCH  21  24
ENDBRANCH  18  21
ENDBRANCH  12  15
ENDBRANCH   9  12
ENDBRANCH   6   9
ENDBRANCH   1   3
BRANCH   2  27
HETATM   27  C9  UNL     1     -12.547 -11.215 -22.510  1.00  0.00     0.122 C 
BRANCH  27  28
HETATM   28  S1  UNL     1     -14.198 -11.338 -23.224  1.00  0.00    -0.086 SA
BRANCH  28  29
HETATM   29  C10 UNL     1     -14.109 -12.456 -24.632  1.00  0.00     0.180 A 
HETATM   30  N2  UNL     1     -14.136 -12.121 -25.915  1.00  0.00    -0.261 N 
HETATM   31  N3  UNL     1     -14.041 -13.223 -26.637  1.00  0.00    -0.004 NA
ATOM     32  H2  UNL     1     -14.218 -11.173 -26.282  1.00  0.00     0.186 HD
HETATM   33  N4  UNL     1     -13.955 -14.230 -25.782  1.00  0.00    -0.217 N 
HETATM   34  N5  UNL     1     -13.994 -13.780 -24.547  1.00  0.00    -0.220 N 
ATOM     35  H4  UNL     1     -13.869 -15.213 -26.043  1.00  0.00     0.206 HD
BRANCH  34  36
HETATM   36  C11 UNL     1     -13.919 -14.576 -23.377  1.00  0.00     0.060 A 
HETATM   37  C12 UNL     1     -15.097 -14.976 -22.779  1.00  0.00     0.031 A 
HETATM   38  C13 UNL     1     -15.099 -15.744 -21.648  1.00  0.00     0.002 A 
HETATM   39  C14 UNL     1     -13.922 -16.163 -21.035  1.00  0.00     0.000 A 
HETATM   40  C15 UNL     1     -12.747 -15.752 -21.648  1.00  0.00     0.002 A 
HETATM   41  C16 UNL     1     -12.742 -14.974 -22.796  1.00  0.00     0.031 A 
ENDBRANCH  34  36
ENDBRANCH  28  29
ENDBRANCH  27  28
ENDBRANCH   2  27
BRANCH   2  42
HETATM   42  C17 UNL     1     -11.409 -11.447 -20.255  1.00  0.00     0.064 A 
HETATM   43  C18 UNL     1     -10.883 -10.292 -19.660  1.00  0.00     0.038 A 
HETATM   44  C19 UNL     1     -11.372  -8.911 -19.838  1.00  0.00     0.071 C 
HETATM   45  N6  UNL     1      -9.829 -10.632 -18.922  1.00  0.00    -0.301 N 
HETATM   46  N7  UNL     1      -9.656 -11.910 -19.009  1.00  0.00    -0.266 N 
ATOM     47  H6  UNL     1      -9.254  -9.990 -18.378  1.00  0.00     0.186 HD
HETATM   48  C20 UNL     1     -10.595 -12.460 -19.810  1.00  0.00     0.272 A 
ATOM     49  H7  UNL     1      -8.916 -12.430 -18.538  1.00  0.00     0.190 HD
HETATM   50  O1  UNL     1     -10.599 -13.700 -20.016  1.00  0.00    -0.266 OA
ENDBRANCH   2  42
TORSDOF 12
ENDMDL
MODEL 2
REMARK VINA RESULT: -8.352754181      1.421      2.869
REMARK  12 active torsions:
REMARK  status: ('A' for Active; 'I' for Inactive)
REMARK    1  A    between atoms: C2_2  and  N1_3 
REMARK    2  A    between atoms: N1_3  and  C3_4 
REMARK    3  A    between atoms: N1_3  and  S2_36 
REMARK    4  A    between atoms: C6_7  and  C7_8 
REMARK    5  A    between atoms: C8_9  and  C9_10 
REMARK    6  A    between atoms: C8_9  and  C17_25 
REMARK    7  A    between atoms: C9_10  and  S1_11 
REMARK    8  A    between atoms: S1_11  and  C10_12 
REMARK    9  A    between atoms: N5_18  and  C11_19 
REMARK   10  A    between atoms: S2_36  and  C23_39 
REMARK   11  A    between atoms: C25_43  and  S3_44 
REMARK   12  A    between atoms: S3_44  and  N9_45 
ROOT
HETATM    1  C7  UNL     1     -13.864 -11.684 -20.533  1.00  0.00     0.020 C 
HETATM    2  C8  UNL     1     -12.679 -11.561 -20.994  1.00  0.00    -0.030 C 
ENDROOT
BRANCH   1   3
HETATM    3  C6  UNL     1     -14.276 -11.983 -19.199  1.00  0.00    -0.035 A 
HETATM    4  C5  UNL     1     -14.513 -13.309 -18.819  1.00  0.00     0.013 A 
HETATM    5  C4  UNL     1     -14.831 -13.562 -17.512  1.00  0.00     0.031 A 
HETATM    6  C3  UNL     1     -14.932 -12.599 -16.549  1.00  0.00     0.045 A 
HETATM    7  C22 UNL     1     -14.695 -11.300 -16.944  1.00  0.00     0.031 A 
HETATM    8  C21 UNL     1     -14.372 -10.963 -18.234  1.00  0.00     0.013 A 
BRANCH   6   9
HETATM    9  N1  UNL     1     -15.261 -12.896 -15.211  1.00  0.00    -0.272 N 
BRANCH   9  10
HETATM   10  C2  UNL     1     -16.354 -12.163 -14.605  1.00  0.00     0.137 C 
HETATM   11  C1  UNL     1     -17.648 -12.379 -15.362  1.00  0.00     0.028 C 
ENDBRANCH   9  10
BRANCH   9  12
HETATM   12  S2  UNL     1     -14.387 -14.080 -14.357  1.00  0.00     0.273 S 
HETATM   13  O2  UNL     1     -14.683 -15.469 -14.894  1.00  0.00    -0.199 OA
HETATM   14  O3  UNL     1     -14.840 -14.077 -12.908  1.00  0.00    -0.199 OA
BRANCH  12  15
HETATM   15  C23 UNL     1     -12.655 -13.821 -14.431  1.00  0.00     0.138 A 
HETATM   16  C24 UNL     1     -11.845 -13.267 -13.473  1.00  0.00     0.122 A 
HETATM   17  N8  UNL     1     -10.582 -13.169 -13.738  1.00  0.00    -0.348 N 
HETATM   18  C25 UNL     1     -10.106 -13.589 -14.888  1.00  0.00     0.192 A 
ATOM     19  H8  UNL     1      -9.951 -12.761 -13.048  1.00  0.00     0.166 HD
HETATM   20  S4  UNL     1     -11.531 -14.168 -15.667  1.00  0.00    -0.044 SA
BRANCH  18  21
HETATM   21  S3  UNL     1      -8.441 -13.572 -15.494  1.00  0.00     0.279 S 
HETATM   22  O4  UNL     1      -8.558 -13.829 -16.985  1.00  0.00    -0.199 OA
HETATM   23  O5  UNL     1      -7.662 -14.618 -14.798  1.00  0.00    -0.199 OA
BRANCH  21  24
HETATM   24  N9  UNL     1      -7.704 -12.054 -15.301  1.00  0.00    -0.323 N 
ATOM     25  H92 UNL     1      -8.111 -11.188 -15.654  1.00  0.00     0.169 HD
ATOM     26  H91 UNL     1      -6.819 -12.117 -14.798  1.00  0.00     0.169 HD
ENDBRANCH  21  24
ENDBRANCH  18  21
ENDBRANCH  12  15
ENDBRANCH   9  12
ENDBRANCH   6   9
ENDBRANCH   1   3
BRANCH   2  27
HETATM   27  C9  UNL     1     -12.597 -11.252 -22.491  1.00  0.00     0.122 C 
BRANCH  27  28
HETATM   28  S1  UNL     1     -14.235 -11.467 -23.213  1.00  0.00    -0.086 SA
BRANCH  28  29
HETATM   29  C10 UNL     1     -14.108 -12.707 -24.511  1.00  0.00     0.180 A 
HETATM   30  N2  UNL     1     -14.183 -14.023 -24.364  1.00  0.00    -0.261 N 
HETATM   31  N3  UNL     1     -14.050 -14.585 -25.551  1.00  0.00    -0.004 NA
ATOM     32  H2  UNL     1     -14.320 -14.517 -23.482  1.00  0.00     0.186 HD
HETATM   33  N4  UNL     1     -13.894 -13.600 -26.422  1.00  0.00    -0.217 N 
HETATM   34  N5  UNL     1     -13.927 -12.440 -25.803  1.00  0.00    -0.220 N 
ATOM     35  H4  UNL     1     -13.767 -13.723 -27.427  1.00  0.00     0.206 HD
BRANCH  34  36
HETATM   36  C11 UNL     1     -13.799 -11.172 -26.423  1.00  0.00     0.060 A 
HETATM   37  C12 UNL     1     -14.948 -10.513 -26.813  1.00  0.00     0.031 A 
HETATM   38  C13 UNL     1     -14.898  -9.288 -27.418  1.00  0.00     0.002 A 
HETATM   39  C14 UNL     1     -13.695  -8.638 -27.676  1.00  0.00     0.000 A 
HETATM   40  C15 UNL     1     -12.550  -9.314 -27.279  1.00  0.00     0.002 A 
HETATM   41  C16 UNL     1     -12.598 -10.556 -26.665  1.00  0.00     0.031 A 
ENDBRANCH  34  36
ENDBRANCH  28  29
ENDBRANCH  27  28
ENDBRANCH   2  27
BRANCH   2  42
HETATM   42  C17 UNL     1     -11.444 -11.498 -20.245  1.00  0.00     0.064 A 
HETATM   43  C18 UNL     1     -10.890 -10.349 -19.662  1.00  0.00     0.038 A 
HETATM   44  C19 UNL     1     -11.353  -8.960 -19.845  1.00  0.00     0.071 C 
HETATM   45  N6  UNL     1      -9.837 -10.705 -18.931  1.00  0.00    -0.301 N 
HETATM   46  N7  UNL     1      -9.690 -11.986 -19.011  1.00  0.00    -0.266 N 
ATOM     47  H6  UNL     1      -9.244 -10.071 -18.396  1.00  0.00     0.186 HD
HETATM   48  C20 UNL     1     -10.645 -12.523 -19.801  1.00  0.00     0.272 A 
ATOM     49  H7  UNL     1      -8.955 -12.518 -18.543  1.00  0.00     0.190 HD
HETATM   50  O1  UNL     1     -10.676 -13.764 -19.998  1.00  0.00    -0.266 OA
ENDBRANCH   2  42
TORSDOF 12
ENDMDL
MODEL 3
REMARK VINA RESULT: -8.307942624      1.927      3.269
REMARK  12 active torsions:
REMARK  status: ('A' for Active; 'I' for Inactive)
REMARK    1  A    between atoms: C2_2  and  N1_3 
REMARK    2  A    between atoms: N1_3  and  C3_4 
REMARK    3  A    between atoms: N1_3  and  S2_36 
REMARK    4  A    between atoms: C6_7  and  C7_8 
REMARK    5  A    between atoms: C8_9  and  C9_10 
REMARK    6  A    between atoms: C8_9  and  C17_25 
REMARK    7  A    between atoms: C9_10  and  S1_11 
REMARK    8  A    between atoms: S1_11  and  C10_12 
REMARK    9  A    between atoms: N5_18  and  C11_19 
REMARK   10  A    between atoms: S2_36  and  C23_39 
REMARK   11  A    between atoms: C25_43  and  S3_44 
REMARK   12  A    between atoms: S3_44  and  N9_45 
ROOT
HETATM    1  C7  UNL     1     -14.265 -11.144 -20.737  1.00  0.00     0.020 C 
HETATM    2  C8  UNL     1     -13.298 -11.456 -21.511  1.00  0.00    -0.030 C 
ENDROOT
BRANCH   1   3
HETATM    3  C6  UNL     1     -14.545 -11.623 -19.421  1.00  0.00    -0.035 A 
HETATM    4  C5  UNL     1     -14.971 -12.943 -19.232  1.00  0.00     0.013 A 
HETATM    5  C4  UNL     1     -15.155 -13.388 -17.951  1.00  0.00     0.031 A 
HETATM    6  C3  UNL     1     -14.947 -12.623 -16.838  1.00  0.00     0.045 A 
HETATM    7  C22 UNL     1     -14.528 -11.327 -17.047  1.00  0.00     0.031 A 
HETATM    8  C21 UNL     1     -14.321 -10.805 -18.298  1.00  0.00     0.013 A 
BRANCH   6   9
HETATM    9  N1  UNL     1     -15.145 -13.116 -15.533  1.00  0.00    -0.272 N 
BRANCH   9  10
HETATM   10  C2  UNL     1     -16.190 -12.508 -14.733  1.00  0.00     0.137 C 
HETATM   11  C1  UNL     1     -17.478 -12.375 -15.519  1.00  0.00     0.028 C 
ENDBRANCH   9  10
BRANCH   9  12
HETATM   12  S2  UNL     1     -14.176 -14.381 -14.938  1.00  0.00     0.273 S 
HETATM   13  O2  UNL     1     -14.600 -15.715 -15.527  1.00  0.00    -0.199 OA
HETATM   14  O3  UNL     1     -14.379 -14.493 -13.438  1.00  0.00    -0.199 OA
BRANCH  12  15
HETATM   15  C23 UNL     1     -12.474 -14.145 -15.284  1.00  0.00     0.138 A 
HETATM   16  C24 UNL     1     -11.833 -14.289 -16.487  1.00  0.00     0.122 A 
HETATM   17  N8  UNL     1     -10.558 -14.063 -16.518  1.00  0.00    -0.348 N 
HETATM   18  C25 UNL     1      -9.915 -13.708 -15.430  1.00  0.00     0.192 A 
ATOM     19  H8  UNL     1     -10.049 -14.162 -17.397  1.00  0.00     0.166 HD
HETATM   20  S4  UNL     1     -11.185 -13.687 -14.263  1.00  0.00    -0.044 SA
BRANCH  18  21
HETATM   21  S3  UNL     1      -8.197 -13.343 -15.203  1.00  0.00     0.279 S 
HETATM   22  O4  UNL     1      -7.965 -13.436 -13.706  1.00  0.00    -0.199 OA
HETATM   23  O5  UNL     1      -7.913 -11.995 -15.738  1.00  0.00    -0.199 OA
BRANCH  21  24
HETATM   24  N9  UNL     1      -7.192 -14.499 -15.939  1.00  0.00    -0.323 N 
ATOM     25  H92 UNL     1      -6.914 -15.367 -15.482  1.00  0.00     0.169 HD
ATOM     26  H91 UNL     1      -6.909 -14.220 -16.878  1.00  0.00     0.169 HD
ENDBRANCH  21  24
ENDBRANCH  18  21
ENDBRANCH  12  15
ENDBRANCH   9  12
ENDBRANCH   6   9
ENDBRANCH   1   3
BRANCH   2  27
HETATM   27  C9  UNL     1     -13.312 -10.760 -22.874  1.00  0.00     0.122 C 
BRANCH  27  28
HETATM   28  S1  UNL     1     -14.809 -11.245 -23.754  1.00  0.00    -0.086 SA
BRANCH  28  29
HETATM   29  C10 UNL     1     -14.404 -12.656 -24.795  1.00  0.00     0.180 A 
HETATM   30  N2  UNL     1     -14.530 -13.939 -24.481  1.00  0.00    -0.261 N 
HETATM   31  N3  UNL     1     -14.134 -14.663 -25.512  1.00  0.00    -0.004 NA
ATOM     32  H2  UNL     1     -14.874 -14.304 -23.593  1.00  0.00     0.186 HD
HETATM   33  N4  UNL     1     -13.767 -13.811 -26.456  1.00  0.00    -0.217 N 
HETATM   34  N5  UNL     1     -13.925 -12.574 -26.035  1.00  0.00    -0.220 N 
ATOM     35  H4  UNL     1     -13.413 -14.075 -27.376  1.00  0.00     0.206 HD
BRANCH  34  36
HETATM   36  C11 UNL     1     -13.639 -11.407 -26.785  1.00  0.00     0.060 A 
HETATM   37  C12 UNL     1     -14.481 -11.073 -27.827  1.00  0.00     0.031 A 
HETATM   38  C13 UNL     1     -14.264  -9.961 -28.593  1.00  0.00     0.002 A 
HETATM   39  C14 UNL     1     -13.188  -9.107 -28.370  1.00  0.00     0.000 A 
HETATM   40  C15 UNL     1     -12.351  -9.457 -27.320  1.00  0.00     0.002 A 
HETATM   41  C16 UNL     1     -12.569 -10.584 -26.541  1.00  0.00     0.031 A 
ENDBRANCH  34  36
ENDBRANCH  28  29
ENDBRANCH  27  28
ENDBRANCH   2  27
BRANCH   2  42
HETATM   42  C17 UNL     1     -12.123 -12.233 -21.186  1.00  0.00     0.064 A 
HETATM   43  C18 UNL     1     -11.154 -11.901 -20.229  1.00  0.00     0.038 A 
HETATM   44  C19 UNL     1     -11.041 -10.624 -19.498  1.00  0.00     0.071 C 
HETATM   45  N6  UNL     1     -10.310 -12.922 -20.102  1.00  0.00    -0.301 N 
HETATM   46  N7  UNL     1     -10.677 -13.867 -20.904  1.00  0.00    -0.266 N 
ATOM     47  H6  UNL     1      -9.507 -12.953 -19.474  1.00  0.00     0.186 HD
HETATM   48  C20 UNL     1     -11.781 -13.500 -21.591  1.00  0.00     0.272 A 
ATOM     49  H7  UNL     1     -10.200 -14.763 -21.004  1.00  0.00     0.190 HD
HETATM   50  O1  UNL     1     -12.297 -14.290 -22.421  1.00  0.00    -0.266 OA
ENDBRANCH   2  42
TORSDOF 12
ENDMDL
MODEL 4
REMARK VINA RESULT: -7.692834712      1.678      3.012
REMARK  12 active torsions:
REMARK  status: ('A' for Active; 'I' for Inactive)
REMARK    1  A    between atoms: C2_2  and  N1_3 
REMARK    2  A    between atoms: N1_3  and  C3_4 
REMARK    3  A    between atoms: N1_3  and  S2_36 
REMARK    4  A    between atoms: C6_7  and  C7_8 
REMARK    5  A    between atoms: C8_9  and  C9_10 
REMARK    6  A    between atoms: C8_9  and  C17_25 
REMARK    7  A    between atoms: C9_10  and  S1_11 
REMARK    8  A    between atoms: S1_11  and  C10_12 
REMARK    9  A    between atoms: N5_18  and  C11_19 
REMARK   10  A    between atoms: S2_36  and  C23_39 
REMARK   11  A    between atoms: C25_43  and  S3_44 
REMARK   12  A    between atoms: S3_44  and  N9_45 
ROOT
HETATM    1  C7  UNL     1     -14.067 -12.306 -20.801  1.00  0.00     0.020 C 
HETATM    2  C8  UNL     1     -12.958 -11.832 -21.220  1.00  0.00    -0.030 C 
ENDROOT
BRANCH   1   3
HETATM    3  C6  UNL     1     -14.352 -12.944 -19.555  1.00  0.00    -0.035 A 
HETATM    4  C5  UNL     1     -14.110 -14.314 -19.399  1.00  0.00     0.013 A 
HETATM    5  C4  UNL     1     -14.322 -14.874 -18.167  1.00  0.00     0.031 A 
HETATM    6  C3  UNL     1     -14.756 -14.177 -17.075  1.00  0.00     0.045 A 
HETATM    7  C22 UNL     1     -14.988 -12.830 -17.252  1.00  0.00     0.031 A 
HETATM    8  C21 UNL     1     -14.800 -12.194 -18.453  1.00  0.00     0.013 A 
BRANCH   6   9
HETATM    9  N1  UNL     1     -14.962 -14.786 -15.821  1.00  0.00    -0.272 N 
BRANCH   9  10
HETATM   10  C2  UNL     1     -15.700 -16.033 -15.789  1.00  0.00     0.137 C 
HETATM   11  C1  UNL     1     -17.176 -15.806 -16.044  1.00  0.00     0.028 C 
ENDBRANCH   9  10
BRANCH   9  12
HETATM   12  S2  UNL     1     -14.356 -14.061 -14.406  1.00  0.00     0.273 S 
HETATM   13  O2  UNL     1     -14.670 -14.905 -13.184  1.00  0.00    -0.199 OA
HETATM   14  O3  UNL     1     -15.055 -12.730 -14.197  1.00  0.00    -0.199 OA
BRANCH  12  15
HETATM   15  C23 UNL     1     -12.623 -13.810 -14.469  1.00  0.00     0.138 A 
HETATM   16  C24 UNL     1     -11.806 -13.326 -13.480  1.00  0.00     0.122 A 
HETATM   17  N8  UNL     1     -10.543 -13.219 -13.743  1.00  0.00    -0.348 N 
HETATM   18  C25 UNL     1     -10.073 -13.566 -14.919  1.00  0.00     0.192 A 
ATOM     19  H8  UNL     1      -9.906 -12.863 -13.029  1.00  0.00     0.166 HD
HETATM   20  S4  UNL     1     -11.505 -14.083 -15.730  1.00  0.00    -0.044 SA
BRANCH  18  21
HETATM   21  S3  UNL     1      -8.411 -13.522 -15.528  1.00  0.00     0.279 S 
HETATM   22  O4  UNL     1      -8.532 -13.706 -17.029  1.00  0.00    -0.199 OA
HETATM   23  O5  UNL     1      -7.630 -14.600 -14.886  1.00  0.00    -0.199 OA
BRANCH  21  24
HETATM   24  N9  UNL     1      -7.671 -12.015 -15.265  1.00  0.00    -0.323 N 
ATOM     25  H92 UNL     1      -7.974 -11.158 -15.727  1.00  0.00     0.169 HD
ATOM     26  H91 UNL     1      -6.900 -12.075 -14.599  1.00  0.00     0.169 HD
ENDBRANCH  21  24
ENDBRANCH  18  21
ENDBRANCH  12  15
ENDBRANCH   9  12
ENDBRANCH   6   9
ENDBRANCH   1   3
BRANCH   2  27
HETATM   27  C9  UNL     1     -13.004 -11.227 -22.625  1.00  0.00     0.122 C 
BRANCH  27  28
HETATM   28  S1  UNL     1     -14.605 -11.605 -23.362  1.00  0.00    -0.086 SA
BRANCH  28  29
HETATM   29  C10 UNL     1     -14.365 -12.931 -24.556  1.00  0.00     0.180 A 
HETATM   30  N2  UNL     1     -14.576 -14.225 -24.359  1.00  0.00    -0.261 N 
HETATM   31  N3  UNL     1     -14.291 -14.869 -25.476  1.00  0.00    -0.004 NA
ATOM     32  H2  UNL     1     -14.904 -14.651 -23.493  1.00  0.00     0.186 HD
HETATM   33  N4  UNL     1     -13.904 -13.956 -26.353  1.00  0.00    -0.217 N 
HETATM   34  N5  UNL     1     -13.944 -12.760 -25.807  1.00  0.00    -0.220 N 
ATOM     35  H4  UNL     1     -13.618 -14.152 -27.313  1.00  0.00     0.206 HD
BRANCH  34  36
HETATM   36  C11 UNL     1     -13.603 -11.547 -26.457  1.00  0.00     0.060 A 
HETATM   37  C12 UNL     1     -14.509 -11.001 -27.343  1.00  0.00     0.031 A 
HETATM   38  C13 UNL     1     -14.245  -9.834 -28.005  1.00  0.00     0.002 A 
HETATM   39  C14 UNL     1     -13.056  -9.134 -27.828  1.00  0.00     0.000 A 
HETATM   40  C15 UNL     1     -12.156  -9.697 -26.934  1.00  0.00     0.002 A 
HETATM   41  C16 UNL     1     -12.421 -10.880 -26.260  1.00  0.00     0.031 A 
ENDBRANCH  34  36
ENDBRANCH  28  29
ENDBRANCH  27  28
ENDBRANCH   2  27
BRANCH   2  42
HETATM   42  C17 UNL     1     -11.739 -11.641 -20.465  1.00  0.00     0.064 A 
HETATM   43  C18 UNL     1     -11.364 -10.473 -19.786  1.00  0.00     0.038 A 
HETATM   44  C19 UNL     1     -12.040  -9.163 -19.851  1.00  0.00     0.071 C 
HETATM   45  N6  UNL     1     -10.261 -10.720 -19.085  1.00  0.00    -0.301 N 
HETATM   46  N7  UNL     1      -9.917 -11.952 -19.273  1.00  0.00    -0.266 N 
ATOM     47  H6  UNL     1      -9.768 -10.049 -18.497  1.00  0.00     0.186 HD
HETATM   48  C20 UNL     1     -10.787 -12.563 -20.108  1.00  0.00     0.272 A 
ATOM     49  H7  UNL     1      -9.104 -12.400 -18.850  1.00  0.00     0.190 HD
HETATM   50  O1  UNL     1     -10.626 -13.772 -20.410  1.00  0.00    -0.266 OA
ENDBRANCH   2  42
TORSDOF 12
ENDMDL
MODEL 5
REMARK VINA RESULT: -7.686435062      1.136      1.480
REMARK  12 active torsions:
REMARK  status: ('A' for Active; 'I' for Inactive)
REMARK    1  A    between atoms: C2_2  and  N1_3 
REMARK    2  A    between atoms: N1_3  and  C3_4 
REMARK    3  A    between atoms: N1_3  and  S2_36 
REMARK    4  A    between atoms: C6_7  and  C7_8 
REMARK    5  A    between atoms: C8_9  and  C9_10 
REMARK    6  A    between atoms: C8_9  and  C17_25 
REMARK    7  A    between atoms: C9_10  and  S1_11 
REMARK    8  A    between atoms: S1_11  and  C10_12 
REMARK    9  A    between atoms: N5_18  and  C11_19 
REMARK   10  A    between atoms: S2_36  and  C23_39 
REMARK   11  A    between atoms: C25_43  and  S3_44 
REMARK   12  A    between atoms: S3_44  and  N9_45 
ROOT
HETATM    1  C7  UNL     1     -13.956 -11.583 -20.527  1.00  0.00     0.020 C 
HETATM    2  C8  UNL     1     -12.769 -11.290 -20.898  1.00  0.00    -0.030 C 
ENDROOT
BRANCH   1   3
HETATM    3  C6  UNL     1     -14.420 -11.944 -19.225  1.00  0.00    -0.035 A 
HETATM    4  C5  UNL     1     -14.845 -13.254 -18.972  1.00  0.00     0.013 A 
HETATM    5  C4  UNL     1     -15.209 -13.582 -17.694  1.00  0.00     0.031 A 
HETATM    6  C3  UNL     1     -15.185 -12.709 -16.644  1.00  0.00     0.045 A 
HETATM    7  C22 UNL     1     -14.764 -11.425 -16.915  1.00  0.00     0.031 A 
HETATM    8  C21 UNL     1     -14.382 -11.017 -18.168  1.00  0.00     0.013 A 
BRANCH   6   9
HETATM    9  N1  UNL     1     -15.566 -13.082 -15.340  1.00  0.00    -0.272 N 
BRANCH   9  10
HETATM   10  C2  UNL     1     -16.804 -12.539 -14.817  1.00  0.00     0.137 C 
HETATM   11  C1  UNL     1     -17.967 -12.829 -15.743  1.00  0.00     0.028 C 
ENDBRANCH   9  10
BRANCH   9  12
HETATM   12  S2  UNL     1     -14.588 -14.135 -14.429  1.00  0.00     0.273 S 
HETATM   13  O2  UNL     1     -15.086 -15.566 -14.531  1.00  0.00    -0.199 OA
HETATM   14  O3  UNL     1     -14.686 -13.752 -12.963  1.00  0.00    -0.199 OA
BRANCH  12  15
HETATM   15  C23 UNL     1     -12.910 -14.100 -14.934  1.00  0.00     0.138 A 
HETATM   16  C24 UNL     1     -12.332 -14.777 -15.976  1.00  0.00     0.122 A 
HETATM   17  N8  UNL     1     -11.064 -14.606 -16.174  1.00  0.00    -0.348 N 
HETATM   18  C25 UNL     1     -10.368 -13.808 -15.397  1.00  0.00     0.192 A 
ATOM     19  H8  UNL     1     -10.601 -15.095 -16.940  1.00  0.00     0.166 HD
HETATM   20  S4  UNL     1     -11.575 -13.249 -14.298  1.00  0.00    -0.044 SA
BRANCH  18  21
HETATM   21  S3  UNL     1      -8.645 -13.402 -15.449  1.00  0.00     0.279 S 
HETATM   22  O4  UNL     1      -8.571 -12.077 -16.186  1.00  0.00    -0.199 OA
HETATM   23  O5  UNL     1      -7.913 -14.480 -16.147  1.00  0.00    -0.199 OA
BRANCH  21  24
HETATM   24  N9  UNL     1      -7.998 -13.151 -13.898  1.00  0.00    -0.323 N 
ATOM     25  H92 UNL     1      -8.576 -12.998 -13.072  1.00  0.00     0.169 HD
ATOM     26  H91 UNL     1      -6.978 -13.174 -13.898  1.00  0.00     0.169 HD
ENDBRANCH  21  24
ENDBRANCH  18  21
ENDBRANCH  12  15
ENDBRANCH   9  12
ENDBRANCH   6   9
ENDBRANCH   1   3
BRANCH   2  27
HETATM   27  C9  UNL     1     -12.621 -10.964 -22.386  1.00  0.00     0.122 C 
BRANCH  27  28
HETATM   28  S1  UNL     1     -14.246 -11.056 -23.160  1.00  0.00    -0.086 SA
BRANCH  28  29
HETATM   29  C10 UNL     1     -14.102 -12.091 -24.625  1.00  0.00     0.180 A 
HETATM   30  N2  UNL     1     -14.070 -11.684 -25.887  1.00  0.00    -0.261 N 
HETATM   31  N3  UNL     1     -13.951 -12.744 -26.666  1.00  0.00    -0.004 NA
ATOM     32  H2  UNL     1     -14.129 -10.716 -26.202  1.00  0.00     0.186 HD
HETATM   33  N4  UNL     1     -13.909 -13.799 -25.868  1.00  0.00    -0.217 N 
HETATM   34  N5  UNL     1     -14.000 -13.419 -24.611  1.00  0.00    -0.220 N 
ATOM     35  H4  UNL     1     -13.820 -14.766 -26.181  1.00  0.00     0.206 HD
BRANCH  34  36
HETATM   36  C11 UNL     1     -13.983 -14.282 -23.487  1.00  0.00     0.060 A 
HETATM   37  C12 UNL     1     -15.189 -14.713 -22.973  1.00  0.00     0.031 A 
HETATM   38  C13 UNL     1     -15.246 -15.545 -21.889  1.00  0.00     0.002 A 
HETATM   39  C14 UNL     1     -14.101 -16.001 -21.243  1.00  0.00     0.000 A 
HETATM   40  C15 UNL     1     -12.897 -15.557 -21.772  1.00  0.00     0.002 A 
HETATM   41  C16 UNL     1     -12.836 -14.714 -22.872  1.00  0.00     0.031 A 
ENDBRANCH  34  36
ENDBRANCH  28  29
ENDBRANCH  27  28
ENDBRANCH   2  27
BRANCH   2  42
HETATM   42  C17 UNL     1     -11.615 -11.057 -20.059  1.00  0.00     0.064 A 
HETATM   43  C18 UNL     1     -10.762 -12.040 -19.538  1.00  0.00     0.038 A 
HETATM   44  C19 UNL     1     -10.968 -13.500 -19.590  1.00  0.00     0.071 C 
HETATM   45  N6  UNL     1      -9.731 -11.443 -18.946  1.00  0.00    -0.301 N 
HETATM   46  N7  UNL     1      -9.873 -10.163 -19.056  1.00  0.00    -0.266 N 
ATOM     47  H6  UNL     1      -8.957 -11.918 -18.482  1.00  0.00     0.186 HD
HETATM   48  C20 UNL     1     -11.008  -9.871 -19.728  1.00  0.00     0.272 A 
ATOM     49  H7  UNL     1      -9.220  -9.472 -18.687  1.00  0.00     0.190 HD
HETATM   50  O1  UNL     1     -11.320  -8.672 -19.944  1.00  0.00    -0.266 OA
ENDBRANCH   2  42
TORSDOF 12
ENDMDL
