MODEL 1
REMARK VINA RESULT: -7.273859928      0.000      0.000
REMARK  9 active torsions:
REMARK  status: ('A' for Active; 'I' for Inactive)
REMARK    1  A    between atoms: C2_2  and  C3_3 
REMARK    2  A    between atoms: C3_3  and  C4_4 
REMARK    3  A    between atoms: C4_4  and  C5_5 
REMARK    4  A    between atoms: C5_5  and  C6_6 
REMARK    5  A    between atoms: C6_6  and  C7_7 
REMARK    6  A    between atoms: C7_7  and  C8_8 
REMARK    7  A    between atoms: C8_8  and  N1_9 
REMARK       I    between atoms: N1_9  and  C9_11 
REMARK       I    between atoms: C9_11  and  N3_29 
REMARK    8  A    between atoms: N2_12  and  C10_14 
REMARK    9  A    between atoms: C14_19  and  O2_20 
ROOT
HETATM    1  N1  UNL     1      46.423  16.150   2.423  1.00  0.00    -0.226 N 
ATOM      2  H1  UNL     1      46.361  17.023   1.899  1.00  0.00     0.177 HD
HETATM    3  C9  UNL     1      47.321  16.088   3.512  1.00  0.00     0.683 C 
HETATM    4  N2  UNL     1      48.218  16.923   3.677  1.00  0.00    -0.221 N 
ATOM      5  H2  UNL     1      48.791  16.754   4.504  1.00  0.00     0.178 HD
HETATM    6  N3  UNL     1      47.174  15.023   4.439  1.00  0.00    -0.126 N 
ATOM      7  H3  UNL     1      47.759  14.196   4.316  1.00  0.00     0.197 HD
HETATM    8  C23 UNL     1      46.283  15.038   5.501  1.00  0.00     0.196 C 
HETATM    9  N4  UNL     1      45.528  15.036   6.377  1.00  0.00    -0.171 NA
ENDROOT
BRANCH   1  10
HETATM   10  C8  UNL     1      45.593  15.052   2.013  1.00  0.00     0.138 C 
BRANCH  10  11
HETATM   11  C7  UNL     1      46.325  13.989   1.236  1.00  0.00     0.020 C 
BRANCH  11  12
HETATM   12  C6  UNL     1      46.151  12.638   1.885  1.00  0.00     0.002 C 
BRANCH  12  13
HETATM   13  C5  UNL     1      47.468  12.117   2.402  1.00  0.00     0.000 C 
BRANCH  13  14
HETATM   14  C4  UNL     1      47.448  10.598   2.420  1.00  0.00     0.000 C 
BRANCH  14  15
HETATM   15  C3  UNL     1      46.972  10.136   3.770  1.00  0.00    -0.000 C 
BRANCH  15  16
HETATM   16  C2  UNL     1      47.538   8.750   4.012  1.00  0.00    -0.005 C 
HETATM   17  C1  UNL     1      47.198   8.257   5.397  1.00  0.00     0.005 C 
ENDBRANCH  15  16
ENDBRANCH  14  15
ENDBRANCH  13  14
ENDBRANCH  12  13
ENDBRANCH  11  12
ENDBRANCH  10  11
ENDBRANCH   1  10
BRANCH   4  18
HETATM   18  C10 UNL     1      48.609  18.089   2.926  1.00  0.00     0.106 C 
HETATM   19  C11 UNL     1      49.229  18.972   4.023  1.00  0.00     0.052 C 
HETATM   20  C12 UNL     1      49.592  20.332   3.587  1.00  0.00     0.170 C 
HETATM   21  O1  UNL     1      50.493  20.343   2.542  1.00  0.00    -0.383 OA
HETATM   22  C13 UNL     1      51.398  19.338   2.715  1.00  0.00     0.155 C 
HETATM   23  C14 UNL     1      52.709  19.663   2.020  1.00  0.00     0.150 C 
HETATM   24  C22 UNL     1      51.033  18.017   2.220  1.00  0.00     0.028 C 
HETATM   25  C16 UNL     1      52.995  18.531   1.063  1.00  0.00     0.039 C 
HETATM   26  C17 UNL     1      51.696  17.797   0.876  1.00  0.00    -0.005 C 
HETATM   27  C18 UNL     1      50.755  18.480  -0.073  1.00  0.00     0.010 C 
HETATM   28  C19 UNL     1      49.341  18.242   0.486  1.00  0.00    -0.012 C 
HETATM   29  C20 UNL     1      48.563  19.462   0.236  1.00  0.00     0.010 C 
HETATM   30  C21 UNL     1      49.588  17.766   1.850  1.00  0.00     0.019 C 
BRANCH  23  31
HETATM   31  O2  UNL     1      53.787  19.730   2.897  1.00  0.00    -0.388 OA
HETATM   32  C15 UNL     1      55.011  19.672   2.269  1.00  0.00     0.202 C 
ENDBRANCH  23  31
ENDBRANCH   4  18
TORSDOF 9
ENDMDL
MODEL 2
REMARK VINA RESULT: -7.071442941      1.440      2.139
REMARK  9 active torsions:
REMARK  status: ('A' for Active; 'I' for Inactive)
REMARK    1  A    between atoms: C2_2  and  C3_3 
REMARK    2  A    between atoms: C3_3  and  C4_4 
REMARK    3  A    between atoms: C4_4  and  C5_5 
REMARK    4  A    between atoms: C5_5  and  C6_6 
REMARK    5  A    between atoms: C6_6  and  C7_7 
REMARK    6  A    between atoms: C7_7  and  C8_8 
REMARK    7  A    between atoms: C8_8  and  N1_9 
REMARK       I    between atoms: N1_9  and  C9_11 
REMARK       I    between atoms: C9_11  and  N3_29 
REMARK    8  A    between atoms: N2_12  and  C10_14 
REMARK    9  A    between atoms: C14_19  and  O2_20 
ROOT
HETATM    1  N1  UNL     1      46.259  16.391   2.470  1.00  0.00    -0.226 N 
ATOM      2  H1  UNL     1      46.240  17.311   2.030  1.00  0.00     0.177 HD
HETATM    3  C9  UNL     1      47.221  16.154   3.477  1.00  0.00     0.683 C 
HETATM    4  N2  UNL     1      48.197  16.892   3.645  1.00  0.00    -0.221 N 
ATOM      5  H2  UNL     1      48.808  16.600   4.408  1.00  0.00     0.178 HD
HETATM    6  N3  UNL     1      47.042  15.023   4.317  1.00  0.00    -0.126 N 
ATOM      7  H3  UNL     1      47.541  14.166   4.078  1.00  0.00     0.197 HD
HETATM    8  C23 UNL     1      46.232  15.013   5.441  1.00  0.00     0.196 C 
HETATM    9  N4  UNL     1      45.541  14.992   6.369  1.00  0.00    -0.171 NA
ENDROOT
BRANCH   1  10
HETATM   10  C8  UNL     1      45.308  15.409   2.031  1.00  0.00     0.138 C 
BRANCH  10  11
HETATM   11  C7  UNL     1      45.885  14.371   1.102  1.00  0.00     0.020 C 
BRANCH  11  12
HETATM   12  C6  UNL     1      45.688  12.985   1.663  1.00  0.00     0.002 C 
BRANCH  12  13
HETATM   13  C5  UNL     1      46.752  12.044   1.157  1.00  0.00     0.000 C 
BRANCH  13  14
HETATM   14  C4  UNL     1      48.040  12.260   1.933  1.00  0.00     0.000 C 
BRANCH  14  15
HETATM   15  C3  UNL     1      49.119  12.682   0.973  1.00  0.00    -0.000 C 
BRANCH  15  16
HETATM   16  C2  UNL     1      49.677  14.006   1.457  1.00  0.00    -0.005 C 
HETATM   17  C1  UNL     1      51.151  14.120   1.152  1.00  0.00     0.005 C 
ENDBRANCH  15  16
ENDBRANCH  14  15
ENDBRANCH  13  14
ENDBRANCH  12  13
ENDBRANCH  11  12
ENDBRANCH  10  11
ENDBRANCH   1  10
BRANCH   4  18
HETATM   18  C10 UNL     1      48.639  18.087   2.970  1.00  0.00     0.106 C 
HETATM   19  C11 UNL     1      49.340  18.846   4.110  1.00  0.00     0.052 C 
HETATM   20  C12 UNL     1      49.774  20.212   3.765  1.00  0.00     0.170 C 
HETATM   21  O1  UNL     1      50.646  20.249   2.695  1.00  0.00    -0.383 OA
HETATM   22  C13 UNL     1      51.492  19.182   2.766  1.00  0.00     0.155 C 
HETATM   23  C14 UNL     1      52.802  19.481   2.057  1.00  0.00     0.150 C 
HETATM   24  C22 UNL     1      51.034  17.926   2.186  1.00  0.00     0.028 C 
HETATM   25  C16 UNL     1      52.993  18.410   1.010  1.00  0.00     0.039 C 
HETATM   26  C17 UNL     1      51.646  17.770   0.810  1.00  0.00    -0.005 C 
HETATM   27  C18 UNL     1      50.724  18.576  -0.056  1.00  0.00     0.010 C 
HETATM   28  C19 UNL     1      49.314  18.380   0.527  1.00  0.00    -0.012 C 
HETATM   29  C20 UNL     1      48.605  19.660   0.392  1.00  0.00     0.010 C 
HETATM   30  C21 UNL     1      49.567  17.790   1.844  1.00  0.00     0.019 C 
BRANCH  23  31
HETATM   31  O2  UNL     1      53.905  19.418   2.902  1.00  0.00    -0.388 OA
HETATM   32  C15 UNL     1      55.099  19.669   2.266  1.00  0.00     0.202 C 
ENDBRANCH  23  31
ENDBRANCH   4  18
TORSDOF 9
ENDMDL
MODEL 3
REMARK VINA RESULT: -7.043918045      2.860      4.790
REMARK  9 active torsions:
REMARK  status: ('A' for Active; 'I' for Inactive)
REMARK    1  A    between atoms: C2_2  and  C3_3 
REMARK    2  A    between atoms: C3_3  and  C4_4 
REMARK    3  A    between atoms: C4_4  and  C5_5 
REMARK    4  A    between atoms: C5_5  and  C6_6 
REMARK    5  A    between atoms: C6_6  and  C7_7 
REMARK    6  A    between atoms: C7_7  and  C8_8 
REMARK    7  A    between atoms: C8_8  and  N1_9 
REMARK       I    between atoms: N1_9  and  C9_11 
REMARK       I    between atoms: C9_11  and  N3_29 
REMARK    8  A    between atoms: N2_12  and  C10_14 
REMARK    9  A    between atoms: C14_19  and  O2_20 
ROOT
HETATM    1  N1  UNL     1      45.700  13.904  -1.205  1.00  0.00    -0.226 N 
ATOM      2  H1  UNL     1      46.718  13.840  -1.173  1.00  0.00     0.177 HD
HETATM    3  C9  UNL     1      45.087  15.056  -0.664  1.00  0.00     0.683 C 
HETATM    4  N2  UNL     1      45.689  15.835   0.083  1.00  0.00    -0.221 N 
ATOM      5  H2  UNL     1      45.122  16.623   0.399  1.00  0.00     0.178 HD
HETATM    6  N3  UNL     1      43.731  15.310  -0.999  1.00  0.00    -0.126 N 
ATOM      7  H3  UNL     1      43.010  15.003  -0.347  1.00  0.00     0.197 HD
HETATM    8  C23 UNL     1      43.328  15.950  -2.161  1.00  0.00     0.196 C 
HETATM    9  N4  UNL     1      42.984  16.466  -3.138  1.00  0.00    -0.171 NA
ENDROOT
BRANCH   1  10
HETATM   10  C8  UNL     1      44.971  12.818  -1.798  1.00  0.00     0.138 C 
BRANCH  10  11
HETATM   11  C7  UNL     1      45.478  11.454  -1.406  1.00  0.00     0.020 C 
BRANCH  11  12
HETATM   12  C6  UNL     1      46.469  11.559  -0.273  1.00  0.00     0.002 C 
BRANCH  12  13
HETATM   13  C5  UNL     1      45.985  10.803   0.937  1.00  0.00     0.000 C 
BRANCH  13  14
HETATM   14  C4  UNL     1      45.690  11.775   2.067  1.00  0.00     0.000 C 
BRANCH  14  15
HETATM   15  C3  UNL     1      46.586  11.451   3.231  1.00  0.00    -0.000 C 
BRANCH  15  16
HETATM   16  C2  UNL     1      47.341  10.180   2.895  1.00  0.00    -0.005 C 
HETATM   17  C1  UNL     1      47.358   9.229   4.068  1.00  0.00     0.005 C 
ENDBRANCH  15  16
ENDBRANCH  14  15
ENDBRANCH  13  14
ENDBRANCH  12  13
ENDBRANCH  11  12
ENDBRANCH  10  11
ENDBRANCH   1  10
BRANCH   4  18
HETATM   18  C10 UNL     1      47.037  15.846   0.592  1.00  0.00     0.106 C 
HETATM   19  C11 UNL     1      47.527  17.234   0.146  1.00  0.00     0.052 C 
HETATM   20  C12 UNL     1      48.958  17.490   0.389  1.00  0.00     0.170 C 
HETATM   21  O1  UNL     1      49.310  17.377   1.719  1.00  0.00    -0.383 OA
HETATM   22  C13 UNL     1      48.310  17.882   2.495  1.00  0.00     0.155 C 
HETATM   23  C14 UNL     1      48.849  18.364   3.830  1.00  0.00     0.150 C 
HETATM   24  C22 UNL     1      47.214  16.986   2.840  1.00  0.00     0.028 C 
HETATM   25  C16 UNL     1      48.085  17.633   4.907  1.00  0.00     0.039 C 
HETATM   26  C17 UNL     1      47.440  16.450   4.238  1.00  0.00    -0.005 C 
HETATM   27  C18 UNL     1      48.383  15.307   4.005  1.00  0.00     0.010 C 
HETATM   28  C19 UNL     1      47.968  14.679   2.663  1.00  0.00    -0.012 C 
HETATM   29  C20 UNL     1      49.198  14.257   1.980  1.00  0.00     0.010 C 
HETATM   30  C21 UNL     1      47.083  15.688   2.073  1.00  0.00     0.019 C 
BRANCH  23  31
HETATM   31  O2  UNL     1      48.641  19.723   4.042  1.00  0.00    -0.388 OA
HETATM   32  C15 UNL     1      49.494  20.529   3.322  1.00  0.00     0.202 C 
ENDBRANCH  23  31
ENDBRANCH   4  18
TORSDOF 9
ENDMDL
MODEL 4
REMARK VINA RESULT: -7.027553492      2.280      2.690
REMARK  9 active torsions:
REMARK  status: ('A' for Active; 'I' for Inactive)
REMARK    1  A    between atoms: C2_2  and  C3_3 
REMARK    2  A    between atoms: C3_3  and  C4_4 
REMARK    3  A    between atoms: C4_4  and  C5_5 
REMARK    4  A    between atoms: C5_5  and  C6_6 
REMARK    5  A    between atoms: C6_6  and  C7_7 
REMARK    6  A    between atoms: C7_7  and  C8_8 
REMARK    7  A    between atoms: C8_8  and  N1_9 
REMARK       I    between atoms: N1_9  and  C9_11 
REMARK       I    between atoms: C9_11  and  N3_29 
REMARK    8  A    between atoms: N2_12  and  C10_14 
REMARK    9  A    between atoms: C14_19  and  O2_20 
ROOT
HETATM    1  N1  UNL     1      46.340  16.449   2.490  1.00  0.00    -0.226 N 
ATOM      2  H1  UNL     1      46.315  17.371   2.054  1.00  0.00     0.177 HD
HETATM    3  C9  UNL     1      47.276  16.225   3.525  1.00  0.00     0.683 C 
HETATM    4  N2  UNL     1      48.232  16.982   3.725  1.00  0.00    -0.221 N 
ATOM      5  H2  UNL     1      48.826  16.698   4.504  1.00  0.00     0.178 HD
HETATM    6  N3  UNL     1      47.095  15.087   4.353  1.00  0.00    -0.126 N 
ATOM      7  H3  UNL     1      47.617  14.241   4.126  1.00  0.00     0.197 HD
HETATM    8  C23 UNL     1      46.251  15.055   5.453  1.00  0.00     0.196 C 
HETATM    9  N4  UNL     1      45.534  15.016   6.360  1.00  0.00    -0.171 NA
ENDROOT
BRANCH   1  10
HETATM   10  C8  UNL     1      45.422  15.450   2.018  1.00  0.00     0.138 C 
BRANCH  10  11
HETATM   11  C7  UNL     1      45.258  15.429   0.520  1.00  0.00     0.020 C 
BRANCH  11  12
HETATM   12  C6  UNL     1      46.434  16.092  -0.154  1.00  0.00     0.002 C 
BRANCH  12  13
HETATM   13  C5  UNL     1      47.270  15.080  -0.895  1.00  0.00     0.000 C 
BRANCH  13  14
HETATM   14  C4  UNL     1      48.670  15.041  -0.307  1.00  0.00     0.000 C 
BRANCH  14  15
HETATM   15  C3  UNL     1      48.702  14.023   0.801  1.00  0.00    -0.000 C 
BRANCH  15  16
HETATM   16  C2  UNL     1      49.902  14.327   1.676  1.00  0.00    -0.005 C 
HETATM   17  C1  UNL     1      51.191  14.160   0.910  1.00  0.00     0.005 C 
ENDBRANCH  15  16
ENDBRANCH  14  15
ENDBRANCH  13  14
ENDBRANCH  12  13
ENDBRANCH  11  12
ENDBRANCH  10  11
ENDBRANCH   1  10
BRANCH   4  18
HETATM   18  C10 UNL     1      48.670  18.189   3.069  1.00  0.00     0.106 C 
HETATM   19  C11 UNL     1      49.444  18.892   4.197  1.00  0.00     0.052 C 
HETATM   20  C12 UNL     1      49.894  20.258   3.876  1.00  0.00     0.170 C 
HETATM   21  O1  UNL     1      50.714  20.312   2.768  1.00  0.00    -0.383 OA
HETATM   22  C13 UNL     1      51.536  19.224   2.761  1.00  0.00     0.155 C 
HETATM   23  C14 UNL     1      52.817  19.516   1.999  1.00  0.00     0.150 C 
HETATM   24  C22 UNL     1      51.020  18.000   2.164  1.00  0.00     0.028 C 
HETATM   25  C16 UNL     1      52.931  18.478   0.910  1.00  0.00     0.039 C 
HETATM   26  C17 UNL     1      51.561  17.876   0.754  1.00  0.00    -0.005 C 
HETATM   27  C18 UNL     1      50.618  18.733  -0.038  1.00  0.00     0.010 C 
HETATM   28  C19 UNL     1      49.233  18.549   0.606  1.00  0.00    -0.012 C 
HETATM   29  C20 UNL     1      48.551  19.849   0.549  1.00  0.00     0.010 C 
HETATM   30  C21 UNL     1      49.535  17.908   1.889  1.00  0.00     0.019 C 
BRANCH  23  31
HETATM   31  O2  UNL     1      53.958  19.399   2.787  1.00  0.00    -0.388 OA
HETATM   32  C15 UNL     1      55.130  19.539   2.079  1.00  0.00     0.202 C 
ENDBRANCH  23  31
ENDBRANCH   4  18
TORSDOF 9
ENDMDL
MODEL 5
REMARK VINA RESULT: -6.949828206      2.417      4.307
REMARK  9 active torsions:
REMARK  status: ('A' for Active; 'I' for Inactive)
REMARK    1  A    between atoms: C2_2  and  C3_3 
REMARK    2  A    between atoms: C3_3  and  C4_4 
REMARK    3  A    between atoms: C4_4  and  C5_5 
REMARK    4  A    between atoms: C5_5  and  C6_6 
REMARK    5  A    between atoms: C6_6  and  C7_7 
REMARK    6  A    between atoms: C7_7  and  C8_8 
REMARK    7  A    between atoms: C8_8  and  N1_9 
REMARK       I    between atoms: N1_9  and  C9_11 
REMARK       I    between atoms: C9_11  and  N3_29 
REMARK    8  A    between atoms: N2_12  and  C10_14 
REMARK    9  A    between atoms: C14_19  and  O2_20 
ROOT
HETATM    1  N1  UNL     1      46.393  16.348   2.470  1.00  0.00    -0.226 N 
ATOM      2  H1  UNL     1      46.365  17.258   2.011  1.00  0.00     0.177 HD
HETATM    3  C9  UNL     1      47.321  16.157   3.518  1.00  0.00     0.683 C 
HETATM    4  N2  UNL     1      48.269  16.926   3.709  1.00  0.00    -0.221 N 
ATOM      5  H2  UNL     1      48.857  16.666   4.500  1.00  0.00     0.178 HD
HETATM    6  N3  UNL     1      47.141  15.037   4.372  1.00  0.00    -0.126 N 
ATOM      7  H3  UNL     1      47.673  14.190   4.170  1.00  0.00     0.197 HD
HETATM    8  C23 UNL     1      46.288  15.025   5.465  1.00  0.00     0.196 C 
HETATM    9  N4  UNL     1      45.562  15.002   6.365  1.00  0.00    -0.171 NA
ENDROOT
BRANCH   1  10
HETATM   10  C8  UNL     1      45.488  15.330   2.014  1.00  0.00     0.138 C 
BRANCH  10  11
HETATM   11  C7  UNL     1      45.071  15.482   0.573  1.00  0.00     0.020 C 
BRANCH  11  12
HETATM   12  C6  UNL     1      46.273  15.725  -0.306  1.00  0.00     0.002 C 
BRANCH  12  13
HETATM   13  C5  UNL     1      46.042  16.902  -1.219  1.00  0.00     0.000 C 
BRANCH  13  14
HETATM   14  C4  UNL     1      45.108  17.895  -0.551  1.00  0.00     0.000 C 
BRANCH  14  15
HETATM   15  C3  UNL     1      45.389  19.268  -1.098  1.00  0.00    -0.000 C 
BRANCH  15  16
HETATM   16  C2  UNL     1      45.152  20.269   0.016  1.00  0.00    -0.005 C 
HETATM   17  C1  UNL     1      45.143  19.591   1.364  1.00  0.00     0.005 C 
ENDBRANCH  15  16
ENDBRANCH  14  15
ENDBRANCH  13  14
ENDBRANCH  12  13
ENDBRANCH  11  12
ENDBRANCH  10  11
ENDBRANCH   1  10
BRANCH   4  18
HETATM   18  C10 UNL     1      48.703  18.121   3.028  1.00  0.00     0.106 C 
HETATM   19  C11 UNL     1      49.387  18.896   4.166  1.00  0.00     0.052 C 
HETATM   20  C12 UNL     1      49.810  20.263   3.814  1.00  0.00     0.170 C 
HETATM   21  O1  UNL     1      50.689  20.301   2.751  1.00  0.00    -0.383 OA
HETATM   22  C13 UNL     1      51.546  19.244   2.836  1.00  0.00     0.155 C 
HETATM   23  C14 UNL     1      52.858  19.551   2.134  1.00  0.00     0.150 C 
HETATM   24  C22 UNL     1      51.106  17.979   2.263  1.00  0.00     0.028 C 
HETATM   25  C16 UNL     1      53.068  18.474   1.098  1.00  0.00     0.039 C 
HETATM   26  C17 UNL     1      51.730  17.818   0.892  1.00  0.00    -0.005 C 
HETATM   27  C18 UNL     1      50.806  18.608   0.013  1.00  0.00     0.010 C 
HETATM   28  C19 UNL     1      49.393  18.401   0.587  1.00  0.00    -0.012 C 
HETATM   29  C20 UNL     1      48.672  19.672   0.437  1.00  0.00     0.010 C 
HETATM   30  C21 UNL     1      49.643  17.824   1.911  1.00  0.00     0.019 C 
BRANCH  23  31
HETATM   31  O2  UNL     1      53.955  19.506   2.988  1.00  0.00    -0.388 OA
HETATM   32  C15 UNL     1      55.154  19.747   2.355  1.00  0.00     0.202 C 
ENDBRANCH  23  31
ENDBRANCH   4  18
TORSDOF 9
ENDMDL
