MODEL 1
REMARK VINA RESULT: -8.504149637      0.000      0.000
REMARK  10 active torsions:
REMARK  status: ('A' for Active; 'I' for Inactive)
REMARK    1  A    between atoms: C2_2  and  C3_3 
REMARK    2  A    between atoms: C3_3  and  C4_4 
REMARK    3  A    between atoms: C4_4  and  C5_5 
REMARK    4  A    between atoms: C5_5  and  C6_6 
REMARK    5  A    between atoms: C6_6  and  N1_7 
REMARK       I    between atoms: N1_7  and  C7_9 
REMARK    6  A    between atoms: C7_9  and  C8_11 
REMARK    7  A    between atoms: C17_22  and  N3_23 
REMARK       I    between atoms: N3_23  and  C18_25 
REMARK    8  A    between atoms: C18_25  and  C19_27 
REMARK    9  A    between atoms: C19_27  and  C20_28 
REMARK   10  A    between atoms: C20_28  and  N4_29 
ROOT
HETATM    1  C8  UNL     1      16.025   9.623  11.468  1.00  0.00     0.087 C 
HETATM    2  C9  UNL     1      17.264  10.425  11.290  1.00  0.00     0.021 C 
HETATM    3  C10 UNL     1      17.981  10.270  10.004  1.00  0.00     0.012 C 
HETATM    4  C11 UNL     1      17.139  10.483   8.780  1.00  0.00     0.013 C 
HETATM    5  C12 UNL     1      16.831   9.047   8.396  1.00  0.00     0.012 C 
HETATM    6  C13 UNL     1      15.811   8.416   9.242  1.00  0.00     0.017 C 
HETATM    7  C14 UNL     1      16.010   8.334  10.694  1.00  0.00     0.037 C 
HETATM    8  C15 UNL     1      17.182   7.514  11.168  1.00  0.00     0.061 C 
HETATM    9  N2  UNL     1      18.447   7.982  10.839  1.00  0.00    -0.395 N 
ATOM     10  H2  UNL     1      19.253   7.635  11.359  1.00  0.00     0.159 HD
HETATM   11  C16 UNL     1      18.651   8.914   9.819  1.00  0.00     0.108 C 
HETATM   12  C17 UNL     1      18.212   8.475   8.445  1.00  0.00     0.111 C 
ENDROOT
BRANCH   1  13
HETATM   13  C7  UNL     1      14.775  10.396  11.417  1.00  0.00     0.222 C 
HETATM   14  N1  UNL     1      14.374  11.248  12.465  1.00  0.00    -0.361 N 
ATOM     15  H1  UNL     1      14.981  11.317  13.282  1.00  0.00     0.162 HD
HETATM   16  O1  UNL     1      14.050  10.294  10.415  1.00  0.00    -0.273 OA
BRANCH  14  17
HETATM   17  C6  UNL     1      13.169  12.024  12.462  1.00  0.00     0.122 C 
BRANCH  17  18
HETATM   18  C5  UNL     1      12.236  11.699  13.634  1.00  0.00     0.020 C 
BRANCH  18  19
HETATM   19  C4  UNL     1      12.945  11.801  14.929  1.00  0.00     0.002 C 
BRANCH  19  20
HETATM   20  C3  UNL     1      12.262  12.431  16.082  1.00  0.00    -0.000 C 
BRANCH  20  21
HETATM   21  C2  UNL     1      12.068  11.667  17.327  1.00  0.00    -0.005 C 
HETATM   22  C1  UNL     1      12.985  10.513  17.583  1.00  0.00     0.005 C 
ENDBRANCH  20  21
ENDBRANCH  19  20
ENDBRANCH  18  19
ENDBRANCH  17  18
ENDBRANCH  14  17
ENDBRANCH   1  13
BRANCH  12  23
HETATM   23  N3  UNL     1      18.346   7.096   8.157  1.00  0.00    -0.354 N 
HETATM   24  C18 UNL     1      19.427   6.633   7.382  1.00  0.00     0.219 C 
HETATM   25  O2  UNL     1      20.268   7.440   6.949  1.00  0.00    -0.274 OA
ATOM     26  H3  UNL     1      17.657   6.434   8.512  1.00  0.00     0.162 HD
BRANCH  24  27
HETATM   27  C19 UNL     1      19.568   5.202   7.082  1.00  0.00     0.130 C 
BRANCH  27  28
HETATM   28  C20 UNL     1      19.793   4.924   5.623  1.00  0.00     0.238 C 
BRANCH  28  29
HETATM   29  N4  UNL     1      18.947   5.710   4.765  1.00  0.00    -0.079 N 
ATOM     30  H43 UNL     1      19.107   5.479   3.784  1.00  0.00     0.274 HD
ATOM     31  H42 UNL     1      17.972   5.418   4.847  1.00  0.00     0.274 HD
ATOM     32  H41 UNL     1      19.041   6.713   4.924  1.00  0.00     0.274 HD
ENDBRANCH  28  29
ENDBRANCH  27  28
ENDBRANCH  24  27
ENDBRANCH  12  23
TORSDOF 10
ENDMDL
MODEL 2
REMARK VINA RESULT: -8.403818083      1.526      1.618
REMARK  10 active torsions:
REMARK  status: ('A' for Active; 'I' for Inactive)
REMARK    1  A    between atoms: C2_2  and  C3_3 
REMARK    2  A    between atoms: C3_3  and  C4_4 
REMARK    3  A    between atoms: C4_4  and  C5_5 
REMARK    4  A    between atoms: C5_5  and  C6_6 
REMARK    5  A    between atoms: C6_6  and  N1_7 
REMARK       I    between atoms: N1_7  and  C7_9 
REMARK    6  A    between atoms: C7_9  and  C8_11 
REMARK    7  A    between atoms: C17_22  and  N3_23 
REMARK       I    between atoms: N3_23  and  C18_25 
REMARK    8  A    between atoms: C18_25  and  C19_27 
REMARK    9  A    between atoms: C19_27  and  C20_28 
REMARK   10  A    between atoms: C20_28  and  N4_29 
ROOT
HETATM    1  C8  UNL     1      16.857   8.909  11.739  1.00  0.00     0.087 C 
HETATM    2  C9  UNL     1      18.274   9.108  11.335  1.00  0.00     0.021 C 
HETATM    3  C10 UNL     1      18.571   9.039   9.886  1.00  0.00     0.012 C 
HETATM    4  C11 UNL     1      17.737   9.942   9.025  1.00  0.00     0.013 C 
HETATM    5  C12 UNL     1      16.695   8.961   8.515  1.00  0.00     0.012 C 
HETATM    6  C13 UNL     1      15.671   8.619   9.510  1.00  0.00     0.017 C 
HETATM    7  C14 UNL     1      16.066   8.040  10.801  1.00  0.00     0.037 C 
HETATM    8  C15 UNL     1      16.743   6.696  10.757  1.00  0.00     0.061 C 
HETATM    9  N2  UNL     1      17.990   6.643  10.147  1.00  0.00    -0.395 N 
ATOM     10  H2  UNL     1      18.599   5.846  10.335  1.00  0.00     0.159 HD
HETATM   11  C16 UNL     1      18.437   7.646   9.284  1.00  0.00     0.108 C 
HETATM   12  C17 UNL     1      17.595   7.861   8.052  1.00  0.00     0.111 C 
ENDROOT
BRANCH   1  13
HETATM   13  C7  UNL     1      16.168  10.125  12.196  1.00  0.00     0.222 C 
HETATM   14  N1  UNL     1      14.867  10.095  12.737  1.00  0.00    -0.361 N 
ATOM     15  H1  UNL     1      14.401   9.191  12.806  1.00  0.00     0.162 HD
HETATM   16  O1  UNL     1      16.754  11.216  12.099  1.00  0.00    -0.273 OA
BRANCH  14  17
HETATM   17  C6  UNL     1      14.156  11.251  13.198  1.00  0.00     0.122 C 
BRANCH  17  18
HETATM   18  C5  UNL     1      13.342  10.992  14.472  1.00  0.00     0.020 C 
BRANCH  18  19
HETATM   19  C4  UNL     1      12.606  12.204  14.894  1.00  0.00     0.002 C 
BRANCH  19  20
HETATM   20  C3  UNL     1      12.188  12.342  16.308  1.00  0.00    -0.000 C 
BRANCH  20  21
HETATM   21  C2  UNL     1      12.499  11.272  17.272  1.00  0.00    -0.005 C 
HETATM   22  C1  UNL     1      11.674  11.198  18.517  1.00  0.00     0.005 C 
ENDBRANCH  20  21
ENDBRANCH  19  20
ENDBRANCH  18  19
ENDBRANCH  17  18
ENDBRANCH  14  17
ENDBRANCH   1  13
BRANCH  12  23
HETATM   23  N3  UNL     1      16.975   6.710   7.509  1.00  0.00    -0.354 N 
HETATM   24  C18 UNL     1      17.517   6.078   6.375  1.00  0.00     0.219 C 
HETATM   25  O2  UNL     1      18.547   6.533   5.846  1.00  0.00    -0.274 OA
ATOM     26  H3  UNL     1      16.131   6.337   7.944  1.00  0.00     0.162 HD
BRANCH  24  27
HETATM   27  C19 UNL     1      16.875   4.883   5.811  1.00  0.00     0.130 C 
BRANCH  27  28
HETATM   28  C20 UNL     1      17.845   3.954   5.137  1.00  0.00     0.238 C 
BRANCH  28  29
HETATM   29  N4  UNL     1      17.859   4.099   3.706  1.00  0.00    -0.079 N 
ATOM     30  H43 UNL     1      16.973   4.475   3.368  1.00  0.00     0.274 HD
ATOM     31  H42 UNL     1      18.480   4.857   3.422  1.00  0.00     0.274 HD
ATOM     32  H41 UNL     1      18.096   3.234   3.220  1.00  0.00     0.274 HD
ENDBRANCH  28  29
ENDBRANCH  27  28
ENDBRANCH  24  27
ENDBRANCH  12  23
TORSDOF 10
ENDMDL
MODEL 3
REMARK VINA RESULT: -8.264445251      1.278      1.549
REMARK  10 active torsions:
REMARK  status: ('A' for Active; 'I' for Inactive)
REMARK    1  A    between atoms: C2_2  and  C3_3 
REMARK    2  A    between atoms: C3_3  and  C4_4 
REMARK    3  A    between atoms: C4_4  and  C5_5 
REMARK    4  A    between atoms: C5_5  and  C6_6 
REMARK    5  A    between atoms: C6_6  and  N1_7 
REMARK       I    between atoms: N1_7  and  C7_9 
REMARK    6  A    between atoms: C7_9  and  C8_11 
REMARK    7  A    between atoms: C17_22  and  N3_23 
REMARK       I    between atoms: N3_23  and  C18_25 
REMARK    8  A    between atoms: C18_25  and  C19_27 
REMARK    9  A    between atoms: C19_27  and  C20_28 
REMARK   10  A    between atoms: C20_28  and  N4_29 
ROOT
HETATM    1  C8  UNL     1      16.049   9.031  11.253  1.00  0.00     0.087 C 
HETATM    2  C9  UNL     1      17.399   8.825  11.842  1.00  0.00     0.021 C 
HETATM    3  C10 UNL     1      18.538   8.773  10.898  1.00  0.00     0.012 C 
HETATM    4  C11 UNL     1      18.639   9.943   9.963  1.00  0.00     0.013 C 
HETATM    5  C12 UNL     1      18.011   9.358   8.710  1.00  0.00     0.012 C 
HETATM    6  C13 UNL     1      16.547   9.269   8.773  1.00  0.00     0.017 C 
HETATM    7  C14 UNL     1      15.903   8.508   9.851  1.00  0.00     0.037 C 
HETATM    8  C15 UNL     1      16.184   7.029   9.894  1.00  0.00     0.061 C 
HETATM    9  N2  UNL     1      17.493   6.648  10.161  1.00  0.00    -0.395 N 
ATOM     10  H2  UNL     1      17.676   5.695  10.474  1.00  0.00     0.159 HD
HETATM   11  C16 UNL     1      18.567   7.530  10.016  1.00  0.00     0.108 C 
HETATM   12  C17 UNL     1      18.773   8.074   8.625  1.00  0.00     0.111 C 
ENDROOT
BRANCH   1  13
HETATM   13  C7  UNL     1      15.469  10.362  11.487  1.00  0.00     0.222 C 
HETATM   14  N1  UNL     1      14.143  10.678  11.133  1.00  0.00    -0.361 N 
ATOM     15  H1  UNL     1      13.579   9.948  10.698  1.00  0.00     0.162 HD
HETATM   16  O1  UNL     1      16.175  11.237  12.015  1.00  0.00    -0.273 OA
BRANCH  14  17
HETATM   17  C6  UNL     1      13.532  11.958  11.343  1.00  0.00     0.122 C 
BRANCH  17  18
HETATM   18  C5  UNL     1      12.490  11.954  12.467  1.00  0.00     0.020 C 
BRANCH  18  19
HETATM   19  C4  UNL     1      13.120  12.200  13.783  1.00  0.00     0.002 C 
BRANCH  19  20
HETATM   20  C3  UNL     1      13.351  11.060  14.700  1.00  0.00    -0.000 C 
BRANCH  20  21
HETATM   21  C2  UNL     1      13.102  11.218  16.144  1.00  0.00    -0.005 C 
HETATM   22  C1  UNL     1      12.114  12.258  16.569  1.00  0.00     0.005 C 
ENDBRANCH  20  21
ENDBRANCH  19  20
ENDBRANCH  18  19
ENDBRANCH  17  18
ENDBRANCH  14  17
ENDBRANCH   1  13
BRANCH  12  23
HETATM   23  N3  UNL     1      18.447   7.204   7.559  1.00  0.00    -0.354 N 
HETATM   24  C18 UNL     1      19.457   6.696   6.721  1.00  0.00     0.219 C 
HETATM   25  O2  UNL     1      20.643   7.014   6.919  1.00  0.00    -0.274 OA
ATOM     26  H3  UNL     1      17.475   6.942   7.397  1.00  0.00     0.162 HD
BRANCH  24  27
HETATM   27  C19 UNL     1      19.121   5.791   5.613  1.00  0.00     0.130 C 
BRANCH  27  28
HETATM   28  C20 UNL     1      20.328   5.157   4.981  1.00  0.00     0.238 C 
BRANCH  28  29
HETATM   29  N4  UNL     1      20.937   4.155   5.815  1.00  0.00    -0.079 N 
ATOM     30  H43 UNL     1      21.051   4.495   6.770  1.00  0.00     0.274 HD
ATOM     31  H42 UNL     1      20.292   3.384   5.989  1.00  0.00     0.274 HD
ATOM     32  H41 UNL     1      21.822   3.813   5.442  1.00  0.00     0.274 HD
ENDBRANCH  28  29
ENDBRANCH  27  28
ENDBRANCH  24  27
ENDBRANCH  12  23
TORSDOF 10
ENDMDL
MODEL 4
REMARK VINA RESULT: -8.249771824      1.214      1.512
REMARK  10 active torsions:
REMARK  status: ('A' for Active; 'I' for Inactive)
REMARK    1  A    between atoms: C2_2  and  C3_3 
REMARK    2  A    between atoms: C3_3  and  C4_4 
REMARK    3  A    between atoms: C4_4  and  C5_5 
REMARK    4  A    between atoms: C5_5  and  C6_6 
REMARK    5  A    between atoms: C6_6  and  N1_7 
REMARK       I    between atoms: N1_7  and  C7_9 
REMARK    6  A    between atoms: C7_9  and  C8_11 
REMARK    7  A    between atoms: C17_22  and  N3_23 
REMARK       I    between atoms: N3_23  and  C18_25 
REMARK    8  A    between atoms: C18_25  and  C19_27 
REMARK    9  A    between atoms: C19_27  and  C20_28 
REMARK   10  A    between atoms: C20_28  and  N4_29 
ROOT
HETATM    1  C8  UNL     1      16.027   9.010  11.069  1.00  0.00     0.087 C 
HETATM    2  C9  UNL     1      17.349   8.780  11.710  1.00  0.00     0.021 C 
HETATM    3  C10 UNL     1      18.518   8.667  10.809  1.00  0.00     0.012 C 
HETATM    4  C11 UNL     1      18.687   9.805   9.845  1.00  0.00     0.013 C 
HETATM    5  C12 UNL     1      18.084   9.203   8.589  1.00  0.00     0.012 C 
HETATM    6  C13 UNL     1      16.617   9.160   8.602  1.00  0.00     0.017 C 
HETATM    7  C14 UNL     1      15.913   8.451   9.678  1.00  0.00     0.037 C 
HETATM    8  C15 UNL     1      16.147   6.966   9.772  1.00  0.00     0.061 C 
HETATM    9  N2  UNL     1      17.433   6.554  10.096  1.00  0.00    -0.395 N 
ATOM     10  H2  UNL     1      17.576   5.605  10.441  1.00  0.00     0.159 HD
HETATM   11  C16 UNL     1      18.538   7.398   9.964  1.00  0.00     0.108 C 
HETATM   12  C17 UNL     1      18.808   7.895   8.566  1.00  0.00     0.111 C 
ENDROOT
BRANCH   1  13
HETATM   13  C7  UNL     1      15.482  10.364  11.245  1.00  0.00     0.222 C 
HETATM   14  N1  UNL     1      14.104  10.641  11.137  1.00  0.00    -0.361 N 
ATOM     15  H1  UNL     1      13.478   9.864  10.927  1.00  0.00     0.162 HD
HETATM   16  O1  UNL     1      16.264  11.295  11.497  1.00  0.00    -0.273 OA
BRANCH  14  17
HETATM   17  C6  UNL     1      13.524  11.941  11.303  1.00  0.00     0.122 C 
BRANCH  17  18
HETATM   18  C5  UNL     1      12.599  12.040  12.521  1.00  0.00     0.020 C 
BRANCH  18  19
HETATM   19  C4  UNL     1      13.373  12.102  13.780  1.00  0.00     0.002 C 
BRANCH  19  20
HETATM   20  C3  UNL     1      12.802  11.510  15.012  1.00  0.00    -0.000 C 
BRANCH  20  21
HETATM   21  C2  UNL     1      12.216  12.386  16.042  1.00  0.00    -0.005 C 
HETATM   22  C1  UNL     1      11.943  11.791  17.386  1.00  0.00     0.005 C 
ENDBRANCH  20  21
ENDBRANCH  19  20
ENDBRANCH  18  19
ENDBRANCH  17  18
ENDBRANCH  14  17
ENDBRANCH   1  13
BRANCH  12  23
HETATM   23  N3  UNL     1      18.493   7.004   7.514  1.00  0.00    -0.354 N 
HETATM   24  C18 UNL     1      19.493   6.570   6.624  1.00  0.00     0.219 C 
HETATM   25  O2  UNL     1      20.662   6.972   6.763  1.00  0.00    -0.274 OA
ATOM     26  H3  UNL     1      17.534   6.673   7.400  1.00  0.00     0.162 HD
BRANCH  24  27
HETATM   27  C19 UNL     1      19.167   5.644   5.531  1.00  0.00     0.130 C 
BRANCH  27  28
HETATM   28  C20 UNL     1      17.776   5.083   5.628  1.00  0.00     0.238 C 
BRANCH  28  29
HETATM   29  N4  UNL     1      17.357   4.414   4.425  1.00  0.00    -0.079 N 
ATOM     30  H43 UNL     1      16.885   3.536   4.642  1.00  0.00     0.274 HD
ATOM     31  H42 UNL     1      16.585   4.911   3.980  1.00  0.00     0.274 HD
ATOM     32  H41 UNL     1      18.121   4.263   3.767  1.00  0.00     0.274 HD
ENDBRANCH  28  29
ENDBRANCH  27  28
ENDBRANCH  24  27
ENDBRANCH  12  23
TORSDOF 10
ENDMDL
MODEL 5
REMARK VINA RESULT: -8.191847841      2.161      7.849
REMARK  10 active torsions:
REMARK  status: ('A' for Active; 'I' for Inactive)
REMARK    1  A    between atoms: C2_2  and  C3_3 
REMARK    2  A    between atoms: C3_3  and  C4_4 
REMARK    3  A    between atoms: C4_4  and  C5_5 
REMARK    4  A    between atoms: C5_5  and  C6_6 
REMARK    5  A    between atoms: C6_6  and  N1_7 
REMARK       I    between atoms: N1_7  and  C7_9 
REMARK    6  A    between atoms: C7_9  and  C8_11 
REMARK    7  A    between atoms: C17_22  and  N3_23 
REMARK       I    between atoms: N3_23  and  C18_25 
REMARK    8  A    between atoms: C18_25  and  C19_27 
REMARK    9  A    between atoms: C19_27  and  C20_28 
REMARK   10  A    between atoms: C20_28  and  N4_29 
ROOT
HETATM    1  C8  UNL     1      18.581   8.611   8.556  1.00  0.00     0.087 C 
HETATM    2  C9  UNL     1      19.087   8.795   9.943  1.00  0.00     0.021 C 
HETATM    3  C10 UNL     1      18.075   8.828  11.023  1.00  0.00     0.012 C 
HETATM    4  C11 UNL     1      17.137   7.656  11.048  1.00  0.00     0.013 C 
HETATM    5  C12 UNL     1      15.924   8.251  10.354  1.00  0.00     0.012 C 
HETATM    6  C13 UNL     1      16.075   8.364   8.899  1.00  0.00     0.017 C 
HETATM    7  C14 UNL     1      17.190   9.136   8.334  1.00  0.00     0.037 C 
HETATM    8  C15 UNL     1      17.214  10.610   8.642  1.00  0.00     0.061 C 
HETATM    9  N2  UNL     1      17.400  10.969   9.970  1.00  0.00    -0.395 N 
ATOM     10  H2  UNL     1      17.700  11.920  10.187  1.00  0.00     0.159 HD
HETATM   11  C16 UNL     1      17.192  10.070  11.018  1.00  0.00     0.108 C 
HETATM   12  C17 UNL     1      15.791   9.522  11.131  1.00  0.00     0.111 C 
ENDROOT
BRANCH   1  13
HETATM   13  C7  UNL     1      18.852   7.290   7.970  1.00  0.00     0.222 C 
HETATM   14  N1  UNL     1      18.448   6.948   6.664  1.00  0.00    -0.361 N 
ATOM     15  H1  UNL     1      17.951   7.653   6.120  1.00  0.00     0.162 HD
HETATM   16  O1  UNL     1      19.457   6.446   8.652  1.00  0.00    -0.273 OA
BRANCH  14  17
HETATM   17  C6  UNL     1      18.691   5.677   6.048  1.00  0.00     0.122 C 
BRANCH  17  18
HETATM   18  C5  UNL     1      17.710   4.589   6.499  1.00  0.00     0.020 C 
BRANCH  18  19
HETATM   19  C4  UNL     1      16.396   5.167   6.858  1.00  0.00     0.002 C 
BRANCH  19  20
HETATM   20  C3  UNL     1      15.847   4.931   8.213  1.00  0.00    -0.000 C 
BRANCH  20  21
HETATM   21  C2  UNL     1      16.692   4.311   9.249  1.00  0.00    -0.005 C 
HETATM   22  C1  UNL     1      16.084   4.081  10.596  1.00  0.00     0.005 C 
ENDBRANCH  20  21
ENDBRANCH  19  20
ENDBRANCH  18  19
ENDBRANCH  17  18
ENDBRANCH  14  17
ENDBRANCH   1  13
BRANCH  12  23
HETATM   23  N3  UNL     1      14.746  10.397  10.755  1.00  0.00    -0.354 N 
HETATM   24  C18 UNL     1      14.117  11.209  11.718  1.00  0.00     0.219 C 
HETATM   25  O2  UNL     1      14.483  11.157  12.906  1.00  0.00    -0.274 OA
ATOM     26  H3  UNL     1      14.446  10.441   9.781  1.00  0.00     0.162 HD
BRANCH  24  27
HETATM   27  C19 UNL     1      13.031  12.119  11.330  1.00  0.00     0.130 C 
BRANCH  27  28
HETATM   28  C20 UNL     1      12.192  12.568  12.493  1.00  0.00     0.238 C 
BRANCH  28  29
HETATM   29  N4  UNL     1      11.363  11.519  13.024  1.00  0.00    -0.079 N 
ATOM     30  H43 UNL     1      11.282  10.747  12.362  1.00  0.00     0.274 HD
ATOM     31  H42 UNL     1      11.834  11.033  13.788  1.00  0.00     0.274 HD
ATOM     32  H41 UNL     1      10.443  11.848  13.315  1.00  0.00     0.274 HD
ENDBRANCH  28  29
ENDBRANCH  27  28
ENDBRANCH  24  27
ENDBRANCH  12  23
TORSDOF 10
ENDMDL
