MODEL 1
REMARK VINA RESULT: -9.256101039      0.000      0.000
REMARK  2 active torsions:
REMARK  status: ('A' for Active; 'I' for Inactive)
REMARK    1  A    between atoms: N1_2  and  C2_4 
REMARK    2  A    between atoms: C14_23  and  C15_24 
ROOT
HETATM    1  C2  UNL     1      33.560  46.248  14.791  1.00  0.00     0.114 A 
HETATM    2  N2  UNL     1      34.828  45.859  14.597  1.00  0.00    -0.327 N 
ATOM      3  H2  UNL     1      35.625  46.181  15.146  1.00  0.00     0.169 HD
HETATM    4  C3  UNL     1      34.908  44.976  13.568  1.00  0.00     0.124 A 
HETATM    5  N3  UNL     1      36.021  44.392  13.106  1.00  0.00    -0.340 N 
ATOM      6  H3  UNL     1      36.891  44.636  13.579  1.00  0.00     0.167 HD
HETATM    7  C4  UNL     1      36.120  43.513  12.081  1.00  0.00     0.061 A 
HETATM    8  C5  UNL     1      37.444  43.094  11.951  1.00  0.00     0.038 A 
HETATM    9  C6  UNL     1      37.805  42.194  10.979  1.00  0.00    -0.059 A 
HETATM   10  C7  UNL     1      39.207  41.735  10.831  1.00  0.00     0.048 C 
HETATM   11  C8  UNL     1      36.835  41.709  10.129  1.00  0.00     0.015 A 
HETATM   12  C9  UNL     1      35.518  42.113  10.242  1.00  0.00    -0.032 A 
HETATM   13  C10 UNL     1      34.479  41.591   9.326  1.00  0.00     0.050 C 
HETATM   14  C11 UNL     1      35.155  43.024  11.227  1.00  0.00     0.068 A 
HETATM   15  N4  UNL     1      33.824  43.302  11.173  1.00  0.00    -0.320 N 
ATOM     16  H4  UNL     1      33.316  42.930  10.371  1.00  0.00     0.169 HD
HETATM   17  C12 UNL     1      33.103  44.015  12.064  1.00  0.00     0.261 C 
HETATM   18  O1  UNL     1      31.833  43.921  11.918  1.00  0.00    -0.267 OA
HETATM   19  C13 UNL     1      33.524  44.822  13.096  1.00  0.00     0.091 A 
HETATM   20  C14 UNL     1      32.735  45.611  13.863  1.00  0.00     0.037 A 
ENDROOT
BRANCH  20  21
HETATM   21  C15 UNL     1      31.307  45.792  13.770  1.00  0.00    -0.018 A 
HETATM   22  C16 UNL     1      30.793  46.668  12.823  1.00  0.00     0.029 A 
HETATM   23  C17 UNL     1      29.403  46.808  12.756  1.00  0.00     0.088 A 
HETATM   24  N5  UNL     1      28.585  46.114  13.585  1.00  0.00    -0.375 N 
HETATM   25  C18 UNL     1      29.092  45.268  14.499  1.00  0.00     0.088 A 
ATOM     26  H5  UNL     1      27.575  46.235  13.515  1.00  0.00     0.164 HD
HETATM   27  C19 UNL     1      30.477  45.101  14.598  1.00  0.00     0.029 A 
ENDBRANCH  20  21
BRANCH   1  28
HETATM   28  N1  UNL     1      33.152  47.072  15.686  1.00  0.00    -0.380 N 
HETATM   29  C1  UNL     1      34.020  47.784  16.593  1.00  0.00     0.147 C 
ATOM     30  H1  UNL     1      32.147  47.235  15.763  1.00  0.00     0.160 HD
ENDBRANCH   1  28
TORSDOF 2
ENDMDL
MODEL 2
REMARK VINA RESULT: -6.968986161      2.232      4.410
REMARK  2 active torsions:
REMARK  status: ('A' for Active; 'I' for Inactive)
REMARK    1  A    between atoms: N1_2  and  C2_4 
REMARK    2  A    between atoms: C14_23  and  C15_24 
ROOT
HETATM    1  C2  UNL     1      32.950  46.378  14.580  1.00  0.00     0.114 A 
HETATM    2  N2  UNL     1      32.343  45.803  13.532  1.00  0.00    -0.327 N 
ATOM      3  H2  UNL     1      31.376  45.974  13.256  1.00  0.00     0.169 HD
HETATM    4  C3  UNL     1      33.192  44.963  12.887  1.00  0.00     0.124 A 
HETATM    5  N3  UNL     1      32.912  44.227  11.803  1.00  0.00    -0.340 N 
ATOM      6  H3  UNL     1      31.967  44.312  11.429  1.00  0.00     0.167 HD
HETATM    7  C4  UNL     1      33.744  43.382  11.150  1.00  0.00     0.061 A 
HETATM    8  C5  UNL     1      33.091  42.851  10.038  1.00  0.00     0.038 A 
HETATM    9  C6  UNL     1      33.727  41.964   9.205  1.00  0.00    -0.059 A 
HETATM   10  C7  UNL     1      33.048  41.394   8.016  1.00  0.00     0.048 C 
HETATM   11  C8  UNL     1      35.028  41.605   9.485  1.00  0.00     0.015 A 
HETATM   12  C9  UNL     1      35.691  42.120  10.583  1.00  0.00    -0.032 A 
HETATM   13  C10 UNL     1      37.087  41.730  10.883  1.00  0.00     0.050 C 
HETATM   14  C11 UNL     1      35.044  43.018  11.425  1.00  0.00     0.068 A 
HETATM   15  N4  UNL     1      35.855  43.404  12.447  1.00  0.00    -0.320 N 
ATOM     16  H4  UNL     1      36.740  42.905  12.537  1.00  0.00     0.169 HD
HETATM   17  C12 UNL     1      35.616  44.373  13.355  1.00  0.00     0.261 C 
HETATM   18  O1  UNL     1      36.637  44.709  14.055  1.00  0.00    -0.267 OA
HETATM   19  C13 UNL     1      34.452  45.049  13.640  1.00  0.00     0.091 A 
HETATM   20  C14 UNL     1      34.264  45.918  14.662  1.00  0.00     0.037 A 
ENDROOT
BRANCH  20  21
HETATM   21  C15 UNL     1      35.217  46.318  15.669  1.00  0.00    -0.018 A 
HETATM   22  C16 UNL     1      36.022  47.426  15.441  1.00  0.00     0.029 A 
HETATM   23  C17 UNL     1      36.924  47.789  16.446  1.00  0.00     0.088 A 
HETATM   24  N5  UNL     1      37.012  47.085  17.602  1.00  0.00    -0.375 N 
HETATM   25  C18 UNL     1      36.228  46.014  17.813  1.00  0.00     0.088 A 
ATOM     26  H5  UNL     1      37.679  47.372  18.318  1.00  0.00     0.164 HD
HETATM   27  C19 UNL     1      35.313  45.618  16.832  1.00  0.00     0.029 A 
ENDBRANCH  20  21
BRANCH   1  28
HETATM   28  N1  UNL     1      32.421  47.223  15.389  1.00  0.00    -0.380 N 
HETATM   29  C1  UNL     1      32.659  48.645  15.350  1.00  0.00     0.147 C 
ATOM     30  H1  UNL     1      31.790  46.865  16.107  1.00  0.00     0.160 HD
ENDBRANCH   1  28
TORSDOF 2
ENDMDL
MODEL 3
REMARK VINA RESULT: -6.563406481      2.192      5.827
REMARK  2 active torsions:
REMARK  status: ('A' for Active; 'I' for Inactive)
REMARK    1  A    between atoms: N1_2  and  C2_4 
REMARK    2  A    between atoms: C14_23  and  C15_24 
ROOT
HETATM    1  C2  UNL     1      35.308  43.557  11.983  1.00  0.00     0.114 A 
HETATM    2  N2  UNL     1      36.309  44.054  12.724  1.00  0.00    -0.327 N 
ATOM      3  H2  UNL     1      37.294  43.824  12.597  1.00  0.00     0.169 HD
HETATM    4  C3  UNL     1      35.831  44.907  13.666  1.00  0.00     0.124 A 
HETATM    5  N3  UNL     1      36.555  45.576  14.574  1.00  0.00    -0.340 N 
ATOM      6  H3  UNL     1      37.564  45.428  14.548  1.00  0.00     0.167 HD
HETATM    7  C4  UNL     1      36.096  46.427  15.521  1.00  0.00     0.061 A 
HETATM    8  C5  UNL     1      37.172  46.961  16.229  1.00  0.00     0.038 A 
HETATM    9  C6  UNL     1      36.968  47.859  17.248  1.00  0.00    -0.059 A 
HETATM   10  C7  UNL     1      38.102  48.440  18.007  1.00  0.00     0.048 C 
HETATM   11  C8  UNL     1      35.678  48.226  17.562  1.00  0.00     0.015 A 
HETATM   12  C9  UNL     1      34.598  47.706  16.872  1.00  0.00    -0.032 A 
HETATM   13  C10 UNL     1      33.213  48.101  17.214  1.00  0.00     0.050 C 
HETATM   14  C11 UNL     1      34.808  46.797  15.841  1.00  0.00     0.068 A 
HETATM   15  N4  UNL     1      33.629  46.397  15.292  1.00  0.00    -0.320 N 
ATOM     16  H4  UNL     1      32.781  46.695  15.773  1.00  0.00     0.169 HD
HETATM   17  C12 UNL     1      33.459  45.650  14.181  1.00  0.00     0.261 C 
HETATM   18  O1  UNL     1      32.257  45.622  13.737  1.00  0.00    -0.267 OA
HETATM   19  C13 UNL     1      34.376  44.918  13.461  1.00  0.00     0.091 A 
HETATM   20  C14 UNL     1      34.097  44.085  12.430  1.00  0.00     0.037 A 
ENDROOT
BRANCH  20  21
HETATM   21  C15 UNL     1      32.804  43.771  11.871  1.00  0.00    -0.018 A 
HETATM   22  C16 UNL     1      32.062  42.732  12.417  1.00  0.00     0.029 A 
HETATM   23  C17 UNL     1      30.810  42.465  11.855  1.00  0.00     0.088 A 
HETATM   24  N5  UNL     1      30.335  43.193  10.814  1.00  0.00    -0.375 N 
HETATM   25  C18 UNL     1      31.061  44.197  10.293  1.00  0.00     0.088 A 
ATOM     26  H5  UNL     1      29.418  42.977  10.423  1.00  0.00     0.164 HD
HETATM   27  C19 UNL     1      32.319  44.495  10.826  1.00  0.00     0.029 A 
ENDBRANCH  20  21
BRANCH   1  28
HETATM   28  N1  UNL     1      35.428  42.727  11.011  1.00  0.00    -0.380 N 
HETATM   29  C1  UNL     1      36.203  41.511  11.071  1.00  0.00     0.147 C 
ATOM     30  H1  UNL     1      34.945  42.941  10.138  1.00  0.00     0.160 HD
ENDBRANCH   1  28
TORSDOF 2
ENDMDL
MODEL 4
REMARK VINA RESULT: -6.235248899      2.251      4.513
REMARK  2 active torsions:
REMARK  status: ('A' for Active; 'I' for Inactive)
REMARK    1  A    between atoms: N1_2  and  C2_4 
REMARK    2  A    between atoms: C14_23  and  C15_24 
ROOT
HETATM    1  C2  UNL     1      32.987  46.751  14.541  1.00  0.00     0.114 A 
HETATM    2  N2  UNL     1      32.391  46.181  13.485  1.00  0.00    -0.327 N 
ATOM      3  H2  UNL     1      31.448  46.397  13.165  1.00  0.00     0.169 HD
HETATM    4  C3  UNL     1      33.216  45.275  12.899  1.00  0.00     0.124 A 
HETATM    5  N3  UNL     1      32.938  44.524  11.825  1.00  0.00    -0.340 N 
ATOM      6  H3  UNL     1      32.015  44.651  11.409  1.00  0.00     0.167 HD
HETATM    7  C4  UNL     1      33.745  43.615  11.230  1.00  0.00     0.061 A 
HETATM    8  C5  UNL     1      33.108  43.089  10.107  1.00  0.00     0.038 A 
HETATM    9  C6  UNL     1      33.725  42.144   9.325  1.00  0.00    -0.059 A 
HETATM   10  C7  UNL     1      33.062  41.578   8.125  1.00  0.00     0.048 C 
HETATM   11  C8  UNL     1      34.990  41.720   9.669  1.00  0.00     0.015 A 
HETATM   12  C9  UNL     1      35.638  42.229  10.779  1.00  0.00    -0.032 A 
HETATM   13  C10 UNL     1      36.996  41.770  11.147  1.00  0.00     0.050 C 
HETATM   14  C11 UNL     1      35.010  43.187  11.569  1.00  0.00     0.068 A 
HETATM   15  N4  UNL     1      35.800  43.556  12.613  1.00  0.00    -0.320 N 
ATOM     16  H4  UNL     1      36.651  43.012  12.753  1.00  0.00     0.169 HD
HETATM   17  C12 UNL     1      35.582  44.564  13.484  1.00  0.00     0.261 C 
HETATM   18  O1  UNL     1      36.591  44.863  14.215  1.00  0.00    -0.267 OA
HETATM   19  C13 UNL     1      34.447  45.312  13.701  1.00  0.00     0.091 A 
HETATM   20  C14 UNL     1      34.269  46.220  14.690  1.00  0.00     0.037 A 
ENDROOT
BRANCH  20  21
HETATM   21  C15 UNL     1      35.202  46.596  15.725  1.00  0.00    -0.018 A 
HETATM   22  C16 UNL     1      35.322  45.795  16.854  1.00  0.00     0.029 A 
HETATM   23  C17 UNL     1      36.245  46.186  17.829  1.00  0.00     0.088 A 
HETATM   24  N5  UNL     1      36.995  47.305  17.682  1.00  0.00    -0.375 N 
HETATM   25  C18 UNL     1      36.871  48.074  16.586  1.00  0.00     0.088 A 
ATOM     26  H5  UNL     1      37.660  47.567  18.409  1.00  0.00     0.164 HD
HETATM   27  C19 UNL     1      35.959  47.718  15.587  1.00  0.00     0.029 A 
ENDBRANCH  20  21
BRANCH   1  28
HETATM   28  N1  UNL     1      32.476  47.648  15.305  1.00  0.00    -0.380 N 
HETATM   29  C1  UNL     1      32.939  47.939  16.640  1.00  0.00     0.147 C 
ATOM     30  H1  UNL     1      31.690  48.190  14.944  1.00  0.00     0.160 HD
ENDBRANCH   1  28
TORSDOF 2
ENDMDL
MODEL 5
REMARK VINA RESULT: -6.047897956      2.074      3.466
REMARK  2 active torsions:
REMARK  status: ('A' for Active; 'I' for Inactive)
REMARK    1  A    between atoms: N1_2  and  C2_4 
REMARK    2  A    between atoms: C14_23  and  C15_24 
ROOT
HETATM    1  C2  UNL     1      32.621  43.570  14.434  1.00  0.00     0.114 A 
HETATM    2  N2  UNL     1      33.054  42.408  13.927  1.00  0.00    -0.327 N 
ATOM      3  H2  UNL     1      32.576  41.513  14.036  1.00  0.00     0.169 HD
HETATM    4  C3  UNL     1      34.217  42.583  13.248  1.00  0.00     0.124 A 
HETATM    5  N3  UNL     1      34.923  41.633  12.620  1.00  0.00    -0.340 N 
ATOM      6  H3  UNL     1      34.543  40.687  12.657  1.00  0.00     0.167 HD
HETATM    7  C4  UNL     1      36.084  41.789  11.942  1.00  0.00     0.061 A 
HETATM    8  C5  UNL     1      36.467  40.568  11.386  1.00  0.00     0.038 A 
HETATM    9  C6  UNL     1      37.617  40.464  10.644  1.00  0.00    -0.059 A 
HETATM   10  C7  UNL     1      38.036  39.174  10.043  1.00  0.00     0.048 C 
HETATM   11  C8  UNL     1      38.391  41.588  10.455  1.00  0.00     0.015 A 
HETATM   12  C9  UNL     1      38.028  42.806  10.998  1.00  0.00    -0.032 A 
HETATM   13  C10 UNL     1      38.863  44.011  10.794  1.00  0.00     0.050 C 
HETATM   14  C11 UNL     1      36.862  42.909  11.750  1.00  0.00     0.068 A 
HETATM   15  N4  UNL     1      36.681  44.179  12.202  1.00  0.00    -0.320 N 
ATOM     16  H4  UNL     1      37.454  44.828  12.055  1.00  0.00     0.169 HD
HETATM   17  C12 UNL     1      35.591  44.675  12.825  1.00  0.00     0.261 C 
HETATM   18  O1  UNL     1      35.571  45.953  12.925  1.00  0.00    -0.267 OA
HETATM   19  C13 UNL     1      34.509  44.019  13.365  1.00  0.00     0.091 A 
HETATM   20  C14 UNL     1      33.516  44.585  14.093  1.00  0.00     0.037 A 
ENDROOT
BRANCH  20  21
HETATM   21  C15 UNL     1      33.376  45.970  14.471  1.00  0.00    -0.018 A 
HETATM   22  C16 UNL     1      33.992  46.423  15.631  1.00  0.00     0.029 A 
HETATM   23  C17 UNL     1      33.842  47.774  15.958  1.00  0.00     0.088 A 
HETATM   24  N5  UNL     1      33.121  48.614  15.173  1.00  0.00    -0.375 N 
HETATM   25  C18 UNL     1      32.528  48.165  14.053  1.00  0.00     0.088 A 
ATOM     26  H5  UNL     1      33.027  49.594  15.436  1.00  0.00     0.164 HD
HETATM   27  C19 UNL     1      32.654  46.820  13.691  1.00  0.00     0.029 A 
ENDBRANCH  20  21
BRANCH   1  28
HETATM   28  N1  UNL     1      31.552  43.742  15.123  1.00  0.00    -0.380 N 
HETATM   29  C1  UNL     1      30.250  43.994  14.555  1.00  0.00     0.147 C 
ATOM     30  H1  UNL     1      31.627  43.697  16.140  1.00  0.00     0.160 HD
ENDBRANCH   1  28
TORSDOF 2
ENDMDL
