MODEL 1
REMARK VINA RESULT: -5.879458617      0.000      0.000
REMARK  3 active torsions:
REMARK  status: ('A' for Active; 'I' for Inactive)
REMARK    1  A    between atoms: O1_2  and  C2_3 
REMARK    2  A    between atoms: C6_9  and  O4_10 
REMARK    3  A    between atoms: C8_12  and  N1_13 
ROOT
HETATM    1  C2  UNL     1      -5.591 -10.315  14.880  1.00  0.00     0.147 C 
HETATM    2  C3  UNL     1      -4.311 -10.990  14.364  1.00  0.00     0.200 C 
HETATM    3  O2  UNL     1      -3.417 -10.662  15.352  1.00  0.00    -0.375 OA
HETATM    4  C4  UNL     1      -3.661  -9.368  15.761  1.00  0.00     0.087 C 
HETATM    5  C5  UNL     1      -3.749  -9.348  17.285  1.00  0.00     0.209 C 
HETATM    6  O3  UNL     1      -4.207  -8.086  17.631  1.00  0.00    -0.356 OA
HETATM    7  C6  UNL     1      -3.296  -7.082  17.403  1.00  0.00     0.289 C 
HETATM    8  C8  UNL     1      -2.222  -7.414  16.421  1.00  0.00     0.241 C 
HETATM    9  C9  UNL     1      -2.584  -8.404  15.383  1.00  0.00     0.078 C 
HETATM   10  C10 UNL     1      -5.010  -8.961  15.224  1.00  0.00     0.074 C 
ENDROOT
BRANCH   8  11
HETATM   11  N1  UNL     1      -1.870  -6.158  15.736  1.00  0.00    -0.070 N 
ATOM     12  H13 UNL     1      -2.357  -5.345  16.112  1.00  0.00     0.274 HD
ATOM     13  H12 UNL     1      -0.921  -5.843  15.937  1.00  0.00     0.274 HD
ATOM     14  H11 UNL     1      -2.043  -6.307  14.742  1.00  0.00     0.274 HD
ENDBRANCH   8  11
BRANCH   1  15
HETATM   15  O1  UNL     1      -6.555 -10.251  13.888  1.00  0.00    -0.388 OA
HETATM   16  C1  UNL     1      -5.939  -9.719  12.756  1.00  0.00     0.202 C 
ENDBRANCH   1  15
BRANCH   7  17
HETATM   17  O4  UNL     1      -2.686  -6.778  18.619  1.00  0.00    -0.364 OA
HETATM   18  C7  UNL     1      -3.594  -6.760  19.668  1.00  0.00     0.204 C 
ENDBRANCH   7  17
TORSDOF 3
ENDMDL
MODEL 2
REMARK VINA RESULT: -5.797631172      1.758      1.997
REMARK  3 active torsions:
REMARK  status: ('A' for Active; 'I' for Inactive)
REMARK    1  A    between atoms: O1_2  and  C2_3 
REMARK    2  A    between atoms: C6_9  and  O4_10 
REMARK    3  A    between atoms: C8_12  and  N1_13 
ROOT
HETATM    1  C2  UNL     1      -4.745 -10.022  12.635  1.00  0.00     0.147 C 
HETATM    2  C3  UNL     1      -3.561 -10.837  13.176  1.00  0.00     0.200 C 
HETATM    3  O2  UNL     1      -3.524 -10.425  14.484  1.00  0.00    -0.375 OA
HETATM    4  C4  UNL     1      -3.794  -9.073  14.532  1.00  0.00     0.087 C 
HETATM    5  C5  UNL     1      -4.877  -8.831  15.581  1.00  0.00     0.209 C 
HETATM    6  O3  UNL     1      -5.265  -7.508  15.440  1.00  0.00    -0.356 OA
HETATM    7  C6  UNL     1      -4.307  -6.602  15.830  1.00  0.00     0.289 C 
HETATM    8  C8  UNL     1      -2.913  -7.134  15.867  1.00  0.00     0.241 C 
HETATM    9  C9  UNL     1      -2.620  -8.238  14.928  1.00  0.00     0.078 C 
HETATM   10  C10 UNL     1      -4.362  -8.669  13.194  1.00  0.00     0.074 C 
ENDROOT
BRANCH   8  11
HETATM   11  N1  UNL     1      -2.022  -6.011  15.527  1.00  0.00    -0.070 N 
ATOM     12  H13 UNL     1      -1.126  -6.311  15.143  1.00  0.00     0.274 HD
ATOM     13  H12 UNL     1      -2.337  -5.478  14.717  1.00  0.00     0.274 HD
ATOM     14  H11 UNL     1      -1.928  -5.445  16.370  1.00  0.00     0.274 HD
ENDBRANCH   8  11
BRANCH   1  15
HETATM   15  O1  UNL     1      -4.775 -10.043  11.251  1.00  0.00    -0.388 OA
HETATM   16  C1  UNL     1      -3.554 -10.567  10.826  1.00  0.00     0.202 C 
ENDBRANCH   1  15
BRANCH   7  17
HETATM   17  O4  UNL     1      -4.634  -6.164  17.112  1.00  0.00    -0.364 OA
HETATM   18  C7  UNL     1      -3.824  -6.739  18.082  1.00  0.00     0.204 C 
ENDBRANCH   7  17
TORSDOF 3
ENDMDL
MODEL 3
REMARK VINA RESULT: -5.782843832      2.135      2.826
REMARK  3 active torsions:
REMARK  status: ('A' for Active; 'I' for Inactive)
REMARK    1  A    between atoms: O1_2  and  C2_3 
REMARK    2  A    between atoms: C6_9  and  O4_10 
REMARK    3  A    between atoms: C8_12  and  N1_13 
ROOT
HETATM    1  C2  UNL     1      -4.572  -8.773  12.121  1.00  0.00     0.147 C 
HETATM    2  C3  UNL     1      -5.648  -9.831  12.404  1.00  0.00     0.200 C 
HETATM    3  O2  UNL     1      -6.063  -9.466  13.660  1.00  0.00    -0.375 OA
HETATM    4  C4  UNL     1      -4.963  -9.069  14.392  1.00  0.00     0.087 C 
HETATM    5  C5  UNL     1      -5.272  -7.721  15.040  1.00  0.00     0.209 C 
HETATM    6  O3  UNL     1      -4.078  -7.266  15.577  1.00  0.00    -0.356 OA
HETATM    7  C6  UNL     1      -3.644  -7.990  16.662  1.00  0.00     0.289 C 
HETATM    8  C8  UNL     1      -4.220  -9.362  16.777  1.00  0.00     0.241 C 
HETATM    9  C9  UNL     1      -4.610 -10.005  15.503  1.00  0.00     0.078 C 
HETATM   10  C10 UNL     1      -3.820  -8.860  13.432  1.00  0.00     0.074 C 
ENDROOT
BRANCH   8  11
HETATM   11  N1  UNL     1      -3.186 -10.205  17.403  1.00  0.00    -0.070 N 
ATOM     12  H13 UNL     1      -2.268 -10.105  16.970  1.00  0.00     0.274 HD
ATOM     13  H12 UNL     1      -2.923  -9.891  18.337  1.00  0.00     0.274 HD
ATOM     14  H11 UNL     1      -3.537 -11.162  17.384  1.00  0.00     0.274 HD
ENDBRANCH   8  11
BRANCH   1  15
HETATM   15  O1  UNL     1      -3.795  -9.130  11.032  1.00  0.00    -0.388 OA
HETATM   16  C1  UNL     1      -3.621 -10.513  11.092  1.00  0.00     0.202 C 
ENDBRANCH   1  15
BRANCH   7  17
HETATM   17  O4  UNL     1      -3.991  -7.282  17.811  1.00  0.00    -0.364 OA
HETATM   18  C7  UNL     1      -2.875  -6.847  18.513  1.00  0.00     0.204 C 
ENDBRANCH   7  17
TORSDOF 3
ENDMDL
MODEL 4
REMARK VINA RESULT: -5.662092617      3.132      5.402
REMARK  3 active torsions:
REMARK  status: ('A' for Active; 'I' for Inactive)
REMARK    1  A    between atoms: O1_2  and  C2_3 
REMARK    2  A    between atoms: C6_9  and  O4_10 
REMARK    3  A    between atoms: C8_12  and  N1_13 
ROOT
HETATM    1  C2  UNL     1      -2.113 -11.119  20.540  1.00  0.00     0.147 C 
HETATM    2  C3  UNL     1      -2.062 -10.024  21.616  1.00  0.00     0.200 C 
HETATM    3  O2  UNL     1      -2.957  -9.112  21.115  1.00  0.00    -0.375 OA
HETATM    4  C4  UNL     1      -2.807  -9.050  19.745  1.00  0.00     0.087 C 
HETATM    5  C5  UNL     1      -4.184  -9.184  19.099  1.00  0.00     0.209 C 
HETATM    6  O3  UNL     1      -3.962  -9.334  17.739  1.00  0.00    -0.356 OA
HETATM    7  C6  UNL     1      -3.488  -8.199  17.124  1.00  0.00     0.289 C 
HETATM    8  C8  UNL     1      -2.853  -7.204  18.037  1.00  0.00     0.241 C 
HETATM    9  C9  UNL     1      -2.233  -7.758  19.260  1.00  0.00     0.078 C 
HETATM   10  C10 UNL     1      -1.987 -10.240  19.315  1.00  0.00     0.074 C 
ENDROOT
BRANCH   8  11
HETATM   11  N1  UNL     1      -1.794  -6.534  17.264  1.00  0.00    -0.070 N 
ATOM     12  H13 UNL     1      -0.893  -7.008  17.320  1.00  0.00     0.274 HD
ATOM     13  H12 UNL     1      -1.919  -6.615  16.255  1.00  0.00     0.274 HD
ATOM     14  H11 UNL     1      -1.760  -5.568  17.588  1.00  0.00     0.274 HD
ENDBRANCH   8  11
BRANCH   1  15
HETATM   15  O1  UNL     1      -1.056 -12.003  20.678  1.00  0.00    -0.388 OA
HETATM   16  C1  UNL     1      -1.146 -12.549  21.958  1.00  0.00     0.202 C 
ENDBRANCH   1  15
BRANCH   7  17
HETATM   17  O4  UNL     1      -4.565  -7.577  16.493  1.00  0.00    -0.364 OA
HETATM   18  C7  UNL     1      -4.740  -8.029  15.193  1.00  0.00     0.204 C 
ENDBRANCH   7  17
TORSDOF 3
ENDMDL
MODEL 5
REMARK VINA RESULT: -5.643538121      2.577      3.343
REMARK  3 active torsions:
REMARK  status: ('A' for Active; 'I' for Inactive)
REMARK    1  A    between atoms: O1_2  and  C2_3 
REMARK    2  A    between atoms: C6_9  and  O4_10 
REMARK    3  A    between atoms: C8_12  and  N1_13 
ROOT
HETATM    1  C2  UNL     1      -3.115  -7.004  14.719  1.00  0.00     0.147 C 
HETATM    2  C3  UNL     1      -4.491  -7.677  14.607  1.00  0.00     0.200 C 
HETATM    3  O2  UNL     1      -4.918  -7.637  15.910  1.00  0.00    -0.375 OA
HETATM    4  C4  UNL     1      -3.844  -7.895  16.737  1.00  0.00     0.087 C 
HETATM    5  C5  UNL     1      -3.795  -6.819  17.820  1.00  0.00     0.209 C 
HETATM    6  O3  UNL     1      -2.591  -6.991  18.484  1.00  0.00    -0.356 OA
HETATM    7  C6  UNL     1      -2.534  -8.136  19.243  1.00  0.00     0.289 C 
HETATM    8  C8  UNL     1      -3.515  -9.195  18.864  1.00  0.00     0.241 C 
HETATM    9  C9  UNL     1      -3.931  -9.208  17.445  1.00  0.00     0.078 C 
HETATM   10  C10 UNL     1      -2.587  -7.767  15.914  1.00  0.00     0.074 C 
ENDROOT
BRANCH   8  11
HETATM   11  N1  UNL     1      -2.874 -10.490  19.152  1.00  0.00    -0.070 N 
ATOM     12  H13 UNL     1      -2.031 -10.405  19.720  1.00  0.00     0.274 HD
ATOM     13  H12 UNL     1      -3.408 -11.067  19.802  1.00  0.00     0.274 HD
ATOM     14  H11 UNL     1      -2.710 -10.943  18.254  1.00  0.00     0.274 HD
ENDBRANCH   8  11
BRANCH   1  15
HETATM   15  O1  UNL     1      -2.364  -7.213  13.574  1.00  0.00    -0.388 OA
HETATM   16  C1  UNL     1      -2.869  -8.357  12.958  1.00  0.00     0.202 C 
ENDBRANCH   1  15
BRANCH   7  17
HETATM   17  O4  UNL     1      -2.779  -7.780  20.569  1.00  0.00    -0.364 OA
HETATM   18  C7  UNL     1      -1.770  -8.210  21.419  1.00  0.00     0.204 C 
ENDBRANCH   7  17
TORSDOF 3
ENDMDL
