MODEL 1
REMARK VINA RESULT: -9.497192195      0.000      0.000
REMARK  11 active torsions:
REMARK  status: ('A' for Active; 'I' for Inactive)
REMARK    1  A    between atoms: C2_2  and  C3_4 
REMARK    2  A    between atoms: C4_5  and  C5_6 
REMARK    3  A    between atoms: C5_6  and  O2_7 
REMARK    4  A    between atoms: C5_6  and  N1_9 
REMARK    5  A    between atoms: N1_9  and  N2_11 
REMARK       I    between atoms: N2_11  and  C6_13 
REMARK    6  A    between atoms: C6_13  and  C7_15 
REMARK    7  A    between atoms: C7_15  and  S1_16 
REMARK    8  A    between atoms: S1_16  and  C8_17 
REMARK    9  A    between atoms: N4_24  and  N5_25 
REMARK   10  A    between atoms: C13_28  and  N6_29 
REMARK       I    between atoms: N6_29  and  C14_31 
REMARK   11  A    between atoms: C14_31  and  C15_33 
ROOT
HETATM    1  C3  UNL     1     -15.669  -0.294   9.222  1.00  0.00     0.099 A 
HETATM    2  C4  UNL     1     -14.979  -1.037   8.294  1.00  0.00     0.057 A 
HETATM    3  C13 UNL     1     -13.635  -0.820   8.233  1.00  0.00     0.106 A 
HETATM    4  S2  UNL     1     -13.384   0.371   9.433  1.00  0.00     0.007 SA
HETATM    5  N10 UNL     1     -14.986   0.553   9.969  1.00  0.00    -0.316 N 
HETATM    6  C17 UNL     1     -15.367   1.485  11.056  1.00  0.00     0.165 C 
ENDROOT
BRANCH   2   7
HETATM    7  C5  UNL     1     -15.571  -2.069   7.335  1.00  0.00     0.272 C 
BRANCH   7   8
HETATM    8  O2  UNL     1     -14.889  -3.291   7.565  1.00  0.00    -0.371 OA
ATOM      9  H2  UNL     1     -14.992  -3.820   6.782  1.00  0.00     0.212 HD
ENDBRANCH   7   8
BRANCH   7  10
HETATM   10  N1  UNL     1     -15.329  -1.566   6.004  1.00  0.00    -0.301 N 
ATOM     11  H1  UNL     1     -14.843  -0.684   5.846  1.00  0.00     0.183 HD
BRANCH  10  12
HETATM   12  N2  UNL     1     -15.779  -2.327   4.969  1.00  0.00    -0.271 N 
HETATM   13  C6  UNL     1     -15.007  -3.288   4.301  1.00  0.00     0.245 C 
HETATM   14  O3  UNL     1     -13.829  -3.494   4.659  1.00  0.00    -0.271 OA
ATOM     15  H2  UNL     1     -16.741  -2.189   4.659  1.00  0.00     0.189 HD
BRANCH  13  16
HETATM   16  C7  UNL     1     -15.614  -4.055   3.153  1.00  0.00     0.186 C 
BRANCH  16  17
HETATM   17  S1  UNL     1     -17.422  -4.088   3.358  1.00  0.00    -0.083 SA
BRANCH  17  18
HETATM   18  C8  UNL     1     -18.250  -2.919   2.342  1.00  0.00     0.166 A 
HETATM   19  N3  UNL     1     -17.701  -1.815   1.821  1.00  0.00    -0.337 N 
HETATM   20  C9  UNL     1     -18.671  -1.205   1.123  1.00  0.00     0.031 A 
ATOM     21  H3  UNL     1     -16.737  -1.501   1.933  1.00  0.00     0.168 HD
HETATM   22  C10 UNL     1     -18.545   0.070   0.362  1.00  0.00     0.070 C 
HETATM   23  C11 UNL     1     -19.816  -1.954   1.230  1.00  0.00     0.054 A 
HETATM   24  C12 UNL     1     -21.119  -1.600   0.594  1.00  0.00     0.072 C 
HETATM   25  N4  UNL     1     -19.548  -3.024   1.992  1.00  0.00    -0.243 N 
BRANCH  25  26
HETATM   26  N5  UNL     1     -20.429  -4.047   2.355  1.00  0.00    -0.336 N 
ATOM     27  H52 UNL     1     -20.189  -4.993   2.651  1.00  0.00     0.177 HD
ATOM     28  H51 UNL     1     -21.448  -3.993   2.376  1.00  0.00     0.177 HD
ENDBRANCH  25  26
ENDBRANCH  17  18
ENDBRANCH  16  17
ENDBRANCH  13  16
ENDBRANCH  10  12
ENDBRANCH   7  10
ENDBRANCH   2   7
BRANCH   1  29
HETATM   29  C2  UNL     1     -17.150  -0.415   9.342  1.00  0.00     0.173 C 
HETATM   30  C1  UNL     1     -17.836  -1.314  10.285  1.00  0.00     0.098 C 
HETATM   31  O1  UNL     1     -17.949   0.256   8.637  1.00  0.00    -0.291 OA
ENDBRANCH   1  29
BRANCH   3  32
HETATM   32  N6  UNL     1     -12.602  -1.380   7.428  1.00  0.00    -0.314 N 
HETATM   33  C14 UNL     1     -11.886  -2.499   7.938  1.00  0.00     0.279 C 
HETATM   34  O4  UNL     1     -12.197  -2.925   9.079  1.00  0.00    -0.265 OA
ATOM     35  H6  UNL     1     -12.382  -0.990   6.511  1.00  0.00     0.170 HD
BRANCH  33  36
HETATM   36  C15 UNL     1     -10.826  -3.153   7.191  1.00  0.00     0.169 A 
HETATM   37  N7  UNL     1      -9.564  -2.752   6.928  1.00  0.00    -0.233 N 
HETATM   38  O5  UNL     1      -8.963  -3.670   6.229  1.00  0.00    -0.155 OA
ATOM     39  H7  UNL     1      -9.148  -1.871   7.228  1.00  0.00     0.197 HD
HETATM   40  N8  UNL     1      -9.798  -4.671   6.022  1.00  0.00    -0.224 N 
HETATM   41  C16 UNL     1     -10.975  -4.413   6.595  1.00  0.00     0.155 A 
ATOM     42  H8  UNL     1      -9.576  -5.519   5.501  1.00  0.00     0.198 HD
HETATM   43  N9  UNL     1     -12.036  -5.124   6.632  1.00  0.00    -0.382 N 
ATOM     44  H92 UNL     1     -12.935  -4.927   7.070  1.00  0.00     0.157 HD
ATOM     45  H91 UNL     1     -12.144  -6.042   6.199  1.00  0.00     0.157 HD
ENDBRANCH  33  36
ENDBRANCH   3  32
TORSDOF 11
ENDMDL
MODEL 2
REMARK VINA RESULT: -9.189420497      0.890      1.001
REMARK  11 active torsions:
REMARK  status: ('A' for Active; 'I' for Inactive)
REMARK    1  A    between atoms: C2_2  and  C3_4 
REMARK    2  A    between atoms: C4_5  and  C5_6 
REMARK    3  A    between atoms: C5_6  and  O2_7 
REMARK    4  A    between atoms: C5_6  and  N1_9 
REMARK    5  A    between atoms: N1_9  and  N2_11 
REMARK       I    between atoms: N2_11  and  C6_13 
REMARK    6  A    between atoms: C6_13  and  C7_15 
REMARK    7  A    between atoms: C7_15  and  S1_16 
REMARK    8  A    between atoms: S1_16  and  C8_17 
REMARK    9  A    between atoms: N4_24  and  N5_25 
REMARK   10  A    between atoms: C13_28  and  N6_29 
REMARK       I    between atoms: N6_29  and  C14_31 
REMARK   11  A    between atoms: C14_31  and  C15_33 
ROOT
HETATM    1  C3  UNL     1     -16.037  -0.411   9.002  1.00  0.00     0.099 A 
HETATM    2  C4  UNL     1     -15.261  -1.157   8.148  1.00  0.00     0.057 A 
HETATM    3  C13 UNL     1     -13.949  -0.800   8.064  1.00  0.00     0.106 A 
HETATM    4  S2  UNL     1     -13.840   0.519   9.145  1.00  0.00     0.007 SA
HETATM    5  N10 UNL     1     -15.457   0.573   9.664  1.00  0.00    -0.316 N 
HETATM    6  C17 UNL     1     -15.948   1.556  10.659  1.00  0.00     0.165 C 
ENDROOT
BRANCH   2   7
HETATM    7  C5  UNL     1     -15.728  -2.334   7.292  1.00  0.00     0.272 C 
BRANCH   7   8
HETATM    8  O2  UNL     1     -14.816  -3.399   7.514  1.00  0.00    -0.371 OA
ATOM      9  H2  UNL     1     -14.495  -3.674   6.663  1.00  0.00     0.212 HD
ENDBRANCH   7   8
BRANCH   7  10
HETATM   10  N1  UNL     1     -15.688  -1.877   5.923  1.00  0.00    -0.301 N 
ATOM     11  H1  UNL     1     -15.349  -0.946   5.680  1.00  0.00     0.183 HD
BRANCH  10  12
HETATM   12  N2  UNL     1     -16.124  -2.748   4.972  1.00  0.00    -0.271 N 
HETATM   13  C6  UNL     1     -15.282  -3.573   4.213  1.00  0.00     0.245 C 
HETATM   14  O3  UNL     1     -14.049  -3.542   4.402  1.00  0.00    -0.271 OA
ATOM     15  H2  UNL     1     -17.127  -2.804   4.801  1.00  0.00     0.189 HD
BRANCH  13  16
HETATM   16  C7  UNL     1     -15.885  -4.484   3.172  1.00  0.00     0.186 C 
BRANCH  16  17
HETATM   17  S1  UNL     1     -16.197  -3.522   1.659  1.00  0.00    -0.083 SA
BRANCH  17  18
HETATM   18  C8  UNL     1     -17.893  -3.128   1.432  1.00  0.00     0.166 A 
HETATM   19  N3  UNL     1     -18.391  -1.893   1.292  1.00  0.00    -0.337 N 
HETATM   20  C9  UNL     1     -19.719  -2.036   1.152  1.00  0.00     0.031 A 
ATOM     21  H3  UNL     1     -17.867  -1.018   1.290  1.00  0.00     0.168 HD
HETATM   22  C10 UNL     1     -20.712  -0.940   0.969  1.00  0.00     0.070 C 
HETATM   23  C11 UNL     1     -20.017  -3.375   1.212  1.00  0.00     0.054 A 
HETATM   24  C12 UNL     1     -21.394  -3.938   1.103  1.00  0.00     0.072 C 
HETATM   25  N4  UNL     1     -18.874  -4.052   1.387  1.00  0.00    -0.243 N 
BRANCH  25  26
HETATM   26  N5  UNL     1     -18.719  -5.437   1.500  1.00  0.00    -0.336 N 
ATOM     27  H52 UNL     1     -19.422  -6.154   1.320  1.00  0.00     0.177 HD
ATOM     28  H51 UNL     1     -17.873  -5.933   1.780  1.00  0.00     0.177 HD
ENDBRANCH  25  26
ENDBRANCH  17  18
ENDBRANCH  16  17
ENDBRANCH  13  16
ENDBRANCH  10  12
ENDBRANCH   7  10
ENDBRANCH   2   7
BRANCH   1  29
HETATM   29  C2  UNL     1     -17.495  -0.683   9.136  1.00  0.00     0.173 C 
HETATM   30  C1  UNL     1     -18.080  -1.621  10.110  1.00  0.00     0.098 C 
HETATM   31  O1  UNL     1     -18.364  -0.121   8.418  1.00  0.00    -0.291 OA
ENDBRANCH   1  29
BRANCH   3  32
HETATM   32  N6  UNL     1     -12.853  -1.316   7.313  1.00  0.00    -0.314 N 
HETATM   33  C14 UNL     1     -12.016  -2.287   7.930  1.00  0.00     0.279 C 
HETATM   34  O4  UNL     1     -12.281  -2.627   9.110  1.00  0.00    -0.265 OA
ATOM     35  H6  UNL     1     -12.675  -0.999   6.360  1.00  0.00     0.170 HD
BRANCH  33  36
HETATM   36  C15 UNL     1     -10.883  -2.886   7.246  1.00  0.00     0.169 A 
HETATM   37  N7  UNL     1      -9.623  -2.432   7.073  1.00  0.00    -0.233 N 
HETATM   38  O5  UNL     1      -8.941  -3.315   6.404  1.00  0.00    -0.155 OA
ATOM     39  H7  UNL     1      -9.264  -1.540   7.412  1.00  0.00     0.197 HD
HETATM   40  N8  UNL     1      -9.719  -4.344   6.129  1.00  0.00    -0.224 N 
HETATM   41  C16 UNL     1     -10.941  -4.141   6.626  1.00  0.00     0.155 A 
ATOM     42  H8  UNL     1      -9.429  -5.174   5.612  1.00  0.00     0.198 HD
HETATM   43  N9  UNL     1     -11.972  -4.895   6.583  1.00  0.00    -0.382 N 
ATOM     44  H92 UNL     1     -12.906  -4.740   6.963  1.00  0.00     0.157 HD
ATOM     45  H91 UNL     1     -12.014  -5.809   6.131  1.00  0.00     0.157 HD
ENDBRANCH  33  36
ENDBRANCH   3  32
TORSDOF 11
ENDMDL
MODEL 3
REMARK VINA RESULT: -9.168907490      1.081      1.149
REMARK  11 active torsions:
REMARK  status: ('A' for Active; 'I' for Inactive)
REMARK    1  A    between atoms: C2_2  and  C3_4 
REMARK    2  A    between atoms: C4_5  and  C5_6 
REMARK    3  A    between atoms: C5_6  and  O2_7 
REMARK    4  A    between atoms: C5_6  and  N1_9 
REMARK    5  A    between atoms: N1_9  and  N2_11 
REMARK       I    between atoms: N2_11  and  C6_13 
REMARK    6  A    between atoms: C6_13  and  C7_15 
REMARK    7  A    between atoms: C7_15  and  S1_16 
REMARK    8  A    between atoms: S1_16  and  C8_17 
REMARK    9  A    between atoms: N4_24  and  N5_25 
REMARK   10  A    between atoms: C13_28  and  N6_29 
REMARK       I    between atoms: N6_29  and  C14_31 
REMARK   11  A    between atoms: C14_31  and  C15_33 
ROOT
HETATM    1  C3  UNL     1     -16.050  -0.730   8.802  1.00  0.00     0.099 A 
HETATM    2  C4  UNL     1     -15.550  -1.426   7.728  1.00  0.00     0.057 A 
HETATM    3  C13 UNL     1     -14.210  -1.308   7.510  1.00  0.00     0.106 A 
HETATM    4  S2  UNL     1     -13.706  -0.268   8.768  1.00  0.00     0.007 SA
HETATM    5  N10 UNL     1     -15.206  -0.018   9.526  1.00  0.00    -0.316 N 
HETATM    6  C17 UNL     1     -15.364   0.825  10.734  1.00  0.00     0.165 C 
ENDROOT
BRANCH   2   7
HETATM    7  C5  UNL     1     -16.347  -2.307   6.767  1.00  0.00     0.272 C 
BRANCH   7   8
HETATM    8  O2  UNL     1     -16.518  -3.565   7.398  1.00  0.00    -0.371 OA
ATOM      9  H2  UNL     1     -17.175  -4.040   6.902  1.00  0.00     0.212 HD
ENDBRANCH   7   8
BRANCH   7  10
HETATM   10  N1  UNL     1     -15.550  -2.416   5.568  1.00  0.00    -0.301 N 
ATOM     11  H1  UNL     1     -14.638  -1.967   5.489  1.00  0.00     0.183 HD
BRANCH  10  12
HETATM   12  N2  UNL     1     -16.075  -3.149   4.547  1.00  0.00    -0.271 N 
HETATM   13  C6  UNL     1     -15.319  -3.697   3.501  1.00  0.00     0.245 C 
HETATM   14  O3  UNL     1     -14.083  -3.534   3.477  1.00  0.00    -0.271 OA
ATOM     15  H2  UNL     1     -17.082  -3.309   4.543  1.00  0.00     0.189 HD
BRANCH  13  16
HETATM   16  C7  UNL     1     -16.020  -4.474   2.413  1.00  0.00     0.186 C 
BRANCH  16  17
HETATM   17  S1  UNL     1     -17.814  -4.417   2.713  1.00  0.00    -0.083 SA
BRANCH  17  18
HETATM   18  C8  UNL     1     -18.596  -3.045   1.944  1.00  0.00     0.166 A 
HETATM   19  N3  UNL     1     -17.982  -1.922   1.552  1.00  0.00    -0.337 N 
HETATM   20  C9  UNL     1     -18.935  -1.136   1.025  1.00  0.00     0.031 A 
ATOM     21  H3  UNL     1     -16.989  -1.706   1.635  1.00  0.00     0.168 HD
HETATM   22  C10 UNL     1     -18.742   0.226   0.452  1.00  0.00     0.070 C 
HETATM   23  C11 UNL     1     -20.134  -1.799   1.107  1.00  0.00     0.054 A 
HETATM   24  C12 UNL     1     -21.437  -1.249   0.630  1.00  0.00     0.072 C 
HETATM   25  N4  UNL     1     -19.917  -2.990   1.681  1.00  0.00    -0.243 N 
BRANCH  25  26
HETATM   26  N5  UNL     1     -20.862  -3.983   1.956  1.00  0.00    -0.336 N 
ATOM     27  H52 UNL     1     -21.117  -4.775   1.365  1.00  0.00     0.177 HD
ATOM     28  H51 UNL     1     -21.438  -4.059   2.795  1.00  0.00     0.177 HD
ENDBRANCH  25  26
ENDBRANCH  17  18
ENDBRANCH  16  17
ENDBRANCH  13  16
ENDBRANCH  10  12
ENDBRANCH   7  10
ENDBRANCH   2   7
BRANCH   1  29
HETATM   29  C2  UNL     1     -17.509  -0.748   9.106  1.00  0.00     0.173 C 
HETATM   30  C1  UNL     1     -18.124  -1.544  10.182  1.00  0.00     0.098 C 
HETATM   31  O1  UNL     1     -18.350  -0.070   8.458  1.00  0.00    -0.291 OA
ENDBRANCH   1  29
BRANCH   3  32
HETATM   32  N6  UNL     1     -13.340  -1.862   6.527  1.00  0.00    -0.314 N 
HETATM   33  C14 UNL     1     -12.563  -3.000   6.884  1.00  0.00     0.279 C 
HETATM   34  O4  UNL     1     -12.678  -3.447   8.053  1.00  0.00    -0.265 OA
ATOM     35  H6  UNL     1     -13.275  -1.455   5.594  1.00  0.00     0.170 HD
BRANCH  33  36
HETATM   36  C15 UNL     1     -11.657  -3.648   5.952  1.00  0.00     0.169 A 
HETATM   37  N7  UNL     1     -11.531  -3.514   4.614  1.00  0.00    -0.233 N 
HETATM   38  O5  UNL     1     -10.572  -4.288   4.198  1.00  0.00    -0.155 OA
ATOM     39  H7  UNL     1     -12.097  -2.904   4.025  1.00  0.00     0.197 HD
HETATM   40  N8  UNL     1     -10.059  -4.933   5.229  1.00  0.00    -0.224 N 
HETATM   41  C16 UNL     1     -10.688  -4.580   6.350  1.00  0.00     0.155 A 
ATOM     42  H8  UNL     1      -9.292  -5.603   5.175  1.00  0.00     0.198 HD
HETATM   43  N9  UNL     1     -10.488  -4.967   7.552  1.00  0.00    -0.382 N 
ATOM     44  H92 UNL     1     -10.970  -4.697   8.409  1.00  0.00     0.157 HD
ATOM     45  H91 UNL     1      -9.783  -5.645   7.842  1.00  0.00     0.157 HD
ENDBRANCH  33  36
ENDBRANCH   3  32
TORSDOF 11
ENDMDL
MODEL 4
REMARK VINA RESULT: -8.992308131      1.287      1.377
REMARK  11 active torsions:
REMARK  status: ('A' for Active; 'I' for Inactive)
REMARK    1  A    between atoms: C2_2  and  C3_4 
REMARK    2  A    between atoms: C4_5  and  C5_6 
REMARK    3  A    between atoms: C5_6  and  O2_7 
REMARK    4  A    between atoms: C5_6  and  N1_9 
REMARK    5  A    between atoms: N1_9  and  N2_11 
REMARK       I    between atoms: N2_11  and  C6_13 
REMARK    6  A    between atoms: C6_13  and  C7_15 
REMARK    7  A    between atoms: C7_15  and  S1_16 
REMARK    8  A    between atoms: S1_16  and  C8_17 
REMARK    9  A    between atoms: N4_24  and  N5_25 
REMARK   10  A    between atoms: C13_28  and  N6_29 
REMARK       I    between atoms: N6_29  and  C14_31 
REMARK   11  A    between atoms: C14_31  and  C15_33 
ROOT
HETATM    1  C3  UNL     1     -14.185  -0.272   9.053  1.00  0.00     0.099 A 
HETATM    2  C4  UNL     1     -13.789  -1.251   8.174  1.00  0.00     0.057 A 
HETATM    3  C13 UNL     1     -12.473  -1.245   7.824  1.00  0.00     0.106 A 
HETATM    4  S2  UNL     1     -11.848   0.081   8.703  1.00  0.00     0.007 SA
HETATM    5  N10 UNL     1     -13.272   0.581   9.482  1.00  0.00    -0.316 N 
HETATM    6  C17 UNL     1     -13.314   1.727  10.421  1.00  0.00     0.165 C 
ENDROOT
BRANCH   2   7
HETATM    7  C5  UNL     1     -14.678  -2.332   7.560  1.00  0.00     0.272 C 
BRANCH   7   8
HETATM    8  O2  UNL     1     -13.973  -3.558   7.659  1.00  0.00    -0.371 OA
ATOM      9  H2  UNL     1     -13.924  -3.924   6.783  1.00  0.00     0.212 HD
ENDBRANCH   7   8
BRANCH   7  10
HETATM   10  N1  UNL     1     -14.885  -1.947   6.184  1.00  0.00    -0.301 N 
ATOM     11  H1  UNL     1     -14.254  -1.302   5.708  1.00  0.00     0.183 HD
BRANCH  10  12
HETATM   12  N2  UNL     1     -15.963  -2.486   5.551  1.00  0.00    -0.271 N 
HETATM   13  C6  UNL     1     -15.884  -3.298   4.411  1.00  0.00     0.245 C 
HETATM   14  O3  UNL     1     -14.770  -3.574   3.922  1.00  0.00    -0.271 OA
ATOM     15  H2  UNL     1     -16.888  -2.287   5.932  1.00  0.00     0.189 HD
BRANCH  13  16
HETATM   16  C7  UNL     1     -17.155  -3.820   3.787  1.00  0.00     0.186 C 
BRANCH  16  17
HETATM   17  S1  UNL     1     -17.101  -3.511   1.995  1.00  0.00    -0.083 SA
BRANCH  17  18
HETATM   18  C8  UNL     1     -18.264  -2.305   1.469  1.00  0.00     0.166 A 
HETATM   19  N3  UNL     1     -17.963  -1.083   1.014  1.00  0.00    -0.337 N 
HETATM   20  C9  UNL     1     -19.132  -0.487   0.732  1.00  0.00     0.031 A 
ATOM     21  H3  UNL     1     -17.031  -0.684   0.903  1.00  0.00     0.168 HD
HETATM   22  C10 UNL     1     -19.316   0.892   0.198  1.00  0.00     0.070 C 
HETATM   23  C11 UNL     1     -20.146  -1.366   1.025  1.00  0.00     0.054 A 
HETATM   24  C12 UNL     1     -21.598  -1.068   0.851  1.00  0.00     0.072 C 
HETATM   25  N4  UNL     1     -19.598  -2.500   1.484  1.00  0.00    -0.243 N 
BRANCH  25  26
HETATM   26  N5  UNL     1     -20.267  -3.656   1.898  1.00  0.00    -0.336 N 
ATOM     27  H52 UNL     1     -20.110  -4.610   1.572  1.00  0.00     0.177 HD
ATOM     28  H51 UNL     1     -21.013  -3.711   2.591  1.00  0.00     0.177 HD
ENDBRANCH  25  26
ENDBRANCH  17  18
ENDBRANCH  16  17
ENDBRANCH  13  16
ENDBRANCH  10  12
ENDBRANCH   7  10
ENDBRANCH   2   7
BRANCH   1  29
HETATM   29  C2  UNL     1     -15.611  -0.154   9.468  1.00  0.00     0.173 C 
HETATM   30  C1  UNL     1     -16.637   0.590   8.717  1.00  0.00     0.098 C 
HETATM   31  O1  UNL     1     -16.066  -0.696  10.510  1.00  0.00    -0.291 OA
ENDBRANCH   1  29
BRANCH   3  32
HETATM   32  N6  UNL     1     -11.698  -2.076   6.963  1.00  0.00    -0.314 N 
HETATM   33  C14 UNL     1     -11.012  -3.181   7.539  1.00  0.00     0.279 C 
HETATM   34  O4  UNL     1     -11.115  -3.356   8.779  1.00  0.00    -0.265 OA
ATOM     35  H6  UNL     1     -11.638  -1.884   5.963  1.00  0.00     0.170 HD
BRANCH  33  36
HETATM   36  C15 UNL     1     -10.208  -4.097   6.748  1.00  0.00     0.169 A 
HETATM   37  N7  UNL     1      -8.949  -3.975   6.276  1.00  0.00    -0.233 N 
HETATM   38  O5  UNL     1      -8.633  -5.056   5.625  1.00  0.00    -0.155 OA
ATOM     39  H7  UNL     1      -8.343  -3.166   6.408  1.00  0.00     0.197 HD
HETATM   40  N8  UNL     1      -9.653  -5.892   5.654  1.00  0.00    -0.224 N 
HETATM   41  C16 UNL     1     -10.666  -5.357   6.338  1.00  0.00     0.155 A 
ATOM     42  H8  UNL     1      -9.665  -6.814   5.218  1.00  0.00     0.198 HD
HETATM   43  N9  UNL     1     -11.818  -5.843   6.600  1.00  0.00    -0.382 N 
ATOM     44  H92 UNL     1     -12.592  -5.434   7.123  1.00  0.00     0.157 HD
ATOM     45  H91 UNL     1     -12.151  -6.760   6.301  1.00  0.00     0.157 HD
ENDBRANCH  33  36
ENDBRANCH   3  32
TORSDOF 11
ENDMDL
MODEL 5
REMARK VINA RESULT: -8.714837932      5.452     10.109
REMARK  11 active torsions:
REMARK  status: ('A' for Active; 'I' for Inactive)
REMARK    1  A    between atoms: C2_2  and  C3_4 
REMARK    2  A    between atoms: C4_5  and  C5_6 
REMARK    3  A    between atoms: C5_6  and  O2_7 
REMARK    4  A    between atoms: C5_6  and  N1_9 
REMARK    5  A    between atoms: N1_9  and  N2_11 
REMARK       I    between atoms: N2_11  and  C6_13 
REMARK    6  A    between atoms: C6_13  and  C7_15 
REMARK    7  A    between atoms: C7_15  and  S1_16 
REMARK    8  A    between atoms: S1_16  and  C8_17 
REMARK    9  A    between atoms: N4_24  and  N5_25 
REMARK   10  A    between atoms: C13_28  and  N6_29 
REMARK       I    between atoms: N6_29  and  C14_31 
REMARK   11  A    between atoms: C14_31  and  C15_33 
ROOT
HETATM    1  C3  UNL     1     -14.286   0.143   9.733  1.00  0.00     0.099 A 
HETATM    2  C4  UNL     1     -13.160  -0.379   9.145  1.00  0.00     0.057 A 
HETATM    3  C13 UNL     1     -13.316  -0.875   7.886  1.00  0.00     0.106 A 
HETATM    4  S2  UNL     1     -14.974  -0.605   7.570  1.00  0.00     0.007 SA
HETATM    5  N10 UNL     1     -15.411   0.126   9.041  1.00  0.00    -0.316 N 
HETATM    6  C17 UNL     1     -16.786   0.600   9.324  1.00  0.00     0.165 C 
ENDROOT
BRANCH   2   7
HETATM    7  C5  UNL     1     -11.765  -0.456   9.766  1.00  0.00     0.272 C 
BRANCH   7   8
HETATM    8  O2  UNL     1     -10.833  -0.471   8.696  1.00  0.00    -0.371 OA
ATOM      9  H2  UNL     1     -10.338  -1.279   8.768  1.00  0.00     0.212 HD
ENDBRANCH   7   8
BRANCH   7  10
HETATM   10  N1  UNL     1     -11.728  -1.686  10.520  1.00  0.00    -0.301 N 
ATOM     11  H1  UNL     1     -11.879  -2.591  10.074  1.00  0.00     0.183 HD
BRANCH  10  12
HETATM   12  N2  UNL     1     -11.483  -1.581  11.855  1.00  0.00    -0.271 N 
HETATM   13  C6  UNL     1     -11.703  -2.610  12.781  1.00  0.00     0.245 C 
HETATM   14  O3  UNL     1     -12.141  -3.712  12.392  1.00  0.00    -0.271 OA
ATOM     15  H2  UNL     1     -11.115  -0.696  12.203  1.00  0.00     0.189 HD
BRANCH  13  16
HETATM   16  C7  UNL     1     -11.411  -2.364  14.241  1.00  0.00     0.186 C 
BRANCH  16  17
HETATM   17  S1  UNL     1     -11.344  -3.964  15.105  1.00  0.00    -0.083 SA
BRANCH  17  18
HETATM   18  C8  UNL     1     -11.601  -3.821  16.836  1.00  0.00     0.166 A 
HETATM   19  N3  UNL     1     -10.803  -3.166  17.688  1.00  0.00    -0.337 N 
HETATM   20  C9  UNL     1     -11.353  -3.310  18.905  1.00  0.00     0.031 A 
ATOM     21  H3  UNL     1      -9.948  -2.659  17.459  1.00  0.00     0.168 HD
HETATM   22  C10 UNL     1     -10.825  -2.758  20.184  1.00  0.00     0.070 C 
HETATM   23  C11 UNL     1     -12.494  -4.062  18.777  1.00  0.00     0.054 A 
HETATM   24  C12 UNL     1     -13.385  -4.445  19.911  1.00  0.00     0.072 C 
HETATM   25  N4  UNL     1     -12.645  -4.379  17.483  1.00  0.00    -0.243 N 
BRANCH  25  26
HETATM   26  N5  UNL     1     -13.673  -5.134  16.911  1.00  0.00    -0.336 N 
ATOM     27  H52 UNL     1     -14.677  -4.982  17.005  1.00  0.00     0.177 HD
ATOM     28  H51 UNL     1     -13.564  -5.951  16.310  1.00  0.00     0.177 HD
ENDBRANCH  25  26
ENDBRANCH  17  18
ENDBRANCH  16  17
ENDBRANCH  13  16
ENDBRANCH  10  12
ENDBRANCH   7  10
ENDBRANCH   2   7
BRANCH   1  29
HETATM   29  C2  UNL     1     -14.241   0.670  11.126  1.00  0.00     0.173 C 
HETATM   30  C1  UNL     1     -14.239   2.102  11.474  1.00  0.00     0.098 C 
HETATM   31  O1  UNL     1     -14.205  -0.079  12.138  1.00  0.00    -0.291 OA
ENDBRANCH   1  29
BRANCH   3  32
HETATM   32  N6  UNL     1     -12.411  -1.481   6.967  1.00  0.00    -0.314 N 
HETATM   33  C14 UNL     1     -12.423  -2.899   6.851  1.00  0.00     0.279 C 
HETATM   34  O4  UNL     1     -13.223  -3.542   7.576  1.00  0.00    -0.265 OA
ATOM     35  H6  UNL     1     -11.773  -0.914   6.408  1.00  0.00     0.170 HD
BRANCH  33  36
HETATM   36  C15 UNL     1     -11.551  -3.613   5.934  1.00  0.00     0.169 A 
HETATM   37  N7  UNL     1     -11.433  -3.528   4.592  1.00  0.00    -0.233 N 
HETATM   38  O5  UNL     1     -10.509  -4.353   4.194  1.00  0.00    -0.155 OA
ATOM     39  H7  UNL     1     -11.981  -2.917   3.987  1.00  0.00     0.197 HD
HETATM   40  N8  UNL     1     -10.011  -4.982   5.241  1.00  0.00    -0.224 N 
HETATM   41  C16 UNL     1     -10.616  -4.568   6.356  1.00  0.00     0.155 A 
ATOM     42  H8  UNL     1      -9.271  -5.683   5.204  1.00  0.00     0.198 HD
HETATM   43  N9  UNL     1     -10.420  -4.922   7.568  1.00  0.00    -0.382 N 
ATOM     44  H92 UNL     1     -10.882  -4.605   8.420  1.00  0.00     0.157 HD
ATOM     45  H91 UNL     1      -9.738  -5.617   7.874  1.00  0.00     0.157 HD
ENDBRANCH  33  36
ENDBRANCH   3  32
TORSDOF 11
ENDMDL
