MODEL 1
REMARK VINA RESULT: -9.314180877      0.000      0.000
REMARK  7 active torsions:
REMARK  status: ('A' for Active; 'I' for Inactive)
REMARK    1  A    between atoms: N1_2  and  C2_4 
REMARK    2  A    between atoms: C3_7  and  N3_8 
REMARK    3  A    between atoms: N3_8  and  C4_10 
REMARK    4  A    between atoms: C10_19  and  N5_20 
REMARK    5  A    between atoms: N5_20  and  C11_22 
REMARK    6  A    between atoms: C14_25  and  C15_26 
REMARK       I    between atoms: C15_26  and  N6_28 
REMARK    7  A    between atoms: N6_28  and  C16_30 
ROOT
HETATM    1  C2  UNL     1      -4.430   1.387  15.378  1.00  0.00     0.706 A 
HETATM    2  N2  UNL     1      -4.497   0.821  14.164  1.00  0.00    -0.021 N 
ATOM      3  H2  UNL     1      -4.577  -0.193  14.090  1.00  0.00     0.203 HD
HETATM    4  C3  UNL     1      -4.462   1.574  13.026  1.00  0.00     0.711 A 
HETATM    5  N4  UNL     1      -4.356   2.914  13.158  1.00  0.00    -0.021 N 
ATOM      6  H4  UNL     1      -4.328   3.500  12.324  1.00  0.00     0.203 HD
HETATM    7  C10 UNL     1      -4.289   3.484  14.367  1.00  0.00     0.711 A 
HETATM    8  N9  UNL     1      -4.325   2.722  15.474  1.00  0.00    -0.021 N 
ATOM      9  H9  UNL     1      -4.272   3.161  16.393  1.00  0.00     0.203 HD
ENDROOT
BRANCH   7  10
HETATM   10  N5  UNL     1      -4.188   4.769  14.468  1.00  0.00    -0.191 N 
ATOM     11  H5  UNL     1      -3.641   5.162  15.233  1.00  0.00     0.184 HD
BRANCH  10  12
HETATM   12  C11 UNL     1      -4.815   5.656  13.549  1.00  0.00     0.049 A 
HETATM   13  C12 UNL     1      -4.095   6.386  12.625  1.00  0.00     0.031 A 
HETATM   14  C13 UNL     1      -4.702   7.246  11.734  1.00  0.00     0.019 A 
HETATM   15  C14 UNL     1      -6.071   7.414  11.727  1.00  0.00     0.032 A 
HETATM   16  C19 UNL     1      -6.794   6.684  12.648  1.00  0.00     0.019 A 
HETATM   17  C20 UNL     1      -6.184   5.822  13.542  1.00  0.00     0.031 A 
BRANCH  15  18
HETATM   18  C15 UNL     1      -6.718   8.322  10.787  1.00  0.00     0.257 C 
HETATM   19  O1  UNL     1      -6.461   9.552  10.791  1.00  0.00    -0.267 OA
HETATM   20  N6  UNL     1      -7.657   7.847   9.839  1.00  0.00    -0.308 N 
ATOM     21  H6  UNL     1      -8.633   7.731  10.110  1.00  0.00     0.170 HD
BRANCH  20  22
HETATM   22  C16 UNL     1      -7.297   7.564   8.657  1.00  0.00     0.123 A 
HETATM   23  C17 UNL     1      -6.948   8.438   7.665  1.00  0.00     0.068 A 
HETATM   24  C18 UNL     1      -6.630   7.690   6.554  1.00  0.00     0.111 A 
HETATM   25  N7  UNL     1      -6.787   6.376   6.879  1.00  0.00    -0.310 N 
HETATM   26  N8  UNL     1      -7.189   6.330   8.147  1.00  0.00    -0.286 N 
ATOM     27  H7  UNL     1      -6.626   5.577   6.266  1.00  0.00     0.186 HD
ATOM     28  H8  UNL     1      -7.387   5.471   8.660  1.00  0.00     0.188 HD
ENDBRANCH  20  22
ENDBRANCH  15  18
ENDBRANCH  10  12
ENDBRANCH   7  10
BRANCH   4  29
HETATM   29  N3  UNL     1      -4.525   1.051  11.849  1.00  0.00    -0.191 N 
ATOM     30  H3  UNL     1      -5.261   1.348  11.207  1.00  0.00     0.184 HD
BRANCH  29  31
HETATM   31  C4  UNL     1      -3.593   0.073  11.434  1.00  0.00     0.049 A 
HETATM   32  C5  UNL     1      -2.456   0.489  10.785  1.00  0.00     0.033 A 
HETATM   33  C6  UNL     1      -1.501  -0.413  10.350  1.00  0.00     0.044 A 
HETATM   34  C7  UNL     1      -1.670  -1.766  10.560  1.00  0.00     0.116 A 
HETATM   35  F1  UNL     1      -0.720  -2.635  10.125  1.00  0.00    -0.206 F 
HETATM   36  C8  UNL     1      -2.813  -2.168  11.211  1.00  0.00     0.044 A 
HETATM   37  C9  UNL     1      -3.769  -1.275  11.647  1.00  0.00     0.033 A 
ENDBRANCH  29  31
ENDBRANCH   4  29
BRANCH   1  38
HETATM   38  N1  UNL     1      -4.464   0.671  16.423  1.00  0.00    -0.229 N 
HETATM   39  C1  UNL     1      -5.602   0.581  17.316  1.00  0.00     0.165 C 
ATOM     40  H1  UNL     1      -3.635   0.121  16.650  1.00  0.00     0.177 HD
ENDBRANCH   1  38
TORSDOF 7
ENDMDL
MODEL 2
REMARK VINA RESULT: -9.124483827      4.262      8.038
REMARK  7 active torsions:
REMARK  status: ('A' for Active; 'I' for Inactive)
REMARK    1  A    between atoms: N1_2  and  C2_4 
REMARK    2  A    between atoms: C3_7  and  N3_8 
REMARK    3  A    between atoms: N3_8  and  C4_10 
REMARK    4  A    between atoms: C10_19  and  N5_20 
REMARK    5  A    between atoms: N5_20  and  C11_22 
REMARK    6  A    between atoms: C14_25  and  C15_26 
REMARK       I    between atoms: C15_26  and  N6_28 
REMARK    7  A    between atoms: N6_28  and  C16_30 
ROOT
HETATM    1  C2  UNL     1      -4.535   1.197  15.494  1.00  0.00     0.706 A 
HETATM    2  N2  UNL     1      -4.483   2.532  15.615  1.00  0.00    -0.021 N 
ATOM      3  H2  UNL     1      -4.630   2.956  16.531  1.00  0.00     0.203 HD
HETATM    4  C3  UNL     1      -4.237   3.333  14.538  1.00  0.00     0.711 A 
HETATM    5  N4  UNL     1      -4.046   2.741  13.339  1.00  0.00    -0.021 N 
ATOM      6  H4  UNL     1      -3.860   3.316  12.518  1.00  0.00     0.203 HD
HETATM    7  C10 UNL     1      -4.097   1.409  13.214  1.00  0.00     0.711 A 
HETATM    8  N9  UNL     1      -4.342   0.639  14.289  1.00  0.00    -0.021 N 
ATOM      9  H9  UNL     1      -4.382  -0.375  14.187  1.00  0.00     0.203 HD
ENDROOT
BRANCH   7  10
HETATM   10  N5  UNL     1      -3.912   0.864  12.055  1.00  0.00    -0.191 N 
ATOM     11  H5  UNL     1      -4.568   0.153  11.735  1.00  0.00     0.184 HD
BRANCH  10  12
HETATM   12  C11 UNL     1      -2.824   1.223  11.212  1.00  0.00     0.049 A 
HETATM   13  C12 UNL     1      -2.461   2.538  11.000  1.00  0.00     0.031 A 
HETATM   14  C13 UNL     1      -1.407   2.886  10.182  1.00  0.00     0.019 A 
HETATM   15  C14 UNL     1      -0.660   1.923   9.534  1.00  0.00     0.032 A 
HETATM   16  C19 UNL     1      -1.020   0.608   9.745  1.00  0.00     0.019 A 
HETATM   17  C20 UNL     1      -2.078   0.260  10.565  1.00  0.00     0.031 A 
BRANCH  15  18
HETATM   18  C15 UNL     1       0.456   2.286   8.669  1.00  0.00     0.257 C 
HETATM   19  O1  UNL     1       1.044   3.389   8.794  1.00  0.00    -0.267 OA
HETATM   20  N6  UNL     1       0.914   1.405   7.658  1.00  0.00    -0.308 N 
ATOM     21  H6  UNL     1       0.454   1.399   6.749  1.00  0.00     0.170 HD
BRANCH  20  22
HETATM   22  C16 UNL     1       1.890   0.625   7.873  1.00  0.00     0.123 A 
HETATM   23  C17 UNL     1       1.845  -0.730   8.046  1.00  0.00     0.068 A 
HETATM   24  C18 UNL     1       3.136  -1.160   8.251  1.00  0.00     0.111 A 
HETATM   25  N7  UNL     1       3.950  -0.068   8.200  1.00  0.00    -0.310 N 
HETATM   26  N8  UNL     1       3.175   0.990   7.973  1.00  0.00    -0.286 N 
ATOM     27  H7  UNL     1       4.963  -0.062   8.315  1.00  0.00     0.186 HD
ATOM     28  H8  UNL     1       3.514   1.948   7.887  1.00  0.00     0.188 HD
ENDBRANCH  20  22
ENDBRANCH  15  18
ENDBRANCH  10  12
ENDBRANCH   7  10
BRANCH   4  29
HETATM   29  N3  UNL     1      -4.181   4.618  14.631  1.00  0.00    -0.191 N 
ATOM     30  H3  UNL     1      -3.559   5.045  15.318  1.00  0.00     0.184 HD
BRANCH  29  31
HETATM   31  C4  UNL     1      -4.968   5.444  13.797  1.00  0.00     0.049 A 
HETATM   32  C5  UNL     1      -6.318   5.523  14.041  1.00  0.00     0.033 A 
HETATM   33  C6  UNL     1      -7.148   6.312  13.264  1.00  0.00     0.044 A 
HETATM   34  C7  UNL     1      -6.635   7.046  12.215  1.00  0.00     0.116 A 
HETATM   35  F1  UNL     1      -7.468   7.815  11.465  1.00  0.00    -0.206 F 
HETATM   36  C8  UNL     1      -5.282   6.957  11.982  1.00  0.00     0.044 A 
HETATM   37  C9  UNL     1      -4.449   6.174  12.752  1.00  0.00     0.033 A 
ENDBRANCH  29  31
ENDBRANCH   4  29
BRANCH   1  38
HETATM   38  N1  UNL     1      -4.766   0.470  16.506  1.00  0.00    -0.229 N 
HETATM   39  C1  UNL     1      -5.915   0.620  17.376  1.00  0.00     0.165 C 
ATOM     40  H1  UNL     1      -4.098  -0.270  16.722  1.00  0.00     0.177 HD
ENDBRANCH   1  38
TORSDOF 7
ENDMDL
MODEL 3
REMARK VINA RESULT: -8.915784031      5.132      8.437
REMARK  7 active torsions:
REMARK  status: ('A' for Active; 'I' for Inactive)
REMARK    1  A    between atoms: N1_2  and  C2_4 
REMARK    2  A    between atoms: C3_7  and  N3_8 
REMARK    3  A    between atoms: N3_8  and  C4_10 
REMARK    4  A    between atoms: C10_19  and  N5_20 
REMARK    5  A    between atoms: N5_20  and  C11_22 
REMARK    6  A    between atoms: C14_25  and  C15_26 
REMARK       I    between atoms: C15_26  and  N6_28 
REMARK    7  A    between atoms: N6_28  and  C16_30 
ROOT
HETATM    1  C2  UNL     1      -4.213   1.933  11.569  1.00  0.00     0.706 A 
HETATM    2  N2  UNL     1      -4.337   2.115  12.892  1.00  0.00    -0.021 N 
ATOM      3  H2  UNL     1      -4.955   1.503  13.425  1.00  0.00     0.203 HD
HETATM    4  C3  UNL     1      -3.653   3.102  13.541  1.00  0.00     0.711 A 
HETATM    5  N4  UNL     1      -2.843   3.897  12.808  1.00  0.00    -0.021 N 
ATOM      6  H4  UNL     1      -2.320   4.642  13.268  1.00  0.00     0.203 HD
HETATM    7  C10 UNL     1      -2.715   3.719  11.488  1.00  0.00     0.711 A 
HETATM    8  N9  UNL     1      -3.399   2.741  10.869  1.00  0.00    -0.021 N 
ATOM      9  H9  UNL     1      -3.300   2.610   9.863  1.00  0.00     0.203 HD
ENDROOT
BRANCH   7  10
HETATM   10  N5  UNL     1      -1.933   4.492  10.807  1.00  0.00    -0.191 N 
ATOM     11  H5  UNL     1      -2.171   5.480  10.721  1.00  0.00     0.184 HD
BRANCH  10  12
HETATM   12  C11 UNL     1      -0.753   4.014  10.175  1.00  0.00     0.049 A 
HETATM   13  C12 UNL     1       0.503   4.223  10.708  1.00  0.00     0.031 A 
HETATM   14  C13 UNL     1       1.648   3.759  10.095  1.00  0.00     0.019 A 
HETATM   15  C14 UNL     1       1.586   3.057   8.909  1.00  0.00     0.032 A 
HETATM   16  C19 UNL     1       0.332   2.845   8.373  1.00  0.00     0.019 A 
HETATM   17  C20 UNL     1      -0.816   3.311   8.989  1.00  0.00     0.031 A 
BRANCH  15  18
HETATM   18  C15 UNL     1       2.793   2.565   8.256  1.00  0.00     0.257 C 
HETATM   19  O1  UNL     1       3.928   3.003   8.573  1.00  0.00    -0.267 OA
HETATM   20  N6  UNL     1       2.727   1.575   7.245  1.00  0.00    -0.308 N 
ATOM     21  H6  UNL     1       2.544   1.851   6.281  1.00  0.00     0.170 HD
BRANCH  20  22
HETATM   22  C16 UNL     1       2.893   0.350   7.525  1.00  0.00     0.123 A 
HETATM   23  C17 UNL     1       2.003  -0.487   8.139  1.00  0.00     0.068 A 
HETATM   24  C18 UNL     1       2.605  -1.721   8.239  1.00  0.00     0.111 A 
HETATM   25  N7  UNL     1       3.848  -1.622   7.689  1.00  0.00    -0.310 N 
HETATM   26  N8  UNL     1       3.994  -0.368   7.270  1.00  0.00    -0.286 N 
ATOM     27  H7  UNL     1       4.538  -2.370   7.613  1.00  0.00     0.186 HD
ATOM     28  H8  UNL     1       4.832  -0.004   6.816  1.00  0.00     0.188 HD
ENDBRANCH  20  22
ENDBRANCH  15  18
ENDBRANCH  10  12
ENDBRANCH   7  10
BRANCH   4  29
HETATM   29  N3  UNL     1      -3.757   3.295  14.811  1.00  0.00    -0.191 N 
ATOM     30  H3  UNL     1      -3.122   3.947  15.274  1.00  0.00     0.184 HD
BRANCH  29  31
HETATM   31  C4  UNL     1      -4.735   2.618  15.575  1.00  0.00     0.049 A 
HETATM   32  C5  UNL     1      -5.954   3.223  15.759  1.00  0.00     0.033 A 
HETATM   33  C6  UNL     1      -6.958   2.618  16.495  1.00  0.00     0.044 A 
HETATM   34  C7  UNL     1      -6.756   1.379  17.067  1.00  0.00     0.116 A 
HETATM   35  F1  UNL     1      -7.755   0.803  17.786  1.00  0.00    -0.206 F 
HETATM   36  C8  UNL     1      -5.530   0.785  16.875  1.00  0.00     0.044 A 
HETATM   37  C9  UNL     1      -4.526   1.381  16.142  1.00  0.00     0.033 A 
ENDBRANCH  29  31
ENDBRANCH   4  29
BRANCH   1  38
HETATM   38  N1  UNL     1      -4.857   1.012  10.985  1.00  0.00    -0.229 N 
HETATM   39  C1  UNL     1      -4.404  -0.361  10.878  1.00  0.00     0.165 C 
ATOM     40  H1  UNL     1      -5.753   1.252  10.562  1.00  0.00     0.177 HD
ENDBRANCH   1  38
TORSDOF 7
ENDMDL
MODEL 4
REMARK VINA RESULT: -8.897278841      0.762      1.268
REMARK  7 active torsions:
REMARK  status: ('A' for Active; 'I' for Inactive)
REMARK    1  A    between atoms: N1_2  and  C2_4 
REMARK    2  A    between atoms: C3_7  and  N3_8 
REMARK    3  A    between atoms: N3_8  and  C4_10 
REMARK    4  A    between atoms: C10_19  and  N5_20 
REMARK    5  A    between atoms: N5_20  and  C11_22 
REMARK    6  A    between atoms: C14_25  and  C15_26 
REMARK       I    between atoms: C15_26  and  N6_28 
REMARK    7  A    between atoms: N6_28  and  C16_30 
ROOT
HETATM    1  C2  UNL     1      -4.366   1.438  15.460  1.00  0.00     0.706 A 
HETATM    2  N2  UNL     1      -4.452   0.837  14.264  1.00  0.00    -0.021 N 
ATOM      3  H2  UNL     1      -4.555  -0.177  14.221  1.00  0.00     0.203 HD
HETATM    4  C3  UNL     1      -4.405   1.555  13.104  1.00  0.00     0.711 A 
HETATM    5  N4  UNL     1      -4.268   2.895  13.195  1.00  0.00    -0.021 N 
ATOM      6  H4  UNL     1      -4.230   3.455  12.343  1.00  0.00     0.203 HD
HETATM    7  C10 UNL     1      -4.181   3.499  14.386  1.00  0.00     0.711 A 
HETATM    8  N9  UNL     1      -4.229   2.773  15.516  1.00  0.00    -0.021 N 
ATOM      9  H9  UNL     1      -4.162   3.237  16.421  1.00  0.00     0.203 HD
ENDROOT
BRANCH   7  10
HETATM   10  N5  UNL     1      -4.051   4.785  14.447  1.00  0.00    -0.191 N 
ATOM     11  H5  UNL     1      -3.450   5.184  15.168  1.00  0.00     0.184 HD
BRANCH  10  12
HETATM   12  C11 UNL     1      -4.715   5.661  13.546  1.00  0.00     0.049 A 
HETATM   13  C12 UNL     1      -6.090   5.794  13.529  1.00  0.00     0.031 A 
HETATM   14  C13 UNL     1      -6.735   6.643  12.654  1.00  0.00     0.019 A 
HETATM   15  C14 UNL     1      -6.026   7.405  11.749  1.00  0.00     0.032 A 
HETATM   16  C19 UNL     1      -4.652   7.275  11.763  1.00  0.00     0.019 A 
HETATM   17  C20 UNL     1      -4.006   6.423  12.641  1.00  0.00     0.031 A 
BRANCH  15  18
HETATM   18  C15 UNL     1      -6.703   8.304  10.822  1.00  0.00     0.257 C 
HETATM   19  O1  UNL     1      -6.471   9.539  10.828  1.00  0.00    -0.267 OA
HETATM   20  N6  UNL     1      -7.644   7.815   9.883  1.00  0.00    -0.308 N 
ATOM     21  H6  UNL     1      -8.613   7.678  10.166  1.00  0.00     0.170 HD
BRANCH  20  22
HETATM   22  C16 UNL     1      -7.293   7.544   8.696  1.00  0.00     0.123 A 
HETATM   23  C17 UNL     1      -7.077   8.427   7.674  1.00  0.00     0.068 A 
HETATM   24  C18 UNL     1      -6.714   7.692   6.568  1.00  0.00     0.111 A 
HETATM   25  N7  UNL     1      -6.711   6.377   6.926  1.00  0.00    -0.310 N 
HETATM   26  N8  UNL     1      -7.064   6.318   8.208  1.00  0.00    -0.286 N 
ATOM     27  H7  UNL     1      -6.482   5.586   6.324  1.00  0.00     0.186 HD
ATOM     28  H8  UNL     1      -7.148   5.455   8.746  1.00  0.00     0.188 HD
ENDBRANCH  20  22
ENDBRANCH  15  18
ENDBRANCH  10  12
ENDBRANCH   7  10
BRANCH   4  29
HETATM   29  N3  UNL     1      -4.486   0.999  11.944  1.00  0.00    -0.191 N 
ATOM     30  H3  UNL     1      -5.403   0.758  11.566  1.00  0.00     0.184 HD
BRANCH  29  31
HETATM   31  C4  UNL     1      -3.326   0.717  11.186  1.00  0.00     0.049 A 
HETATM   32  C5  UNL     1      -2.474   1.752  10.889  1.00  0.00     0.033 A 
HETATM   33  C6  UNL     1      -1.320   1.549  10.151  1.00  0.00     0.044 A 
HETATM   34  C7  UNL     1      -0.996   0.289   9.692  1.00  0.00     0.116 A 
HETATM   35  F1  UNL     1       0.141   0.112   8.969  1.00  0.00    -0.206 F 
HETATM   36  C8  UNL     1      -1.859  -0.737   9.997  1.00  0.00     0.044 A 
HETATM   37  C9  UNL     1      -3.010  -0.543  10.732  1.00  0.00     0.033 A 
ENDBRANCH  29  31
ENDBRANCH   4  29
BRANCH   1  38
HETATM   38  N1  UNL     1      -4.411   0.755  16.526  1.00  0.00    -0.229 N 
HETATM   39  C1  UNL     1      -5.564   0.680  17.401  1.00  0.00     0.165 C 
ATOM     40  H1  UNL     1      -3.580   0.222  16.785  1.00  0.00     0.177 HD
ENDBRANCH   1  38
TORSDOF 7
ENDMDL
MODEL 5
REMARK VINA RESULT: -8.885459830      4.426      7.026
REMARK  7 active torsions:
REMARK  status: ('A' for Active; 'I' for Inactive)
REMARK    1  A    between atoms: N1_2  and  C2_4 
REMARK    2  A    between atoms: C3_7  and  N3_8 
REMARK    3  A    between atoms: N3_8  and  C4_10 
REMARK    4  A    between atoms: C10_19  and  N5_20 
REMARK    5  A    between atoms: N5_20  and  C11_22 
REMARK    6  A    between atoms: C14_25  and  C15_26 
REMARK       I    between atoms: C15_26  and  N6_28 
REMARK    7  A    between atoms: N6_28  and  C16_30 
ROOT
HETATM    1  C2  UNL     1      -4.483   3.595  13.676  1.00  0.00     0.706 A 
HETATM    2  N2  UNL     1      -4.826   2.384  13.212  1.00  0.00    -0.021 N 
ATOM      3  H2  UNL     1      -5.410   1.777  13.786  1.00  0.00     0.203 HD
HETATM    4  C3  UNL     1      -4.408   1.949  11.987  1.00  0.00     0.711 A 
HETATM    5  N4  UNL     1      -3.636   2.777  11.251  1.00  0.00    -0.021 N 
ATOM      6  H4  UNL     1      -3.311   2.476  10.332  1.00  0.00     0.203 HD
HETATM    7  C10 UNL     1      -3.291   3.986  11.710  1.00  0.00     0.711 A 
HETATM    8  N9  UNL     1      -3.713   4.394  12.919  1.00  0.00    -0.021 N 
ATOM      9  H9  UNL     1      -3.446   5.315  13.265  1.00  0.00     0.203 HD
ENDROOT
BRANCH   7  10
HETATM   10  N5  UNL     1      -2.550   4.761  10.986  1.00  0.00    -0.191 N 
ATOM     11  H5  UNL     1      -2.848   5.724  10.834  1.00  0.00     0.184 HD
BRANCH  10  12
HETATM   12  C11 UNL     1      -1.335   4.317  10.396  1.00  0.00     0.049 A 
HETATM   13  C12 UNL     1      -0.180   4.146  11.133  1.00  0.00     0.031 A 
HETATM   14  C13 UNL     1       0.999   3.716  10.560  1.00  0.00     0.019 A 
HETATM   15  C14 UNL     1       1.075   3.434   9.212  1.00  0.00     0.032 A 
HETATM   16  C19 UNL     1      -0.078   3.604   8.473  1.00  0.00     0.019 A 
HETATM   17  C20 UNL     1      -1.260   4.035   9.048  1.00  0.00     0.031 A 
BRANCH  15  18
HETATM   18  C15 UNL     1       2.319   2.980   8.602  1.00  0.00     0.257 C 
HETATM   19  O1  UNL     1       3.428   3.451   8.959  1.00  0.00    -0.267 OA
HETATM   20  N6  UNL     1       2.318   1.991   7.588  1.00  0.00    -0.308 N 
ATOM     21  H6  UNL     1       2.161   2.263   6.618  1.00  0.00     0.170 HD
BRANCH  20  22
HETATM   22  C16 UNL     1       2.511   0.771   7.873  1.00  0.00     0.123 A 
HETATM   23  C17 UNL     1       1.566  -0.209   8.002  1.00  0.00     0.068 A 
HETATM   24  C18 UNL     1       2.226  -1.375   8.318  1.00  0.00     0.111 A 
HETATM   25  N7  UNL     1       3.558  -1.094   8.378  1.00  0.00    -0.310 N 
HETATM   26  N8  UNL     1       3.700   0.201   8.108  1.00  0.00    -0.286 N 
ATOM     27  H7  UNL     1       4.307  -1.753   8.591  1.00  0.00     0.186 HD
ATOM     28  H8  UNL     1       4.593   0.693   8.084  1.00  0.00     0.188 HD
ENDBRANCH  20  22
ENDBRANCH  15  18
ENDBRANCH  10  12
ENDBRANCH   7  10
BRANCH   4  29
HETATM   29  N3  UNL     1      -4.726   0.790  11.521  1.00  0.00    -0.191 N 
ATOM     30  H3  UNL     1      -5.708   0.566  11.358  1.00  0.00     0.184 HD
BRANCH  29  31
HETATM   31  C4  UNL     1      -3.736  -0.177  11.231  1.00  0.00     0.049 A 
HETATM   32  C5  UNL     1      -2.608   0.226  10.559  1.00  0.00     0.033 A 
HETATM   33  C6  UNL     1      -1.598  -0.667  10.242  1.00  0.00     0.044 A 
HETATM   34  C7  UNL     1      -1.702  -1.996  10.598  1.00  0.00     0.116 A 
HETATM   35  F1  UNL     1      -0.700  -2.856  10.277  1.00  0.00    -0.206 F 
HETATM   36  C8  UNL     1      -2.837  -2.384  11.271  1.00  0.00     0.044 A 
HETATM   37  C9  UNL     1      -3.847  -1.501  11.590  1.00  0.00     0.033 A 
ENDBRANCH  29  31
ENDBRANCH   4  29
BRANCH   1  38
HETATM   38  N1  UNL     1      -4.879   3.981  14.816  1.00  0.00    -0.229 N 
HETATM   39  C1  UNL     1      -6.171   3.655  15.386  1.00  0.00     0.165 C 
ATOM     40  H1  UNL     1      -4.247   4.561  15.368  1.00  0.00     0.177 HD
ENDBRANCH   1  38
TORSDOF 7
ENDMDL
