MODEL 1
REMARK VINA RESULT: -8.000576662      0.000      0.000
REMARK  7 active torsions:
REMARK  status: ('A' for Active; 'I' for Inactive)
REMARK    1  A    between atoms: N1_2  and  C2_4 
REMARK    2  A    between atoms: C3_7  and  N3_8 
REMARK    3  A    between atoms: N3_8  and  C4_10 
REMARK    4  A    between atoms: C11_21  and  N6_22 
REMARK    5  A    between atoms: N6_22  and  C12_24 
REMARK    6  A    between atoms: C12_24  and  C13_25 
REMARK    7  A    between atoms: C13_25  and  O1_26 
ROOT
HETATM    1  C2  UNL     1      27.524  63.964  14.049  1.00  0.00     0.706 A 
HETATM    2  N2  UNL     1      28.550  64.617  13.433  1.00  0.00    -0.021 N 
ATOM      3  H2  UNL     1      29.271  65.061  14.001  1.00  0.00     0.203 HD
HETATM    4  C3  UNL     1      28.634  64.688  12.094  1.00  0.00     0.713 A 
HETATM    5  N5  UNL     1      27.666  64.090  11.379  1.00  0.00    -0.021 N 
ATOM      6  H5  UNL     1      27.710  64.132  10.360  1.00  0.00     0.203 HD
HETATM    7  C11 UNL     1      26.635  63.434  11.959  1.00  0.00     0.707 A 
HETATM    8  N7  UNL     1      26.570  63.375  13.301  1.00  0.00    -0.022 N 
ATOM      9  H7  UNL     1      25.797  62.885  13.753  1.00  0.00     0.203 HD
ENDROOT
BRANCH   4  10
HETATM   10  N3  UNL     1      29.685  65.356  11.463  1.00  0.00    -0.175 N 
ATOM     11  H3  UNL     1      30.489  65.578  12.051  1.00  0.00     0.186 HD
BRANCH  10  12
HETATM   12  C4  UNL     1      29.766  65.719  10.260  1.00  0.00     0.121 A 
HETATM   13  C5  UNL     1      30.967  66.120   9.725  1.00  0.00     0.056 A 
HETATM   14  C6  UNL     1      31.092  66.527   8.403  1.00  0.00    -0.057 A 
HETATM   15  C7  UNL     1      32.389  66.961   7.820  1.00  0.00     0.048 C 
HETATM   16  C8  UNL     1      29.980  66.527   7.603  1.00  0.00     0.031 A 
HETATM   17  C9  UNL     1      28.781  66.120   8.161  1.00  0.00     0.007 A 
HETATM   18  C10 UNL     1      27.570  66.115   7.311  1.00  0.00     0.068 C 
HETATM   19  N4  UNL     1      28.690  65.727   9.461  1.00  0.00    -0.346 N 
ATOM     20  H4  UNL     1      27.787  65.434   9.833  1.00  0.00     0.167 HD
ENDBRANCH  10  12
ENDBRANCH   4  10
BRANCH   1  21
HETATM   21  N1  UNL     1      27.461  63.907  15.334  1.00  0.00    -0.229 N 
HETATM   22  C1  UNL     1      26.726  64.886  16.070  1.00  0.00     0.165 C 
ATOM     23  H1  UNL     1      27.941  63.156  15.831  1.00  0.00     0.177 HD
ENDBRANCH   1  21
BRANCH   7  24
HETATM   24  N6  UNL     1      25.695  62.853  11.290  1.00  0.00    -0.223 N 
ATOM     25  H6  UNL     1      25.305  61.957  11.581  1.00  0.00     0.177 HD
BRANCH  24  26
HETATM   26  C12 UNL     1      25.222  63.542  10.104  1.00  0.00     0.164 C 
BRANCH  26  27
HETATM   27  C13 UNL     1      24.662  62.553   9.100  1.00  0.00     0.184 C 
BRANCH  27  28
HETATM   28  O1  UNL     1      25.332  61.345   9.284  1.00  0.00    -0.399 OA
ATOM     29  H1  UNL     1      25.100  60.777   8.558  1.00  0.00     0.209 HD
ENDBRANCH  27  28
ENDBRANCH  26  27
ENDBRANCH  24  26
ENDBRANCH   7  24
TORSDOF 7
ENDMDL
MODEL 2
REMARK VINA RESULT: -7.843084701      1.870      3.681
REMARK  7 active torsions:
REMARK  status: ('A' for Active; 'I' for Inactive)
REMARK    1  A    between atoms: N1_2  and  C2_4 
REMARK    2  A    between atoms: C3_7  and  N3_8 
REMARK    3  A    between atoms: N3_8  and  C4_10 
REMARK    4  A    between atoms: C11_21  and  N6_22 
REMARK    5  A    between atoms: N6_22  and  C12_24 
REMARK    6  A    between atoms: C12_24  and  C13_25 
REMARK    7  A    between atoms: C13_25  and  O1_26 
ROOT
HETATM    1  C2  UNL     1      27.009  63.215  11.563  1.00  0.00     0.706 A 
HETATM    2  N2  UNL     1      27.996  63.980  11.017  1.00  0.00    -0.021 N 
ATOM      3  H2  UNL     1      28.126  63.979  10.005  1.00  0.00     0.203 HD
HETATM    4  C3  UNL     1      28.803  64.735  11.780  1.00  0.00     0.713 A 
HETATM    5  N5  UNL     1      28.601  64.712  13.109  1.00  0.00    -0.021 N 
ATOM      6  H5  UNL     1      29.204  65.278  13.708  1.00  0.00     0.203 HD
HETATM    7  C11 UNL     1      27.630  63.965  13.682  1.00  0.00     0.707 A 
HETATM    8  N7  UNL     1      26.834  63.215  12.899  1.00  0.00    -0.022 N 
ATOM      9  H7  UNL     1      26.097  62.646  13.318  1.00  0.00     0.203 HD
ENDROOT
BRANCH   4  10
HETATM   10  N3  UNL     1      29.815  65.518  11.221  1.00  0.00    -0.175 N 
ATOM     11  H3  UNL     1      30.530  65.851  11.869  1.00  0.00     0.186 HD
BRANCH  10  12
HETATM   12  C4  UNL     1      29.957  65.866  10.020  1.00  0.00     0.121 A 
HETATM   13  C5  UNL     1      31.189  66.232   9.533  1.00  0.00     0.056 A 
HETATM   14  C6  UNL     1      31.381  66.621   8.213  1.00  0.00    -0.057 A 
HETATM   15  C7  UNL     1      32.713  67.018   7.683  1.00  0.00     0.048 C 
HETATM   16  C8  UNL     1      30.305  66.639   7.366  1.00  0.00     0.031 A 
HETATM   17  C9  UNL     1      29.073  66.267   7.876  1.00  0.00     0.007 A 
HETATM   18  C10 UNL     1      27.900  66.283   6.974  1.00  0.00     0.068 C 
HETATM   19  N4  UNL     1      28.917  65.891   9.174  1.00  0.00    -0.346 N 
ATOM     20  H4  UNL     1      27.991  65.624   9.510  1.00  0.00     0.167 HD
ENDBRANCH  10  12
ENDBRANCH   4  10
BRANCH   1  21
HETATM   21  N1  UNL     1      26.245  62.498  10.814  1.00  0.00    -0.229 N 
HETATM   22  C1  UNL     1      25.262  63.111   9.979  1.00  0.00     0.165 C 
ATOM     23  H1  UNL     1      26.343  61.482  10.818  1.00  0.00     0.177 HD
ENDBRANCH   1  21
BRANCH   7  24
HETATM   24  N6  UNL     1      27.421  63.928  14.956  1.00  0.00    -0.223 N 
ATOM     25  H6  UNL     1      27.200  63.057  15.439  1.00  0.00     0.177 HD
BRANCH  24  26
HETATM   26  C12 UNL     1      27.515  65.190  15.666  1.00  0.00     0.164 C 
BRANCH  26  27
HETATM   27  C13 UNL     1      26.541  65.223  16.828  1.00  0.00     0.184 C 
BRANCH  27  28
HETATM   28  O1  UNL     1      26.119  63.915  17.058  1.00  0.00    -0.399 OA
ATOM     29  H1  UNL     1      25.584  63.654  16.318  1.00  0.00     0.209 HD
ENDBRANCH  27  28
ENDBRANCH  26  27
ENDBRANCH  24  26
ENDBRANCH   7  24
TORSDOF 7
ENDMDL
MODEL 3
REMARK VINA RESULT: -7.833124143      0.607      1.836
REMARK  7 active torsions:
REMARK  status: ('A' for Active; 'I' for Inactive)
REMARK    1  A    between atoms: N1_2  and  C2_4 
REMARK    2  A    between atoms: C3_7  and  N3_8 
REMARK    3  A    between atoms: N3_8  and  C4_10 
REMARK    4  A    between atoms: C11_21  and  N6_22 
REMARK    5  A    between atoms: N6_22  and  C12_24 
REMARK    6  A    between atoms: C12_24  and  C13_25 
REMARK    7  A    between atoms: C13_25  and  O1_26 
ROOT
HETATM    1  C2  UNL     1      27.496  63.957  14.055  1.00  0.00     0.706 A 
HETATM    2  N2  UNL     1      28.533  64.643  13.494  1.00  0.00    -0.021 N 
ATOM      3  H2  UNL     1      29.211  65.104  14.101  1.00  0.00     0.203 HD
HETATM    4  C3  UNL     1      28.681  64.725  12.162  1.00  0.00     0.713 A 
HETATM    5  N5  UNL     1      27.768  64.103  11.395  1.00  0.00    -0.021 N 
ATOM      6  H5  UNL     1      27.863  64.153  10.380  1.00  0.00     0.203 HD
HETATM    7  C11 UNL     1      26.730  63.414  11.920  1.00  0.00     0.707 A 
HETATM    8  N7  UNL     1      26.599  63.345  13.257  1.00  0.00    -0.022 N 
ATOM      9  H7  UNL     1      25.820  62.829  13.667  1.00  0.00     0.203 HD
ENDROOT
BRANCH   4  10
HETATM   10  N3  UNL     1      29.743  65.427  11.587  1.00  0.00    -0.175 N 
ATOM     11  H3  UNL     1      30.495  65.695  12.223  1.00  0.00     0.186 HD
BRANCH  10  12
HETATM   12  C4  UNL     1      29.888  65.772  10.386  1.00  0.00     0.121 A 
HETATM   13  C5  UNL     1      28.816  65.804   9.527  1.00  0.00     0.056 A 
HETATM   14  C6  UNL     1      28.941  66.179   8.195  1.00  0.00    -0.057 A 
HETATM   15  C7  UNL     1      27.783  66.215   7.263  1.00  0.00     0.048 C 
HETATM   16  C8  UNL     1      30.177  66.530   7.721  1.00  0.00     0.031 A 
HETATM   17  C9  UNL     1      31.244  66.491   8.602  1.00  0.00     0.007 A 
HETATM   18  C10 UNL     1      32.586  66.867   8.105  1.00  0.00     0.068 C 
HETATM   19  N4  UNL     1      31.089  66.119   9.901  1.00  0.00    -0.346 N 
ATOM     20  H4  UNL     1      31.902  66.104  10.518  1.00  0.00     0.167 HD
ENDBRANCH  10  12
ENDBRANCH   4  10
BRANCH   1  21
HETATM   21  N1  UNL     1      27.371  63.889  15.335  1.00  0.00    -0.229 N 
HETATM   22  C1  UNL     1      26.898  65.013  16.078  1.00  0.00     0.165 C 
ATOM     23  H1  UNL     1      27.611  63.026  15.822  1.00  0.00     0.177 HD
ENDBRANCH   1  21
BRANCH   7  24
HETATM   24  N6  UNL     1      25.842  62.810  11.202  1.00  0.00    -0.223 N 
ATOM     25  H6  UNL     1      25.560  61.849  11.393  1.00  0.00     0.177 HD
BRANCH  24  26
HETATM   26  C12 UNL     1      25.266  63.570  10.108  1.00  0.00     0.164 C 
BRANCH  26  27
HETATM   27  C13 UNL     1      24.673  62.641   9.067  1.00  0.00     0.184 C 
BRANCH  27  28
HETATM   28  O1  UNL     1      25.232  61.380   9.264  1.00  0.00    -0.399 OA
ATOM     29  H1  UNL     1      26.159  61.502   9.434  1.00  0.00     0.209 HD
ENDBRANCH  27  28
ENDBRANCH  26  27
ENDBRANCH  24  26
ENDBRANCH   7  24
TORSDOF 7
ENDMDL
MODEL 4
REMARK VINA RESULT: -7.753671950      2.995      3.948
REMARK  7 active torsions:
REMARK  status: ('A' for Active; 'I' for Inactive)
REMARK    1  A    between atoms: N1_2  and  C2_4 
REMARK    2  A    between atoms: C3_7  and  N3_8 
REMARK    3  A    between atoms: N3_8  and  C4_10 
REMARK    4  A    between atoms: C11_21  and  N6_22 
REMARK    5  A    between atoms: N6_22  and  C12_24 
REMARK    6  A    between atoms: C12_24  and  C13_25 
REMARK    7  A    between atoms: C13_25  and  O1_26 
ROOT
HETATM    1  C2  UNL     1      25.077  64.664  10.458  1.00  0.00     0.706 A 
HETATM    2  N2  UNL     1      26.357  65.123  10.554  1.00  0.00    -0.021 N 
ATOM      3  H2  UNL     1      27.098  64.479  10.833  1.00  0.00     0.203 HD
HETATM    4  C3  UNL     1      26.666  66.403  10.292  1.00  0.00     0.713 A 
HETATM    5  N5  UNL     1      25.664  67.222   9.927  1.00  0.00    -0.021 N 
ATOM      6  H5  UNL     1      25.877  68.199   9.723  1.00  0.00     0.203 HD
HETATM    7  C11 UNL     1      24.384  66.799   9.821  1.00  0.00     0.707 A 
HETATM    8  N7  UNL     1      24.096  65.512  10.089  1.00  0.00    -0.022 N 
ATOM      9  H7  UNL     1      23.135  65.179  10.014  1.00  0.00     0.203 HD
ENDROOT
BRANCH   4  10
HETATM   10  N3  UNL     1      27.977  66.873  10.391  1.00  0.00    -0.175 N 
ATOM     11  H3  UNL     1      28.207  67.375  11.250  1.00  0.00     0.186 HD
BRANCH  10  12
HETATM   12  C4  UNL     1      28.912  66.756   9.556  1.00  0.00     0.121 A 
HETATM   13  C5  UNL     1      30.210  66.578   9.972  1.00  0.00     0.056 A 
HETATM   14  C6  UNL     1      31.265  66.446   9.078  1.00  0.00    -0.057 A 
HETATM   15  C7  UNL     1      32.671  66.253   9.524  1.00  0.00     0.048 C 
HETATM   16  C8  UNL     1      31.003  66.492   7.735  1.00  0.00     0.031 A 
HETATM   17  C9  UNL     1      29.689  66.672   7.337  1.00  0.00     0.007 A 
HETATM   18  C10 UNL     1      29.390  66.726   5.889  1.00  0.00     0.068 C 
HETATM   19  N4  UNL     1      28.677  66.799   8.237  1.00  0.00    -0.346 N 
ATOM     20  H4  UNL     1      27.723  66.930   7.902  1.00  0.00     0.167 HD
ENDBRANCH  10  12
ENDBRANCH   4  10
BRANCH   1  21
HETATM   21  N1  UNL     1      24.800  63.433  10.713  1.00  0.00    -0.229 N 
HETATM   22  C1  UNL     1      25.060  62.414   9.747  1.00  0.00     0.165 C 
ATOM     23  H1  UNL     1      24.391  63.183  11.614  1.00  0.00     0.177 HD
ENDBRANCH   1  21
BRANCH   7  24
HETATM   24  N6  UNL     1      23.407  67.569   9.473  1.00  0.00    -0.223 N 
ATOM     25  H6  UNL     1      23.556  68.398   8.897  1.00  0.00     0.177 HD
BRANCH  24  26
HETATM   26  C12 UNL     1      22.087  67.194   9.942  1.00  0.00     0.164 C 
BRANCH  26  27
HETATM   27  C13 UNL     1      21.121  67.075   8.780  1.00  0.00     0.184 C 
BRANCH  27  28
HETATM   28  O1  UNL     1      21.395  65.874   8.129  1.00  0.00    -0.399 OA
ATOM     29  H1  UNL     1      20.654  65.296   8.272  1.00  0.00     0.209 HD
ENDBRANCH  27  28
ENDBRANCH  26  27
ENDBRANCH  24  26
ENDBRANCH   7  24
TORSDOF 7
ENDMDL
MODEL 5
REMARK VINA RESULT: -7.739302743      3.013      6.500
REMARK  7 active torsions:
REMARK  status: ('A' for Active; 'I' for Inactive)
REMARK    1  A    between atoms: N1_2  and  C2_4 
REMARK    2  A    between atoms: C3_7  and  N3_8 
REMARK    3  A    between atoms: N3_8  and  C4_10 
REMARK    4  A    between atoms: C11_21  and  N6_22 
REMARK    5  A    between atoms: N6_22  and  C12_24 
REMARK    6  A    between atoms: C12_24  and  C13_25 
REMARK    7  A    between atoms: C13_25  and  O1_26 
ROOT
HETATM    1  C2  UNL     1      27.587  65.769   8.228  1.00  0.00     0.706 A 
HETATM    2  N2  UNL     1      27.893  65.461   9.521  1.00  0.00    -0.021 N 
ATOM      3  H2  UNL     1      27.148  65.442  10.219  1.00  0.00     0.203 HD
HETATM    4  C3  UNL     1      29.151  65.182   9.897  1.00  0.00     0.713 A 
HETATM    5  N5  UNL     1      30.105  65.215   8.950  1.00  0.00    -0.021 N 
ATOM      6  H5  UNL     1      31.068  65.006   9.215  1.00  0.00     0.203 HD
HETATM    7  C11 UNL     1      29.835  65.516   7.659  1.00  0.00     0.707 A 
HETATM    8  N7  UNL     1      28.567  65.794   7.304  1.00  0.00    -0.022 N 
ATOM      9  H7  UNL     1      28.348  66.023   6.334  1.00  0.00     0.203 HD
ENDROOT
BRANCH   4  10
HETATM   10  N3  UNL     1      29.465  64.866  11.221  1.00  0.00    -0.175 N 
ATOM     11  H3  UNL     1      30.108  64.085  11.352  1.00  0.00     0.186 HD
BRANCH  10  12
HETATM   12  C4  UNL     1      29.055  65.424  12.272  1.00  0.00     0.121 A 
HETATM   13  C5  UNL     1      28.346  64.718  13.214  1.00  0.00     0.056 A 
HETATM   14  C6  UNL     1      27.879  65.302  14.384  1.00  0.00    -0.057 A 
HETATM   15  C7  UNL     1      27.110  64.542  15.406  1.00  0.00     0.048 C 
HETATM   16  C8  UNL     1      28.135  66.628  14.609  1.00  0.00     0.031 A 
HETATM   17  C9  UNL     1      28.851  67.322  13.649  1.00  0.00     0.007 A 
HETATM   18  C10 UNL     1      29.136  68.756  13.876  1.00  0.00     0.068 C 
HETATM   19  N4  UNL     1      29.296  66.721  12.511  1.00  0.00    -0.346 N 
ATOM     20  H4  UNL     1      29.820  67.268  11.829  1.00  0.00     0.167 HD
ENDBRANCH  10  12
ENDBRANCH   4  10
BRANCH   1  21
HETATM   21  N1  UNL     1      26.374  66.034   7.887  1.00  0.00    -0.229 N 
HETATM   22  C1  UNL     1      25.404  64.991   7.783  1.00  0.00     0.165 C 
ATOM     23  H1  UNL     1      26.103  66.997   7.688  1.00  0.00     0.177 HD
ENDBRANCH   1  21
BRANCH   7  24
HETATM   24  N6  UNL     1      30.736  65.555   6.735  1.00  0.00    -0.223 N 
ATOM     25  H6  UNL     1      30.947  64.741   6.157  1.00  0.00     0.177 HD
BRANCH  24  26
HETATM   26  C12 UNL     1      31.432  66.815   6.559  1.00  0.00     0.164 C 
BRANCH  26  27
HETATM   27  C13 UNL     1      32.463  67.013   7.653  1.00  0.00     0.184 C 
BRANCH  27  28
HETATM   28  O1  UNL     1      33.540  66.175   7.369  1.00  0.00    -0.399 OA
ATOM     29  H1  UNL     1      34.296  66.727   7.204  1.00  0.00     0.209 HD
ENDBRANCH  27  28
ENDBRANCH  26  27
ENDBRANCH  24  26
ENDBRANCH   7  24
TORSDOF 7
ENDMDL
