MODEL 1
REMARK VINA RESULT: -7.221211444      0.000      0.000
REMARK  4 active torsions:
REMARK  status: ('A' for Active; 'I' for Inactive)
REMARK       I    between atoms: N1_2  and  C3_4 
REMARK       I    between atoms: C3_4  and  N2_6 
REMARK    1  A    between atoms: N2_6  and  N3_8 
REMARK       I    between atoms: N3_8  and  C4_10 
REMARK    2  A    between atoms: C4_10  and  C5_12 
REMARK    3  A    between atoms: C5_12  and  N4_13 
REMARK       I    between atoms: N4_13  and  C6_15 
REMARK    4  A    between atoms: C6_15  and  C7_17 
ROOT
HETATM    1  N4  UNL     1      27.900  63.648  11.655  1.00  0.00    -0.352 N 
ATOM      2  H4  UNL     1      27.138  63.137  11.210  1.00  0.00     0.162 HD
HETATM    3  C6  UNL     1      28.700  64.544  10.916  1.00  0.00     0.224 C 
HETATM    4  O3  UNL     1      29.621  65.155  11.477  1.00  0.00    -0.273 OA
ENDROOT
BRANCH   1   5
HETATM    5  C5  UNL     1      28.188  63.473  13.060  1.00  0.00     0.227 C 
BRANCH   5   6
HETATM    6  C4  UNL     1      26.935  63.539  13.825  1.00  0.00     0.253 C 
HETATM    7  N3  UNL     1      25.732  63.105  13.209  1.00  0.00    -0.265 N 
ATOM      8  H3  UNL     1      25.731  62.752  12.252  1.00  0.00     0.190 HD
HETATM    9  O2  UNL     1      26.948  63.974  14.996  1.00  0.00    -0.270 OA
BRANCH   7  10
HETATM   10  N2  UNL     1      24.554  63.174  13.946  1.00  0.00    -0.249 N 
HETATM   11  C3  UNL     1      23.445  63.864  13.389  1.00  0.00     0.336 C 
HETATM   12  N1  UNL     1      22.243  63.935  14.139  1.00  0.00    -0.342 N 
HETATM   13  O1  UNL     1      23.544  64.398  12.247  1.00  0.00    -0.245 OA
HETATM   14  C1  UNL     1      21.119  64.641  13.565  1.00  0.00     0.154 C 
HETATM   15  C2  UNL     1      22.169  63.311  15.434  1.00  0.00     0.154 C 
ATOM     16  H2  UNL     1      24.488  62.738  14.865  1.00  0.00     0.192 HD
ENDBRANCH   7  10
ENDBRANCH   5   6
ENDBRANCH   1   5
BRANCH   3  17
HETATM   17  C7  UNL     1      28.403  64.718   9.491  1.00  0.00     0.115 C 
HETATM   18  C8  UNL     1      29.686  65.125   8.787  1.00  0.00     0.054 C 
HETATM   19  C9  UNL     1      29.205  65.918   7.596  1.00  0.00     0.120 C 
HETATM   20  C10 UNL     1      30.092  67.100   7.386  1.00  0.00     0.046 C 
HETATM   21  C11 UNL     1      29.308  65.008   6.370  1.00  0.00     0.046 C 
HETATM   22  N5  UNL     1      27.836  66.306   7.835  1.00  0.00    -0.058 N 
HETATM   23  C12 UNL     1      27.438  65.792   9.133  1.00  0.00     0.131 C 
ATOM     24  H52 UNL     1      27.692  67.312   7.750  1.00  0.00     0.279 HD
ATOM     25  H51 UNL     1      27.208  66.013   7.086  1.00  0.00     0.279 HD
HETATM   26  C13 UNL     1      26.068  65.159   8.949  1.00  0.00     0.046 C 
HETATM   27  C14 UNL     1      27.300  66.915  10.097  1.00  0.00     0.046 C 
ENDBRANCH   3  17
TORSDOF 4
ENDMDL
MODEL 2
REMARK VINA RESULT: -6.940893120      2.254      2.719
REMARK  4 active torsions:
REMARK  status: ('A' for Active; 'I' for Inactive)
REMARK       I    between atoms: N1_2  and  C3_4 
REMARK       I    between atoms: C3_4  and  N2_6 
REMARK    1  A    between atoms: N2_6  and  N3_8 
REMARK       I    between atoms: N3_8  and  C4_10 
REMARK    2  A    between atoms: C4_10  and  C5_12 
REMARK    3  A    between atoms: C5_12  and  N4_13 
REMARK       I    between atoms: N4_13  and  C6_15 
REMARK    4  A    between atoms: C6_15  and  C7_17 
ROOT
HETATM    1  N4  UNL     1      27.788  63.461  11.755  1.00  0.00    -0.352 N 
ATOM      2  H4  UNL     1      27.019  63.068  11.210  1.00  0.00     0.162 HD
HETATM    3  C6  UNL     1      28.642  64.437  11.201  1.00  0.00     0.224 C 
HETATM    4  O3  UNL     1      29.569  64.902  11.880  1.00  0.00    -0.273 OA
ENDROOT
BRANCH   1   5
HETATM    5  C5  UNL     1      28.028  63.031  13.113  1.00  0.00     0.227 C 
BRANCH   5   6
HETATM    6  C4  UNL     1      26.955  63.536  13.980  1.00  0.00     0.253 C 
HETATM    7  N3  UNL     1      27.217  63.715  15.363  1.00  0.00    -0.265 N 
ATOM      8  H3  UNL     1      28.134  63.498  15.754  1.00  0.00     0.190 HD
HETATM    9  O2  UNL     1      25.835  63.796  13.490  1.00  0.00    -0.270 OA
BRANCH   7  10
HETATM   10  N2  UNL     1      26.191  64.193  16.172  1.00  0.00    -0.249 N 
HETATM   11  C3  UNL     1      26.270  65.527  16.652  1.00  0.00     0.336 C 
HETATM   12  N1  UNL     1      25.225  66.015  17.477  1.00  0.00    -0.342 N 
HETATM   13  O1  UNL     1      27.260  66.250  16.340  1.00  0.00    -0.245 OA
HETATM   14  C1  UNL     1      25.315  67.375  17.962  1.00  0.00     0.154 C 
HETATM   15  C2  UNL     1      24.114  65.161  17.805  1.00  0.00     0.154 C 
ATOM     16  H2  UNL     1      25.399  63.598  16.414  1.00  0.00     0.192 HD
ENDBRANCH   7  10
ENDBRANCH   5   6
ENDBRANCH   1   5
BRANCH   3  17
HETATM   17  C7  UNL     1      28.393  64.870   9.823  1.00  0.00     0.115 C 
HETATM   18  C8  UNL     1      29.717  64.865   9.078  1.00  0.00     0.054 C 
HETATM   19  C9  UNL     1      29.528  65.909   8.005  1.00  0.00     0.120 C 
HETATM   20  C10 UNL     1      30.780  66.708   7.854  1.00  0.00     0.046 C 
HETATM   21  C11 UNL     1      29.260  65.171   6.693  1.00  0.00     0.046 C 
HETATM   22  N5  UNL     1      28.402  66.734   8.371  1.00  0.00    -0.058 N 
HETATM   23  C12 UNL     1      27.877  66.253   9.636  1.00  0.00     0.131 C 
ATOM     24  H52 UNL     1      28.633  67.727   8.394  1.00  0.00     0.279 HD
ATOM     25  H51 UNL     1      27.691  66.775   7.640  1.00  0.00     0.279 HD
HETATM   26  C13 UNL     1      26.367  66.181   9.481  1.00  0.00     0.046 C 
HETATM   27  C14 UNL     1      28.185  67.230  10.712  1.00  0.00     0.046 C 
ENDBRANCH   3  17
TORSDOF 4
ENDMDL
MODEL 3
REMARK VINA RESULT: -6.871224227      2.290      7.579
REMARK  4 active torsions:
REMARK  status: ('A' for Active; 'I' for Inactive)
REMARK       I    between atoms: N1_2  and  C3_4 
REMARK       I    between atoms: C3_4  and  N2_6 
REMARK    1  A    between atoms: N2_6  and  N3_8 
REMARK       I    between atoms: N3_8  and  C4_10 
REMARK    2  A    between atoms: C4_10  and  C5_12 
REMARK    3  A    between atoms: C5_12  and  N4_13 
REMARK       I    between atoms: N4_13  and  C6_15 
REMARK    4  A    between atoms: C6_15  and  C7_17 
ROOT
HETATM    1  N4  UNL     1      25.568  65.333  10.538  1.00  0.00    -0.352 N 
ATOM      2  H4  UNL     1      26.520  65.186  10.871  1.00  0.00     0.162 HD
HETATM    3  C6  UNL     1      24.509  65.550  11.444  1.00  0.00     0.224 C 
HETATM    4  O3  UNL     1      23.359  65.728  11.017  1.00  0.00    -0.273 OA
ENDROOT
BRANCH   1   5
HETATM    5  C5  UNL     1      25.269  65.325   9.124  1.00  0.00     0.227 C 
BRANCH   5   6
HETATM    6  C4  UNL     1      26.519  65.444   8.362  1.00  0.00     0.253 C 
HETATM    7  N3  UNL     1      27.415  66.499   8.674  1.00  0.00    -0.265 N 
ATOM      8  H3  UNL     1      27.200  67.167   9.415  1.00  0.00     0.190 HD
HETATM    9  O2  UNL     1      26.771  64.621   7.456  1.00  0.00    -0.270 OA
BRANCH   7  10
HETATM   10  N2  UNL     1      28.595  66.599   7.944  1.00  0.00    -0.249 N 
HETATM   11  C3  UNL     1      29.831  66.504   8.635  1.00  0.00     0.336 C 
HETATM   12  N1  UNL     1      31.036  66.606   7.892  1.00  0.00    -0.342 N 
HETATM   13  O1  UNL     1      29.841  66.331   9.888  1.00  0.00    -0.245 OA
HETATM   14  C1  UNL     1      32.290  66.509   8.605  1.00  0.00     0.154 C 
HETATM   15  C2  UNL     1      30.982  66.799   6.467  1.00  0.00     0.154 C 
ATOM     16  H2  UNL     1      28.572  66.737   6.934  1.00  0.00     0.192 HD
ENDBRANCH   7  10
ENDBRANCH   5   6
ENDBRANCH   1   5
BRANCH   3  17
HETATM   17  C7  UNL     1      24.819  65.559  12.877  1.00  0.00     0.115 C 
HETATM   18  C8  UNL     1      26.317  65.751  13.036  1.00  0.00     0.054 C 
HETATM   19  C9  UNL     1      26.625  65.083  14.354  1.00  0.00     0.120 C 
HETATM   20  C10 UNL     1      27.911  64.332  14.249  1.00  0.00     0.046 C 
HETATM   21  C11 UNL     1      26.790  66.189  15.398  1.00  0.00     0.046 C 
HETATM   22  N5  UNL     1      25.521  64.217  14.691  1.00  0.00    -0.058 N 
HETATM   23  C12 UNL     1      24.531  64.311  13.633  1.00  0.00     0.131 C 
ATOM     24  H52 UNL     1      25.814  63.257  14.871  1.00  0.00     0.279 HD
ATOM     25  H51 UNL     1      25.132  64.418  15.613  1.00  0.00     0.279 HD
HETATM   26  C13 UNL     1      23.181  64.467  14.313  1.00  0.00     0.046 C 
HETATM   27  C14 UNL     1      24.510  63.046  12.852  1.00  0.00     0.046 C 
ENDBRANCH   3  17
TORSDOF 4
ENDMDL
MODEL 4
REMARK VINA RESULT: -6.870755293      2.706      7.345
REMARK  4 active torsions:
REMARK  status: ('A' for Active; 'I' for Inactive)
REMARK       I    between atoms: N1_2  and  C3_4 
REMARK       I    between atoms: C3_4  and  N2_6 
REMARK    1  A    between atoms: N2_6  and  N3_8 
REMARK       I    between atoms: N3_8  and  C4_10 
REMARK    2  A    between atoms: C4_10  and  C5_12 
REMARK    3  A    between atoms: C5_12  and  N4_13 
REMARK       I    between atoms: N4_13  and  C6_15 
REMARK    4  A    between atoms: C6_15  and  C7_17 
ROOT
HETATM    1  N4  UNL     1      25.623  65.329  10.994  1.00  0.00    -0.352 N 
ATOM      2  H4  UNL     1      25.833  66.180  11.516  1.00  0.00     0.162 HD
HETATM    3  C6  UNL     1      25.762  64.060  11.593  1.00  0.00     0.224 C 
HETATM    4  O3  UNL     1      25.501  63.039  10.941  1.00  0.00    -0.273 OA
ENDROOT
BRANCH   1   5
HETATM    5  C5  UNL     1      25.175  65.394   9.622  1.00  0.00     0.227 C 
BRANCH   5   6
HETATM    6  C4  UNL     1      26.341  65.454   8.732  1.00  0.00     0.253 C 
HETATM    7  N3  UNL     1      27.291  66.493   8.913  1.00  0.00    -0.265 N 
ATOM      8  H3  UNL     1      27.170  67.190   9.648  1.00  0.00     0.190 HD
HETATM    9  O2  UNL     1      26.479  64.595   7.834  1.00  0.00    -0.270 OA
BRANCH   7  10
HETATM   10  N2  UNL     1      28.391  66.537   8.063  1.00  0.00    -0.249 N 
HETATM   11  C3  UNL     1      29.690  66.557   8.633  1.00  0.00     0.336 C 
HETATM   12  N1  UNL     1      30.813  66.602   7.767  1.00  0.00    -0.342 N 
HETATM   13  O1  UNL     1      29.826  66.535   9.891  1.00  0.00    -0.245 OA
HETATM   14  C1  UNL     1      32.132  66.624   8.357  1.00  0.00     0.154 C 
HETATM   15  C2  UNL     1      30.615  66.622   6.341  1.00  0.00     0.154 C 
ATOM     16  H2  UNL     1      28.266  66.553   7.051  1.00  0.00     0.192 HD
ENDBRANCH   7  10
ENDBRANCH   5   6
ENDBRANCH   1   5
BRANCH   3  17
HETATM   17  C7  UNL     1      26.217  64.001  12.985  1.00  0.00     0.115 C 
HETATM   18  C8  UNL     1      25.836  65.306  13.663  1.00  0.00     0.054 C 
HETATM   19  C9  UNL     1      26.869  65.457  14.754  1.00  0.00     0.120 C 
HETATM   20  C10 UNL     1      27.294  66.884  14.850  1.00  0.00     0.046 C 
HETATM   21  C11 UNL     1      26.203  65.057  16.071  1.00  0.00     0.046 C 
HETATM   22  N5  UNL     1      27.976  64.583  14.451  1.00  0.00    -0.058 N 
HETATM   23  C12 UNL     1      27.683  63.891  13.209  1.00  0.00     0.131 C 
ATOM     24  H52 UNL     1      28.869  65.075  14.425  1.00  0.00     0.279 HD
ATOM     25  H51 UNL     1      28.193  63.944  15.216  1.00  0.00     0.279 HD
HETATM   26  C13 UNL     1      28.021  62.427  13.437  1.00  0.00     0.046 C 
HETATM   27  C14 UNL     1      28.564  64.404  12.127  1.00  0.00     0.046 C 
ENDBRANCH   3  17
TORSDOF 4
ENDMDL
MODEL 5
REMARK VINA RESULT: -6.718324941      1.345      1.444
REMARK  4 active torsions:
REMARK  status: ('A' for Active; 'I' for Inactive)
REMARK       I    between atoms: N1_2  and  C3_4 
REMARK       I    between atoms: C3_4  and  N2_6 
REMARK    1  A    between atoms: N2_6  and  N3_8 
REMARK       I    between atoms: N3_8  and  C4_10 
REMARK    2  A    between atoms: C4_10  and  C5_12 
REMARK    3  A    between atoms: C5_12  and  N4_13 
REMARK       I    between atoms: N4_13  and  C6_15 
REMARK    4  A    between atoms: C6_15  and  C7_17 
ROOT
HETATM    1  N4  UNL     1      27.326  63.653  11.739  1.00  0.00    -0.352 N 
ATOM      2  H4  UNL     1      26.515  63.447  11.156  1.00  0.00     0.162 HD
HETATM    3  C6  UNL     1      28.402  64.414  11.238  1.00  0.00     0.224 C 
HETATM    4  O3  UNL     1      29.379  64.654  11.964  1.00  0.00    -0.273 OA
ENDROOT
BRANCH   1   5
HETATM    5  C5  UNL     1      27.402  63.172  13.100  1.00  0.00     0.227 C 
BRANCH   5   6
HETATM    6  C4  UNL     1      26.525  63.984  13.953  1.00  0.00     0.253 C 
HETATM    7  N3  UNL     1      25.173  63.586  14.124  1.00  0.00    -0.265 N 
ATOM      8  H3  UNL     1      24.812  62.750  13.664  1.00  0.00     0.190 HD
HETATM    9  O2  UNL     1      26.978  65.007  14.509  1.00  0.00    -0.270 OA
BRANCH   7  10
HETATM   10  N2  UNL     1      24.354  64.365  14.934  1.00  0.00    -0.249 N 
HETATM   11  C3  UNL     1      22.998  63.980  15.099  1.00  0.00     0.336 C 
HETATM   12  N1  UNL     1      22.161  64.774  15.925  1.00  0.00    -0.342 N 
HETATM   13  O1  UNL     1      22.561  62.947  14.514  1.00  0.00    -0.245 OA
HETATM   14  C1  UNL     1      20.781  64.375  16.086  1.00  0.00     0.154 C 
HETATM   15  C2  UNL     1      22.698  65.940  16.576  1.00  0.00     0.154 C 
ATOM     16  H2  UNL     1      24.720  65.195  15.400  1.00  0.00     0.192 HD
ENDBRANCH   7  10
ENDBRANCH   5   6
ENDBRANCH   1   5
BRANCH   3  17
HETATM   17  C7  UNL     1      28.319  64.901   9.858  1.00  0.00     0.115 C 
HETATM   18  C8  UNL     1      29.707  64.822   9.245  1.00  0.00     0.054 C 
HETATM   19  C9  UNL     1      29.695  65.906   8.194  1.00  0.00     0.120 C 
HETATM   20  C10 UNL     1      31.006  66.618   8.191  1.00  0.00     0.046 C 
HETATM   21  C11 UNL     1      29.507  65.224   6.838  1.00  0.00     0.046 C 
HETATM   22  N5  UNL     1      28.597  66.799   8.478  1.00  0.00    -0.058 N 
HETATM   23  C12 UNL     1      27.920  66.321   9.669  1.00  0.00     0.131 C 
ATOM     24  H52 UNL     1      28.891  67.772   8.556  1.00  0.00     0.279 HD
ATOM     25  H51 UNL     1      27.966  66.909   7.684  1.00  0.00     0.279 HD
HETATM   26  C13 UNL     1      26.430  66.361   9.368  1.00  0.00     0.046 C 
HETATM   27  C14 UNL     1      28.185  67.246  10.803  1.00  0.00     0.046 C 
ENDBRANCH   3  17
TORSDOF 4
ENDMDL
