MODEL 1
REMARK VINA RESULT: -6.493034443      0.000      0.000
REMARK  3 active torsions:
REMARK  status: ('A' for Active; 'I' for Inactive)
REMARK    1  A    between atoms: C3_5  and  C4_6 
REMARK    2  A    between atoms: C4_6  and  N2_7 
REMARK    3  A    between atoms: C8_16  and  N4_17 
ROOT
HETATM    1  C1  UNL     1      12.353  -3.599  52.519  1.00  0.00     0.089 C 
HETATM    2  C2  UNL     1      13.268  -2.638  51.862  1.00  0.00     0.078 A 
HETATM    3  N1  UNL     1      14.486  -3.045  51.531  1.00  0.00    -0.344 N 
ATOM      4  H1  UNL     1      14.724  -4.012  51.752  1.00  0.00     0.167 HD
HETATM    5  C3  UNL     1      15.436  -2.306  50.932  1.00  0.00     0.064 A 
HETATM    6  C5  UNL     1      15.142  -0.969  50.614  1.00  0.00     0.055 A 
HETATM    7  C6  UNL     1      13.884  -0.559  50.959  1.00  0.00     0.091 A 
HETATM    8  N3  UNL     1      12.961  -1.364  51.568  1.00  0.00    -0.340 N 
ATOM      9  H3  UNL     1      12.038  -0.996  51.800  1.00  0.00     0.167 HD
HETATM   10  S1  UNL     1      13.831   1.072  50.454  1.00  0.00    -0.065 SA
HETATM   11  C7  UNL     1      15.397   1.214  49.814  1.00  0.00     0.081 A 
HETATM   12  C8  UNL     1      16.309   2.078  49.189  1.00  0.00     0.133 A 
HETATM   13  N5  UNL     1      17.380   1.340  49.021  1.00  0.00    -0.284 N 
ATOM     14  H5  UNL     1      18.243   1.669  48.589  1.00  0.00     0.188 HD
HETATM   15  N6  UNL     1      17.194   0.101  49.490  1.00  0.00    -0.297 N 
ATOM     16  H6  UNL     1      17.892  -0.643  49.464  1.00  0.00     0.187 HD
HETATM   17  C9  UNL     1      15.932  -0.026  50.010  1.00  0.00     0.084 A 
ENDROOT
BRANCH   5  18
HETATM   18  C4  UNL     1      16.707  -2.958  50.659  1.00  0.00     0.111 C 
BRANCH  18  19
HETATM   19  N2  UNL     1      16.921  -3.447  49.467  1.00  0.00    -0.406 N 
ATOM     20  H22 UNL     1      17.729  -3.132  48.930  1.00  0.00     0.155 HD
ATOM     21  H21 UNL     1      16.269  -4.139  49.095  1.00  0.00     0.155 HD
ENDBRANCH  18  19
ENDBRANCH   5  18
BRANCH  12  22
HETATM   22  N4  UNL     1      16.027   3.295  48.906  1.00  0.00    -0.383 N 
ATOM     23  H42 UNL     1      15.671   3.753  48.067  1.00  0.00     0.157 HD
ATOM     24  H41 UNL     1      16.141   4.058  49.573  1.00  0.00     0.157 HD
ENDBRANCH  12  22
TORSDOF 3
ENDMDL
MODEL 2
REMARK VINA RESULT: -6.190676803      2.873      4.324
REMARK  3 active torsions:
REMARK  status: ('A' for Active; 'I' for Inactive)
REMARK    1  A    between atoms: C3_5  and  C4_6 
REMARK    2  A    between atoms: C4_6  and  N2_7 
REMARK    3  A    between atoms: C8_16  and  N4_17 
ROOT
HETATM    1  C1  UNL     1      12.696  -0.567  48.464  1.00  0.00     0.089 C 
HETATM    2  C2  UNL     1      13.600  -0.802  49.613  1.00  0.00     0.078 A 
HETATM    3  N1  UNL     1      14.899  -0.926  49.385  1.00  0.00    -0.344 N 
ATOM      4  H1  UNL     1      15.206  -0.851  48.415  1.00  0.00     0.167 HD
HETATM    5  C3  UNL     1      15.852  -1.142  50.310  1.00  0.00     0.064 A 
HETATM    6  C5  UNL     1      15.465  -1.250  51.657  1.00  0.00     0.055 A 
HETATM    7  C6  UNL     1      14.123  -1.121  51.882  1.00  0.00     0.091 A 
HETATM    8  N3  UNL     1      13.202  -0.902  50.893  1.00  0.00    -0.340 N 
ATOM      9  H3  UNL     1      12.213  -0.815  51.127  1.00  0.00     0.167 HD
HETATM   10  S1  UNL     1      13.971  -1.296  53.573  1.00  0.00    -0.065 SA
HETATM   11  C7  UNL     1      15.604  -1.530  53.974  1.00  0.00     0.081 A 
HETATM   12  C8  UNL     1      16.509  -1.754  55.023  1.00  0.00     0.133 A 
HETATM   13  N5  UNL     1      17.675  -1.821  54.426  1.00  0.00    -0.284 N 
ATOM     14  H5  UNL     1      18.560  -1.979  54.907  1.00  0.00     0.188 HD
HETATM   15  N6  UNL     1      17.553  -1.655  53.104  1.00  0.00    -0.297 N 
ATOM     16  H6  UNL     1      18.329  -1.669  52.441  1.00  0.00     0.187 HD
HETATM   17  C9  UNL     1      16.238  -1.466  52.768  1.00  0.00     0.084 A 
ENDROOT
BRANCH   5  18
HETATM   18  C4  UNL     1      17.222  -1.245  49.835  1.00  0.00     0.111 C 
BRANCH  18  19
HETATM   19  N2  UNL     1      17.958  -0.166  49.794  1.00  0.00    -0.406 N 
ATOM     20  H22 UNL     1      18.579   0.051  50.575  1.00  0.00     0.155 HD
ATOM     21  H21 UNL     1      17.896   0.441  48.977  1.00  0.00     0.155 HD
ENDBRANCH  18  19
ENDBRANCH   5  18
BRANCH  12  22
HETATM   22  N4  UNL     1      16.142  -1.852  56.246  1.00  0.00    -0.383 N 
ATOM     23  H42 UNL     1      16.384  -2.495  57.000  1.00  0.00     0.157 HD
ATOM     24  H41 UNL     1      15.471  -1.213  56.673  1.00  0.00     0.157 HD
ENDBRANCH  12  22
TORSDOF 3
ENDMDL
MODEL 3
REMARK VINA RESULT: -6.184794051      1.469      1.654
REMARK  3 active torsions:
REMARK  status: ('A' for Active; 'I' for Inactive)
REMARK    1  A    between atoms: C3_5  and  C4_6 
REMARK    2  A    between atoms: C4_6  and  N2_7 
REMARK    3  A    between atoms: C8_16  and  N4_17 
ROOT
HETATM    1  C1  UNL     1      11.609  -2.652  53.863  1.00  0.00     0.089 C 
HETATM    2  C2  UNL     1      12.751  -2.136  53.075  1.00  0.00     0.078 A 
HETATM    3  N1  UNL     1      13.957  -2.639  53.299  1.00  0.00    -0.344 N 
ATOM      4  H1  UNL     1      14.028  -3.364  54.013  1.00  0.00     0.167 HD
HETATM    5  C3  UNL     1      15.095  -2.285  52.676  1.00  0.00     0.064 A 
HETATM    6  C5  UNL     1      15.033  -1.288  51.686  1.00  0.00     0.055 A 
HETATM    7  C6  UNL     1      13.786  -0.776  51.462  1.00  0.00     0.091 A 
HETATM    8  N3  UNL     1      12.664  -1.181  52.134  1.00  0.00    -0.340 N 
ATOM      9  H3  UNL     1      11.761  -0.758  51.919  1.00  0.00     0.167 HD
HETATM   10  S1  UNL     1      14.032   0.385  50.235  1.00  0.00    -0.065 SA
HETATM   11  C7  UNL     1      15.707   0.208  50.020  1.00  0.00     0.081 A 
HETATM   12  C8  UNL     1      16.828   0.656  49.304  1.00  0.00     0.133 A 
HETATM   13  N5  UNL     1      17.818  -0.055  49.789  1.00  0.00    -0.284 N 
ATOM     14  H5  UNL     1      18.788   0.025  49.482  1.00  0.00     0.188 HD
HETATM   15  N6  UNL     1      17.392  -0.897  50.737  1.00  0.00    -0.297 N 
ATOM     16  H6  UNL     1      17.989  -1.546  51.250  1.00  0.00     0.187 HD
HETATM   17  C9  UNL     1      16.041  -0.763  50.919  1.00  0.00     0.084 A 
ENDROOT
BRANCH   5  18
HETATM   18  C4  UNL     1      16.311  -2.970  53.080  1.00  0.00     0.111 C 
BRANCH  18  19
HETATM   19  N2  UNL     1      16.665  -4.055  52.442  1.00  0.00    -0.406 N 
ATOM     20  H22 UNL     1      16.422  -4.968  52.827  1.00  0.00     0.155 HD
ATOM     21  H21 UNL     1      17.182  -3.964  51.567  1.00  0.00     0.155 HD
ENDBRANCH  18  19
ENDBRANCH   5  18
BRANCH  12  22
HETATM   22  N4  UNL     1      16.757   1.566  48.405  1.00  0.00    -0.383 N 
ATOM     23  H42 UNL     1      16.935   1.572  47.401  1.00  0.00     0.157 HD
ATOM     24  H41 UNL     1      16.478   2.525  48.612  1.00  0.00     0.157 HD
ENDBRANCH  12  22
TORSDOF 3
ENDMDL
MODEL 4
REMARK VINA RESULT: -6.040543614      1.973      5.201
REMARK  3 active torsions:
REMARK  status: ('A' for Active; 'I' for Inactive)
REMARK    1  A    between atoms: C3_5  and  C4_6 
REMARK    2  A    between atoms: C4_6  and  N2_7 
REMARK    3  A    between atoms: C8_16  and  N4_17 
ROOT
HETATM    1  C1  UNL     1      15.766   3.369  48.916  1.00  0.00     0.089 C 
HETATM    2  C2  UNL     1      15.825   1.957  49.357  1.00  0.00     0.078 A 
HETATM    3  N1  UNL     1      14.791   1.454  50.017  1.00  0.00    -0.344 N 
ATOM      4  H1  UNL     1      14.003   2.079  50.185  1.00  0.00     0.167 HD
HETATM    5  C3  UNL     1      14.682   0.199  50.487  1.00  0.00     0.064 A 
HETATM    6  C5  UNL     1      15.750  -0.690  50.274  1.00  0.00     0.055 A 
HETATM    7  C6  UNL     1      16.811  -0.162  49.593  1.00  0.00     0.091 A 
HETATM    8  N3  UNL     1      16.860   1.129  49.140  1.00  0.00    -0.340 N 
ATOM      9  H3  UNL     1      17.683   1.462  48.638  1.00  0.00     0.167 HD
HETATM   10  S1  UNL     1      17.922  -1.456  49.494  1.00  0.00    -0.065 SA
HETATM   11  C7  UNL     1      17.032  -2.646  50.314  1.00  0.00     0.081 A 
HETATM   12  C8  UNL     1      17.029  -3.977  50.758  1.00  0.00     0.133 A 
HETATM   13  N5  UNL     1      15.869  -4.110  51.355  1.00  0.00    -0.284 N 
ATOM     14  H5  UNL     1      15.544  -4.970  51.797  1.00  0.00     0.188 HD
HETATM   15  N6  UNL     1      15.167  -2.972  51.310  1.00  0.00    -0.297 N 
ATOM     16  H6  UNL     1      14.237  -2.844  51.710  1.00  0.00     0.187 HD
HETATM   17  C9  UNL     1      15.876  -2.003  50.650  1.00  0.00     0.084 A 
ENDROOT
BRANCH   5  18
HETATM   18  C4  UNL     1      13.453  -0.142  51.185  1.00  0.00     0.111 C 
BRANCH  18  19
HETATM   19  N2  UNL     1      12.559  -0.869  50.569  1.00  0.00    -0.406 N 
ATOM     20  H22 UNL     1      11.698  -1.125  51.051  1.00  0.00     0.155 HD
ATOM     21  H21 UNL     1      12.744  -1.168  49.611  1.00  0.00     0.155 HD
ENDBRANCH  18  19
ENDBRANCH   5  18
BRANCH  12  22
HETATM   22  N4  UNL     1      18.010  -4.776  50.557  1.00  0.00    -0.383 N 
ATOM     23  H42 UNL     1      18.345  -5.608  51.043  1.00  0.00     0.157 HD
ATOM     24  H41 UNL     1      18.665  -4.662  49.784  1.00  0.00     0.157 HD
ENDBRANCH  12  22
TORSDOF 3
ENDMDL
MODEL 5
REMARK VINA RESULT: -6.019198876      1.861      3.097
REMARK  3 active torsions:
REMARK  status: ('A' for Active; 'I' for Inactive)
REMARK    1  A    between atoms: C3_5  and  C4_6 
REMARK    2  A    between atoms: C4_6  and  N2_7 
REMARK    3  A    between atoms: C8_16  and  N4_17 
ROOT
HETATM    1  C1  UNL     1      16.302  -5.616  52.317  1.00  0.00     0.089 C 
HETATM    2  C2  UNL     1      16.065  -4.245  51.811  1.00  0.00     0.078 A 
HETATM    3  N1  UNL     1      14.917  -3.649  52.103  1.00  0.00    -0.344 N 
ATOM      4  H1  UNL     1      14.254  -4.179  52.669  1.00  0.00     0.167 HD
HETATM    5  C3  UNL     1      14.544  -2.414  51.725  1.00  0.00     0.064 A 
HETATM    6  C5  UNL     1      15.434  -1.656  50.945  1.00  0.00     0.055 A 
HETATM    7  C6  UNL     1      16.613  -2.278  50.648  1.00  0.00     0.091 A 
HETATM    8  N3  UNL     1      16.934  -3.542  51.065  1.00  0.00    -0.340 N 
ATOM      9  H3  UNL     1      17.833  -3.951  50.809  1.00  0.00     0.167 HD
HETATM   10  S1  UNL     1      17.461  -1.130  49.710  1.00  0.00    -0.065 SA
HETATM   11  C7  UNL     1      16.314   0.121  49.705  1.00  0.00     0.081 A 
HETATM   12  C8  UNL     1      16.032   1.420  49.255  1.00  0.00     0.133 A 
HETATM   13  N5  UNL     1      14.835   1.668  49.730  1.00  0.00    -0.284 N 
ATOM     14  H5  UNL     1      14.326   2.539  49.583  1.00  0.00     0.188 HD
HETATM   15  N6  UNL     1      14.367   0.629  50.432  1.00  0.00    -0.297 N 
ATOM     16  H6  UNL     1      13.458   0.599  50.893  1.00  0.00     0.187 HD
HETATM   17  C9  UNL     1      15.285  -0.389  50.443  1.00  0.00     0.084 A 
ENDROOT
BRANCH   5  18
HETATM   18  C4  UNL     1      13.235  -1.956  52.161  1.00  0.00     0.111 C 
BRANCH  18  19
HETATM   19  N2  UNL     1      13.146  -1.253  53.259  1.00  0.00    -0.406 N 
ATOM     20  H22 UNL     1      12.229  -0.961  53.598  1.00  0.00     0.155 HD
ATOM     21  H21 UNL     1      14.002  -1.009  53.757  1.00  0.00     0.155 HD
ENDBRANCH  18  19
ENDBRANCH   5  18
BRANCH  12  22
HETATM   22  N4  UNL     1      16.852   2.100  48.543  1.00  0.00    -0.383 N 
ATOM     23  H42 UNL     1      17.829   2.368  48.665  1.00  0.00     0.157 HD
ATOM     24  H41 UNL     1      16.594   2.512  47.646  1.00  0.00     0.157 HD
ENDBRANCH  12  22
TORSDOF 3
ENDMDL
