MODEL 1
REMARK VINA RESULT: -7.800232980      0.000      0.000
REMARK  14 active torsions:
REMARK  status: ('A' for Active; 'I' for Inactive)
REMARK    1  A    between atoms: C2_2  and  C3_3 
REMARK    2  A    between atoms: C3_3  and  C4_4 
REMARK    3  A    between atoms: C4_4  and  C5_5 
REMARK    4  A    between atoms: C7_10  and  C8_11 
REMARK    5  A    between atoms: C8_11  and  C9_12 
REMARK    6  A    between atoms: C13_19  and  C14_20 
REMARK    7  A    between atoms: C14_20  and  C15_21 
REMARK    8  A    between atoms: C18_26  and  O3_27 
REMARK    9  A    between atoms: C19_29  and  C20_30 
REMARK   10  A    between atoms: C20_30  and  C21_31 
REMARK   11  A    between atoms: C25_38  and  C26_39 
REMARK   12  A    between atoms: C29_44  and  O5_45 
REMARK   13  A    between atoms: C30_47  and  C31_48 
REMARK   14  A    between atoms: C31_48  and  C32_49 
ROOT
HETATM    1  C5  UNL     1       5.779  -3.964  15.723  1.00  0.00     0.176 C 
HETATM    2  N1  UNL     1       4.986  -2.969  16.377  1.00  0.00    -0.346 N 
ATOM      3  H1  UNL     1       5.534  -2.178  16.715  1.00  0.00     0.163 HD
HETATM    4  C6  UNL     1       3.639  -2.853  16.648  1.00  0.00     0.241 C 
HETATM    5  O1  UNL     1       3.305  -2.626  17.880  1.00  0.00    -0.271 OA
HETATM    6  C7  UNL     1       2.444  -2.943  15.745  1.00  0.00     0.177 C 
HETATM    7  N2  UNL     1       1.976  -1.569  15.562  1.00  0.00    -0.346 N 
ATOM      8  H2  UNL     1       1.534  -1.169  16.390  1.00  0.00     0.163 HD
HETATM    9  C12 UNL     1       2.019  -0.713  14.479  1.00  0.00     0.241 C 
HETATM   10  O2  UNL     1       0.864  -0.221  14.156  1.00  0.00    -0.271 OA
HETATM   11  C13 UNL     1       3.145  -0.255  13.638  1.00  0.00     0.175 C 
HETATM   12  N3  UNL     1       3.750   0.958  14.167  1.00  0.00    -0.359 N 
ATOM     13  H3  UNL     1       3.135   1.445  14.820  1.00  0.00     0.162 HD
HETATM   14  C18 UNL     1       4.958   1.608  13.996  1.00  0.00     0.135 C 
HETATM   15  C19 UNL     1       5.602   2.294  12.870  1.00  0.00     0.159 C 
HETATM   16  N4  UNL     1       6.252   1.528  11.859  1.00  0.00    -0.347 N 
ATOM     17  H4  UNL     1       6.354   2.064  10.997  1.00  0.00     0.163 HD
HETATM   18  C24 UNL     1       6.780   0.262  11.727  1.00  0.00     0.241 C 
HETATM   19  O4  UNL     1       6.124  -0.534  10.937  1.00  0.00    -0.271 OA
HETATM   20  C25 UNL     1       7.961  -0.427  12.286  1.00  0.00     0.179 C 
HETATM   21  N5  UNL     1       8.403  -0.050  13.581  1.00  0.00    -0.359 N 
ATOM     22  H5  UNL     1       8.746   0.909  13.640  1.00  0.00     0.162 HD
HETATM   23  C29 UNL     1       8.457  -0.743  14.781  1.00  0.00     0.135 C 
HETATM   24  C30 UNL     1       8.422  -2.153  15.119  1.00  0.00     0.164 C 
HETATM   25  N7  UNL     1       7.700  -3.045  14.271  1.00  0.00    -0.347 N 
ATOM     26  H7  UNL     1       8.200  -3.390  13.451  1.00  0.00     0.163 HD
HETATM   27  C36 UNL     1       6.385  -3.504  14.432  1.00  0.00     0.241 C 
HETATM   28  O6  UNL     1       5.628  -3.545  13.428  1.00  0.00    -0.271 OA
ENDROOT
BRANCH  24  29
HETATM   29  C31 UNL     1       9.848  -2.661  15.267  1.00  0.00     0.090 C 
BRANCH  29  30
HETATM   30  C32 UNL     1       9.950  -3.913  16.051  1.00  0.00     0.011 A 
HETATM   31  C33 UNL     1       9.783  -5.193  15.583  1.00  0.00     0.026 A 
HETATM   32  C34 UNL     1       9.972  -6.094  16.641  1.00  0.00     0.019 A 
HETATM   33  C35 UNL     1      10.250  -5.316  17.729  1.00  0.00     0.088 A 
HETATM   34  N6  UNL     1      10.233  -4.025  17.356  1.00  0.00    -0.369 N 
ATOM     35  H6  UNL     1      10.410  -3.239  17.981  1.00  0.00     0.165 HD
ENDBRANCH  29  30
ENDBRANCH  24  29
BRANCH  23  36
HETATM   36  O5  UNL     1       8.560   0.036  15.823  1.00  0.00    -0.348 OA
ATOM     37  H5  UNL     1       8.929  -0.399  16.582  1.00  0.00     0.219 HD
ENDBRANCH  23  36
BRANCH  20  38
HETATM   38  C26 UNL     1       9.154  -0.203  11.332  1.00  0.00     0.009 C 
HETATM   39  C27 UNL     1       8.961   0.997  10.445  1.00  0.00     0.012 C 
HETATM   40  C28 UNL     1      10.466  -0.225  12.029  1.00  0.00     0.012 C 
ENDBRANCH  20  38
BRANCH   1  41
HETATM   41  C4  UNL     1       5.066  -5.258  15.579  1.00  0.00     0.035 C 
BRANCH  41  42
HETATM   42  C3  UNL     1       5.303  -6.271  16.657  1.00  0.00     0.002 C 
BRANCH  42  43
HETATM   43  C2  UNL     1       6.437  -5.841  17.596  1.00  0.00    -0.004 C 
HETATM   44  C1  UNL     1       6.832  -6.940  18.526  1.00  0.00     0.005 C 
ENDBRANCH  42  43
ENDBRANCH  41  42
ENDBRANCH   1  41
BRANCH  15  45
HETATM   45  C20 UNL     1       4.664   3.346  12.261  1.00  0.00     0.037 C 
BRANCH  45  46
HETATM   46  C21 UNL     1       4.871   3.626  10.816  1.00  0.00    -0.020 C 
HETATM   47  C22 UNL     1       5.892   4.744  10.706  1.00  0.00     0.009 C 
HETATM   48  C23 UNL     1       3.566   4.161  10.188  1.00  0.00     0.009 C 
ENDBRANCH  45  46
ENDBRANCH  15  45
BRANCH   6  49
HETATM   49  C8  UNL     1       1.377  -3.705  16.570  1.00  0.00     0.038 C 
BRANCH  49  50
HETATM   50  C9  UNL     1       1.078  -5.067  16.092  1.00  0.00    -0.020 C 
HETATM   51  C10 UNL     1       1.460  -5.407  14.699  1.00  0.00     0.009 C 
HETATM   52  C11 UNL     1       1.765  -6.066  17.020  1.00  0.00     0.009 C 
ENDBRANCH  49  50
ENDBRANCH   6  49
BRANCH  14  53
HETATM   53  O3  UNL     1       5.714   1.639  15.058  1.00  0.00    -0.348 OA
ATOM     54  H3  UNL     1       6.048   0.792  15.331  1.00  0.00     0.219 HD
ENDBRANCH  14  53
BRANCH  11  55
HETATM   55  C14 UNL     1       2.782  -0.150  12.197  1.00  0.00     0.038 C 
BRANCH  55  56
HETATM   56  C15 UNL     1       1.506   0.482  11.791  1.00  0.00    -0.020 C 
HETATM   57  C16 UNL     1       1.410   1.964  11.859  1.00  0.00     0.009 C 
HETATM   58  C17 UNL     1       1.354   0.145  10.278  1.00  0.00     0.009 C 
ENDBRANCH  55  56
ENDBRANCH  11  55
TORSDOF 14
ENDMDL
MODEL 2
REMARK VINA RESULT: -7.066267037      0.778      1.005
REMARK  14 active torsions:
REMARK  status: ('A' for Active; 'I' for Inactive)
REMARK    1  A    between atoms: C2_2  and  C3_3 
REMARK    2  A    between atoms: C3_3  and  C4_4 
REMARK    3  A    between atoms: C4_4  and  C5_5 
REMARK    4  A    between atoms: C7_10  and  C8_11 
REMARK    5  A    between atoms: C8_11  and  C9_12 
REMARK    6  A    between atoms: C13_19  and  C14_20 
REMARK    7  A    between atoms: C14_20  and  C15_21 
REMARK    8  A    between atoms: C18_26  and  O3_27 
REMARK    9  A    between atoms: C19_29  and  C20_30 
REMARK   10  A    between atoms: C20_30  and  C21_31 
REMARK   11  A    between atoms: C25_38  and  C26_39 
REMARK   12  A    between atoms: C29_44  and  O5_45 
REMARK   13  A    between atoms: C30_47  and  C31_48 
REMARK   14  A    between atoms: C31_48  and  C32_49 
ROOT
HETATM    1  C5  UNL     1       5.743  -3.601  15.428  1.00  0.00     0.176 C 
HETATM    2  N1  UNL     1       4.882  -2.664  16.081  1.00  0.00    -0.346 N 
ATOM      3  H1  UNL     1       5.361  -1.808  16.363  1.00  0.00     0.163 HD
HETATM    4  C6  UNL     1       3.543  -2.670  16.409  1.00  0.00     0.241 C 
HETATM    5  O1  UNL     1       3.240  -2.427  17.645  1.00  0.00    -0.271 OA
HETATM    6  C7  UNL     1       2.326  -2.915  15.565  1.00  0.00     0.177 C 
HETATM    7  N2  UNL     1       1.715  -1.603  15.354  1.00  0.00    -0.346 N 
ATOM      8  H2  UNL     1       1.270  -1.214  16.185  1.00  0.00     0.163 HD
HETATM    9  C12 UNL     1       1.626  -0.792  14.239  1.00  0.00     0.241 C 
HETATM   10  O2  UNL     1       0.415  -0.431  13.952  1.00  0.00    -0.271 OA
HETATM   11  C13 UNL     1       2.663  -0.260  13.331  1.00  0.00     0.175 C 
HETATM   12  N3  UNL     1       3.165   1.027  13.786  1.00  0.00    -0.359 N 
ATOM     13  H3  UNL     1       2.533   1.478  14.449  1.00  0.00     0.162 HD
HETATM   14  C18 UNL     1       4.294   1.786  13.536  1.00  0.00     0.135 C 
HETATM   15  C19 UNL     1       4.817   2.486  12.358  1.00  0.00     0.159 C 
HETATM   16  N4  UNL     1       5.497   1.747  11.347  1.00  0.00    -0.347 N 
ATOM     17  H4  UNL     1       5.509   2.255  10.462  1.00  0.00     0.163 HD
HETATM   18  C24 UNL     1       6.145   0.535  11.236  1.00  0.00     0.241 C 
HETATM   19  O4  UNL     1       5.540  -0.354  10.508  1.00  0.00    -0.271 OA
HETATM   20  C25 UNL     1       7.411  -0.010  11.766  1.00  0.00     0.179 C 
HETATM   21  N5  UNL     1       7.868   0.462  13.024  1.00  0.00    -0.359 N 
ATOM     22  H5  UNL     1       8.114   1.452  13.032  1.00  0.00     0.162 HD
HETATM   23  C29 UNL     1       8.042  -0.173  14.246  1.00  0.00     0.135 C 
HETATM   24  C30 UNL     1       8.163  -1.563  14.636  1.00  0.00     0.164 C 
HETATM   25  N7  UNL     1       7.499  -2.557  13.856  1.00  0.00    -0.347 N 
ATOM     26  H7  UNL     1       7.996  -2.884  13.027  1.00  0.00     0.163 HD
HETATM   27  C36 UNL     1       6.245  -3.137  14.094  1.00  0.00     0.241 C 
HETATM   28  O6  UNL     1       5.455  -3.294  13.128  1.00  0.00    -0.271 OA
ENDROOT
BRANCH  24  29
HETATM   29  C31 UNL     1       9.637  -1.921  14.737  1.00  0.00     0.090 C 
BRANCH  29  30
HETATM   30  C32 UNL     1       9.901  -3.106  15.586  1.00  0.00     0.011 A 
HETATM   31  C33 UNL     1      10.418  -3.109  16.857  1.00  0.00     0.026 A 
HETATM   32  C34 UNL     1      10.502  -4.432  17.314  1.00  0.00     0.019 A 
HETATM   33  C35 UNL     1      10.026  -5.196  16.285  1.00  0.00     0.088 A 
HETATM   34  N6  UNL     1       9.674  -4.389  15.270  1.00  0.00    -0.369 N 
ATOM     35  H6  UNL     1       9.288  -4.709  14.382  1.00  0.00     0.165 HD
ENDBRANCH  29  30
ENDBRANCH  24  29
BRANCH  23  36
HETATM   36  O5  UNL     1       8.109   0.655  15.252  1.00  0.00    -0.348 OA
ATOM     37  H5  UNL     1       7.274   1.051  15.470  1.00  0.00     0.219 HD
ENDBRANCH  23  36
BRANCH  20  38
HETATM   38  C26 UNL     1       8.534   0.291  10.750  1.00  0.00     0.009 C 
HETATM   39  C27 UNL     1       8.573   1.742  10.352  1.00  0.00     0.012 C 
HETATM   40  C28 UNL     1       9.854  -0.248  11.169  1.00  0.00     0.012 C 
ENDBRANCH  20  38
BRANCH   1  41
HETATM   41  C4  UNL     1       5.159  -4.964  15.364  1.00  0.00     0.035 C 
BRANCH  41  42
HETATM   42  C3  UNL     1       5.375  -5.836  16.563  1.00  0.00     0.002 C 
BRANCH  42  43
HETATM   43  C2  UNL     1       6.629  -5.423  17.343  1.00  0.00    -0.004 C 
HETATM   44  C1  UNL     1       6.800  -6.231  18.586  1.00  0.00     0.005 C 
ENDBRANCH  42  43
ENDBRANCH  41  42
ENDBRANCH   1  41
BRANCH  15  45
HETATM   45  C20 UNL     1       3.753   3.414  11.754  1.00  0.00     0.037 C 
BRANCH  45  46
HETATM   46  C21 UNL     1       3.962   3.783  10.329  1.00  0.00    -0.020 C 
HETATM   47  C22 UNL     1       5.092   4.795  10.277  1.00  0.00     0.009 C 
HETATM   48  C23 UNL     1       2.709   4.496   9.778  1.00  0.00     0.009 C 
ENDBRANCH  45  46
ENDBRANCH  15  45
BRANCH   6  49
HETATM   49  C8  UNL     1       1.378  -3.744  16.465  1.00  0.00     0.038 C 
BRANCH  49  50
HETATM   50  C9  UNL     1       1.168  -5.138  16.032  1.00  0.00    -0.020 C 
HETATM   51  C10 UNL     1       1.594  -5.502  14.658  1.00  0.00     0.009 C 
HETATM   52  C11 UNL     1       1.898  -6.061  17.005  1.00  0.00     0.009 C 
ENDBRANCH  49  50
ENDBRANCH   6  49
BRANCH  14  53
HETATM   53  O3  UNL     1       5.086   1.936  14.560  1.00  0.00    -0.348 OA
ATOM     54  H3  UNL     1       4.798   2.584  15.193  1.00  0.00     0.219 HD
ENDBRANCH  14  53
BRANCH  11  55
HETATM   55  C14 UNL     1       2.232  -0.251  11.905  1.00  0.00     0.038 C 
BRANCH  55  56
HETATM   56  C15 UNL     1       1.824   1.016  11.255  1.00  0.00    -0.020 C 
HETATM   57  C16 UNL     1       1.472   0.975   9.810  1.00  0.00     0.009 C 
HETATM   58  C17 UNL     1       0.506   1.430  11.972  1.00  0.00     0.009 C 
ENDBRANCH  55  56
ENDBRANCH  11  55
TORSDOF 14
ENDMDL
MODEL 3
REMARK VINA RESULT: -7.002934758      6.904     12.627
REMARK  14 active torsions:
REMARK  status: ('A' for Active; 'I' for Inactive)
REMARK    1  A    between atoms: C2_2  and  C3_3 
REMARK    2  A    between atoms: C3_3  and  C4_4 
REMARK    3  A    between atoms: C4_4  and  C5_5 
REMARK    4  A    between atoms: C7_10  and  C8_11 
REMARK    5  A    between atoms: C8_11  and  C9_12 
REMARK    6  A    between atoms: C13_19  and  C14_20 
REMARK    7  A    between atoms: C14_20  and  C15_21 
REMARK    8  A    between atoms: C18_26  and  O3_27 
REMARK    9  A    between atoms: C19_29  and  C20_30 
REMARK   10  A    between atoms: C20_30  and  C21_31 
REMARK   11  A    between atoms: C25_38  and  C26_39 
REMARK   12  A    between atoms: C29_44  and  O5_45 
REMARK   13  A    between atoms: C30_47  and  C31_48 
REMARK   14  A    between atoms: C31_48  and  C32_49 
ROOT
HETATM    1  C5  UNL     1       4.814  -8.921  17.231  1.00  0.00     0.176 C 
HETATM    2  N1  UNL     1       5.103  -9.792  16.134  1.00  0.00    -0.346 N 
ATOM      3  H1  UNL     1       6.064  -9.713  15.800  1.00  0.00     0.163 HD
HETATM    4  C6  UNL     1       4.358 -10.716  15.431  1.00  0.00     0.241 C 
HETATM    5  O1  UNL     1       4.330 -10.588  14.141  1.00  0.00    -0.271 OA
HETATM    6  C7  UNL     1       3.546 -11.886  15.902  1.00  0.00     0.177 C 
HETATM    7  N2  UNL     1       4.332 -13.076  15.579  1.00  0.00    -0.346 N 
ATOM      8  H2  UNL     1       4.373 -13.287  14.581  1.00  0.00     0.163 HD
HETATM    9  C12 UNL     1       5.030 -13.968  16.370  1.00  0.00     0.241 C 
HETATM   10  O2  UNL     1       4.699 -15.206  16.178  1.00  0.00    -0.271 OA
HETATM   11  C13 UNL     1       6.087 -13.759  17.382  1.00  0.00     0.175 C 
HETATM   12  N3  UNL     1       7.414 -13.801  16.787  1.00  0.00    -0.359 N 
ATOM     13  H3  UNL     1       7.415 -14.255  15.873  1.00  0.00     0.162 HD
HETATM   14  C18 UNL     1       8.673 -13.372  17.164  1.00  0.00     0.135 C 
HETATM   15  C19 UNL     1       9.609 -13.753  18.226  1.00  0.00     0.159 C 
HETATM   16  N4  UNL     1       9.412 -13.259  19.548  1.00  0.00    -0.347 N 
ATOM     17  H4  UNL     1       9.895 -13.837  20.236  1.00  0.00     0.163 HD
HETATM   18  C24 UNL     1       8.747 -12.213  20.153  1.00  0.00     0.241 C 
HETATM   19  O4  UNL     1       7.715 -12.550  20.866  1.00  0.00    -0.271 OA
HETATM   20  C25 UNL     1       8.939 -10.750  20.186  1.00  0.00     0.179 C 
HETATM   21  N5  UNL     1       9.510 -10.125  19.047  1.00  0.00    -0.359 N 
ATOM     22  H5  UNL     1      10.475 -10.400  18.862  1.00  0.00     0.162 HD
HETATM   23  C29 UNL     1       9.001  -9.208  18.138  1.00  0.00     0.135 C 
HETATM   24  C30 UNL     1       7.874  -8.297  18.169  1.00  0.00     0.164 C 
HETATM   25  N7  UNL     1       6.725  -8.649  18.939  1.00  0.00    -0.347 N 
ATOM     26  H7  UNL     1       6.764  -8.425  19.933  1.00  0.00     0.163 HD
HETATM   27  C36 UNL     1       5.550  -9.268  18.490  1.00  0.00     0.241 C 
HETATM   28  O6  UNL     1       5.048 -10.192  19.180  1.00  0.00    -0.271 OA
ENDROOT
BRANCH  24  29
HETATM   29  C31 UNL     1       8.360  -6.926  18.611  1.00  0.00     0.090 C 
BRANCH  29  30
HETATM   30  C32 UNL     1       8.747  -6.044  17.485  1.00  0.00     0.011 A 
HETATM   31  C33 UNL     1      10.016  -5.635  17.159  1.00  0.00     0.026 A 
HETATM   32  C34 UNL     1       9.954  -4.817  16.022  1.00  0.00     0.019 A 
HETATM   33  C35 UNL     1       8.628  -4.759  15.694  1.00  0.00     0.088 A 
HETATM   34  N6  UNL     1       7.930  -5.495  16.575  1.00  0.00    -0.369 N 
ATOM     35  H6  UNL     1       6.918  -5.619  16.554  1.00  0.00     0.165 HD
ENDBRANCH  29  30
ENDBRANCH  24  29
BRANCH  23  36
HETATM   36  O5  UNL     1       9.677  -9.158  17.022  1.00  0.00    -0.348 OA
ATOM     37  H5  UNL     1      10.220  -9.923  16.877  1.00  0.00     0.219 HD
ENDBRANCH  23  36
BRANCH  20  38
HETATM   38  C26 UNL     1       9.854 -10.405  21.381  1.00  0.00     0.009 C 
HETATM   39  C27 UNL     1       9.173 -10.621  22.705  1.00  0.00     0.012 C 
HETATM   40  C28 UNL     1      11.193 -11.041  21.288  1.00  0.00     0.012 C 
ENDBRANCH  20  38
BRANCH   1  41
HETATM   41  C4  UNL     1       3.357  -8.756  17.460  1.00  0.00     0.035 C 
BRANCH  41  42
HETATM   42  C3  UNL     1       2.796  -7.390  17.209  1.00  0.00     0.002 C 
BRANCH  42  43
HETATM   43  C2  UNL     1       3.191  -6.863  15.824  1.00  0.00    -0.004 C 
HETATM   44  C1  UNL     1       2.293  -5.759  15.374  1.00  0.00     0.005 C 
ENDBRANCH  42  43
ENDBRANCH  41  42
ENDBRANCH   1  41
BRANCH  15  45
HETATM   45  C20 UNL     1       9.853 -15.269  18.225  1.00  0.00     0.037 C 
BRANCH  45  46
HETATM   46  C21 UNL     1      10.592 -15.796  17.048  1.00  0.00    -0.020 C 
HETATM   47  C22 UNL     1      10.330 -17.289  16.972  1.00  0.00     0.009 C 
HETATM   48  C23 UNL     1      12.112 -15.629  17.260  1.00  0.00     0.009 C 
ENDBRANCH  45  46
ENDBRANCH  15  45
BRANCH   6  49
HETATM   49  C8  UNL     1       2.287 -11.886  15.000  1.00  0.00     0.038 C 
BRANCH  49  50
HETATM   50  C9  UNL     1       2.024 -13.156  14.298  1.00  0.00    -0.020 C 
HETATM   51  C10 UNL     1       0.773 -13.880  14.633  1.00  0.00     0.009 C 
HETATM   52  C11 UNL     1       2.016 -12.885  12.796  1.00  0.00     0.009 C 
ENDBRANCH  49  50
ENDBRANCH   6  49
BRANCH  14  53
HETATM   53  O3  UNL     1       9.167 -12.419  16.423  1.00  0.00    -0.348 OA
ATOM     54  H3  UNL     1       9.231 -11.575  16.854  1.00  0.00     0.219 HD
ENDBRANCH  14  53
BRANCH  11  55
HETATM   55  C14 UNL     1       5.943 -14.659  18.560  1.00  0.00     0.038 C 
BRANCH  55  56
HETATM   56  C15 UNL     1       5.046 -14.290  19.679  1.00  0.00    -0.020 C 
HETATM   57  C16 UNL     1       3.587 -14.524  19.508  1.00  0.00     0.009 C 
HETATM   58  C17 UNL     1       5.462 -15.224  20.853  1.00  0.00     0.009 C 
ENDBRANCH  55  56
ENDBRANCH  11  55
TORSDOF 14
ENDMDL
MODEL 4
REMARK VINA RESULT: -6.902759735      6.904     12.710
REMARK  14 active torsions:
REMARK  status: ('A' for Active; 'I' for Inactive)
REMARK    1  A    between atoms: C2_2  and  C3_3 
REMARK    2  A    between atoms: C3_3  and  C4_4 
REMARK    3  A    between atoms: C4_4  and  C5_5 
REMARK    4  A    between atoms: C7_10  and  C8_11 
REMARK    5  A    between atoms: C8_11  and  C9_12 
REMARK    6  A    between atoms: C13_19  and  C14_20 
REMARK    7  A    between atoms: C14_20  and  C15_21 
REMARK    8  A    between atoms: C18_26  and  O3_27 
REMARK    9  A    between atoms: C19_29  and  C20_30 
REMARK   10  A    between atoms: C20_30  and  C21_31 
REMARK   11  A    between atoms: C25_38  and  C26_39 
REMARK   12  A    between atoms: C29_44  and  O5_45 
REMARK   13  A    between atoms: C30_47  and  C31_48 
REMARK   14  A    between atoms: C31_48  and  C32_49 
ROOT
HETATM    1  C5  UNL     1       4.824  -8.928  17.184  1.00  0.00     0.176 C 
HETATM    2  N1  UNL     1       5.122  -9.809  16.098  1.00  0.00    -0.346 N 
ATOM      3  H1  UNL     1       6.089  -9.740  15.778  1.00  0.00     0.163 HD
HETATM    4  C6  UNL     1       4.381 -10.733  15.392  1.00  0.00     0.241 C 
HETATM    5  O1  UNL     1       4.373 -10.616  14.101  1.00  0.00    -0.271 OA
HETATM    6  C7  UNL     1       3.554 -11.894  15.860  1.00  0.00     0.177 C 
HETATM    7  N2  UNL     1       4.336 -13.092  15.559  1.00  0.00    -0.346 N 
ATOM      8  H2  UNL     1       4.390 -13.312  14.564  1.00  0.00     0.163 HD
HETATM    9  C12 UNL     1       5.015 -13.983  16.367  1.00  0.00     0.241 C 
HETATM   10  O2  UNL     1       4.678 -15.220  16.180  1.00  0.00    -0.271 OA
HETATM   11  C13 UNL     1       6.059 -13.773  17.393  1.00  0.00     0.175 C 
HETATM   12  N3  UNL     1       7.394 -13.829  16.817  1.00  0.00    -0.359 N 
ATOM     13  H3  UNL     1       7.405 -14.291  15.907  1.00  0.00     0.162 HD
HETATM   14  C18 UNL     1       8.651 -13.406  17.210  1.00  0.00     0.135 C 
HETATM   15  C19 UNL     1       9.569 -13.785  18.289  1.00  0.00     0.159 C 
HETATM   16  N4  UNL     1       9.355 -13.279  19.603  1.00  0.00    -0.347 N 
ATOM     17  H4  UNL     1       9.824 -13.855  20.303  1.00  0.00     0.163 HD
HETATM   18  C24 UNL     1       8.689 -12.224  20.190  1.00  0.00     0.241 C 
HETATM   19  O4  UNL     1       7.645 -12.547  20.891  1.00  0.00    -0.271 OA
HETATM   20  C25 UNL     1       8.892 -10.761  20.214  1.00  0.00     0.179 C 
HETATM   21  N5  UNL     1       9.484 -10.150  19.078  1.00  0.00    -0.359 N 
ATOM     22  H5  UNL     1      10.449 -10.434  18.910  1.00  0.00     0.162 HD
HETATM   23  C29 UNL     1       8.995  -9.238  18.154  1.00  0.00     0.135 C 
HETATM   24  C30 UNL     1       7.875  -8.317  18.162  1.00  0.00     0.164 C 
HETATM   25  N7  UNL     1       6.712  -8.655  18.918  1.00  0.00    -0.347 N 
ATOM     26  H7  UNL     1       6.738  -8.423  19.911  1.00  0.00     0.163 HD
HETATM   27  C36 UNL     1       5.539  -9.269  18.457  1.00  0.00     0.241 C 
HETATM   28  O6  UNL     1       5.020 -10.184  19.147  1.00  0.00    -0.271 OA
ENDROOT
BRANCH  24  29
HETATM   29  C31 UNL     1       8.364  -6.946  18.600  1.00  0.00     0.090 C 
BRANCH  29  30
HETATM   30  C32 UNL     1       8.741  -6.065  17.471  1.00  0.00     0.011 A 
HETATM   31  C33 UNL     1      10.010  -5.677  17.118  1.00  0.00     0.026 A 
HETATM   32  C34 UNL     1       9.937  -4.850  15.987  1.00  0.00     0.019 A 
HETATM   33  C35 UNL     1       8.605  -4.766  15.691  1.00  0.00     0.088 A 
HETATM   34  N6  UNL     1       7.914  -5.494  16.584  1.00  0.00    -0.369 N 
ATOM     35  H6  UNL     1       6.899  -5.599  16.586  1.00  0.00     0.165 HD
ENDBRANCH  29  30
ENDBRANCH  24  29
BRANCH  23  36
HETATM   36  O5  UNL     1       9.687  -9.201  17.049  1.00  0.00    -0.348 OA
ATOM     37  H5  UNL     1       9.237  -8.761  16.338  1.00  0.00     0.219 HD
ENDBRANCH  23  36
BRANCH  20  38
HETATM   38  C26 UNL     1       9.792 -10.413  21.419  1.00  0.00     0.009 C 
HETATM   39  C27 UNL     1       9.097 -10.633  22.735  1.00  0.00     0.012 C 
HETATM   40  C28 UNL     1      11.135 -11.044  21.341  1.00  0.00     0.012 C 
ENDBRANCH  20  38
BRANCH   1  41
HETATM   41  C4  UNL     1       3.365  -8.750  17.391  1.00  0.00     0.035 C 
BRANCH  41  42
HETATM   42  C3  UNL     1       2.805  -7.403  17.046  1.00  0.00     0.002 C 
BRANCH  42  43
HETATM   43  C2  UNL     1       3.089  -6.375  18.148  1.00  0.00    -0.004 C 
HETATM   44  C1  UNL     1       2.239  -5.157  18.001  1.00  0.00     0.005 C 
ENDBRANCH  42  43
ENDBRANCH  41  42
ENDBRANCH   1  41
BRANCH  15  45
HETATM   45  C20 UNL     1       9.801 -15.303  18.303  1.00  0.00     0.037 C 
BRANCH  45  46
HETATM   46  C21 UNL     1       9.318 -16.012  19.517  1.00  0.00    -0.020 C 
HETATM   47  C22 UNL     1      10.527 -16.613  20.210  1.00  0.00     0.009 C 
HETATM   48  C23 UNL     1       8.411 -17.195  19.115  1.00  0.00     0.009 C 
ENDBRANCH  45  46
ENDBRANCH  15  45
BRANCH   6  49
HETATM   49  C8  UNL     1       2.308 -11.892  14.940  1.00  0.00     0.038 C 
BRANCH  49  50
HETATM   50  C9  UNL     1       2.055 -13.161  14.232  1.00  0.00    -0.020 C 
HETATM   51  C10 UNL     1       0.816 -13.903  14.573  1.00  0.00     0.009 C 
HETATM   52  C11 UNL     1       2.031 -12.880  12.732  1.00  0.00     0.009 C 
ENDBRANCH  49  50
ENDBRANCH   6  49
BRANCH  14  53
HETATM   53  O3  UNL     1       9.163 -12.463  16.468  1.00  0.00    -0.348 OA
ATOM     54  H3  UNL     1       9.250 -11.622  16.902  1.00  0.00     0.219 HD
ENDBRANCH  14  53
BRANCH  11  55
HETATM   55  C14 UNL     1       5.891 -14.662  18.576  1.00  0.00     0.038 C 
BRANCH  55  56
HETATM   56  C15 UNL     1       5.018 -14.256  19.700  1.00  0.00    -0.020 C 
HETATM   57  C16 UNL     1       3.548 -14.403  19.528  1.00  0.00     0.009 C 
HETATM   58  C17 UNL     1       5.380 -15.226  20.862  1.00  0.00     0.009 C 
ENDBRANCH  55  56
ENDBRANCH  11  55
TORSDOF 14
ENDMDL
MODEL 5
REMARK VINA RESULT: -6.745451033      6.868     12.579
REMARK  14 active torsions:
REMARK  status: ('A' for Active; 'I' for Inactive)
REMARK    1  A    between atoms: C2_2  and  C3_3 
REMARK    2  A    between atoms: C3_3  and  C4_4 
REMARK    3  A    between atoms: C4_4  and  C5_5 
REMARK    4  A    between atoms: C7_10  and  C8_11 
REMARK    5  A    between atoms: C8_11  and  C9_12 
REMARK    6  A    between atoms: C13_19  and  C14_20 
REMARK    7  A    between atoms: C14_20  and  C15_21 
REMARK    8  A    between atoms: C18_26  and  O3_27 
REMARK    9  A    between atoms: C19_29  and  C20_30 
REMARK   10  A    between atoms: C20_30  and  C21_31 
REMARK   11  A    between atoms: C25_38  and  C26_39 
REMARK   12  A    between atoms: C29_44  and  O5_45 
REMARK   13  A    between atoms: C30_47  and  C31_48 
REMARK   14  A    between atoms: C31_48  and  C32_49 
ROOT
HETATM    1  C5  UNL     1       4.744  -8.906  17.219  1.00  0.00     0.176 C 
HETATM    2  N1  UNL     1       5.021  -9.778  16.120  1.00  0.00    -0.346 N 
ATOM      3  H1  UNL     1       5.979  -9.701  15.777  1.00  0.00     0.163 HD
HETATM    4  C6  UNL     1       4.268 -10.701  15.425  1.00  0.00     0.241 C 
HETATM    5  O1  UNL     1       4.228 -10.575  14.135  1.00  0.00    -0.271 OA
HETATM    6  C7  UNL     1       3.458 -11.869  15.905  1.00  0.00     0.177 C 
HETATM    7  N2  UNL     1       4.239 -13.062  15.575  1.00  0.00    -0.346 N 
ATOM      8  H2  UNL     1       4.270 -13.274  14.578  1.00  0.00     0.163 HD
HETATM    9  C12 UNL     1       4.942 -13.954  16.361  1.00  0.00     0.241 C 
HETATM   10  O2  UNL     1       4.606 -15.191  16.173  1.00  0.00    -0.271 OA
HETATM   11  C13 UNL     1       6.009 -13.746  17.363  1.00  0.00     0.175 C 
HETATM   12  N3  UNL     1       7.330 -13.791  16.755  1.00  0.00    -0.359 N 
ATOM     13  H3  UNL     1       7.321 -14.247  15.842  1.00  0.00     0.162 HD
HETATM   14  C18 UNL     1       8.594 -13.364  17.120  1.00  0.00     0.135 C 
HETATM   15  C19 UNL     1       9.539 -13.747  18.174  1.00  0.00     0.159 C 
HETATM   16  N4  UNL     1       9.355 -13.251  19.497  1.00  0.00    -0.347 N 
ATOM     17  H4  UNL     1       9.843 -13.830  20.180  1.00  0.00     0.163 HD
HETATM   18  C24 UNL     1       8.698 -12.203  20.107  1.00  0.00     0.241 C 
HETATM   19  O4  UNL     1       7.672 -12.537  20.830  1.00  0.00    -0.271 OA
HETATM   20  C25 UNL     1       8.893 -10.740  20.136  1.00  0.00     0.179 C 
HETATM   21  N5  UNL     1       9.455 -10.117  18.991  1.00  0.00    -0.359 N 
ATOM     22  H5  UNL     1      10.418 -10.395  18.798  1.00  0.00     0.162 HD
HETATM   23  C29 UNL     1       8.939  -9.201  18.086  1.00  0.00     0.135 C 
HETATM   24  C30 UNL     1       7.815  -8.287  18.127  1.00  0.00     0.164 C 
HETATM   25  N7  UNL     1       6.673  -8.636  18.908  1.00  0.00    -0.347 N 
ATOM     26  H7  UNL     1       6.722  -8.411  19.902  1.00  0.00     0.163 HD
HETATM   27  C36 UNL     1       5.492  -9.252  18.471  1.00  0.00     0.241 C 
HETATM   28  O6  UNL     1       4.994 -10.175  19.167  1.00  0.00    -0.271 OA
ENDROOT
BRANCH  24  29
HETATM   29  C31 UNL     1       8.308  -6.916  18.563  1.00  0.00     0.090 C 
BRANCH  29  30
HETATM   30  C32 UNL     1       8.045  -5.850  17.570  1.00  0.00     0.011 A 
HETATM   31  C33 UNL     1       7.007  -4.952  17.583  1.00  0.00     0.026 A 
HETATM   32  C34 UNL     1       7.123  -4.104  16.471  1.00  0.00     0.019 A 
HETATM   33  C35 UNL     1       8.244  -4.526  15.814  1.00  0.00     0.088 A 
HETATM   34  N6  UNL     1       8.776  -5.563  16.484  1.00  0.00    -0.369 N 
ATOM     35  H6  UNL     1       9.620  -6.063  16.204  1.00  0.00     0.165 HD
ENDBRANCH  29  30
ENDBRANCH  24  29
BRANCH  23  36
HETATM   36  O5  UNL     1       9.605  -9.153  16.965  1.00  0.00    -0.348 OA
ATOM     37  H5  UNL     1       9.177  -8.631  16.296  1.00  0.00     0.219 HD
ENDBRANCH  23  36
BRANCH  20  38
HETATM   38  C26 UNL     1       9.820 -10.396  21.322  1.00  0.00     0.009 C 
HETATM   39  C27 UNL     1       9.148 -10.599  22.653  1.00  0.00     0.012 C 
HETATM   40  C28 UNL     1      11.154 -11.044  21.223  1.00  0.00     0.012 C 
ENDBRANCH  20  38
BRANCH   1  41
HETATM   41  C4  UNL     1       3.290  -8.737  17.462  1.00  0.00     0.035 C 
BRANCH  41  42
HETATM   42  C3  UNL     1       2.696  -7.424  17.052  1.00  0.00     0.002 C 
BRANCH  42  43
HETATM   43  C2  UNL     1       3.534  -6.243  17.559  1.00  0.00    -0.004 C 
HETATM   44  C1  UNL     1       3.274  -5.958  19.000  1.00  0.00     0.005 C 
ENDBRANCH  42  43
ENDBRANCH  41  42
ENDBRANCH   1  41
BRANCH  15  45
HETATM   45  C20 UNL     1       9.779 -15.263  18.172  1.00  0.00     0.037 C 
BRANCH  45  46
HETATM   46  C21 UNL     1      10.292 -15.827  16.896  1.00  0.00    -0.020 C 
HETATM   47  C22 UNL     1       9.436 -17.032  16.549  1.00  0.00     0.009 C 
HETATM   48  C23 UNL     1      11.730 -16.353  17.088  1.00  0.00     0.009 C 
ENDBRANCH  45  46
ENDBRANCH  15  45
BRANCH   6  49
HETATM   49  C8  UNL     1       2.191 -11.868  15.014  1.00  0.00     0.038 C 
BRANCH  49  50
HETATM   50  C9  UNL     1       1.289 -13.017  15.213  1.00  0.00    -0.020 C 
HETATM   51  C10 UNL     1       0.610 -13.139  16.527  1.00  0.00     0.009 C 
HETATM   52  C11 UNL     1       0.209 -12.975  14.135  1.00  0.00     0.009 C 
ENDBRANCH  49  50
ENDBRANCH   6  49
BRANCH  14  53
HETATM   53  O3  UNL     1       9.083 -12.414  16.373  1.00  0.00    -0.348 OA
ATOM     54  H3  UNL     1       8.692 -12.348  15.510  1.00  0.00     0.219 HD
ENDBRANCH  14  53
BRANCH  11  55
HETATM   55  C14 UNL     1       5.874 -14.645  18.543  1.00  0.00     0.038 C 
BRANCH  55  56
HETATM   56  C15 UNL     1       4.979 -14.279  19.664  1.00  0.00    -0.020 C 
HETATM   57  C16 UNL     1       3.519 -14.511  19.494  1.00  0.00     0.009 C 
HETATM   58  C17 UNL     1       5.395 -15.217  20.834  1.00  0.00     0.009 C 
ENDBRANCH  55  56
ENDBRANCH  11  55
TORSDOF 14
ENDMDL
