MODEL 1
REMARK VINA RESULT: -7.200389953      0.000      0.000
REMARK  18 active torsions:
REMARK  status: ('A' for Active; 'I' for Inactive)
REMARK    1  A    between atoms: N1_1  and  C1_4 
REMARK    2  A    between atoms: N3_8  and  C3_9 
REMARK    3  A    between atoms: C3_9  and  C4_10 
REMARK    4  A    between atoms: C4_10  and  O1_11 
REMARK    5  A    between atoms: C4_10  and  C5_13 
REMARK    6  A    between atoms: C5_13  and  O2_14 
REMARK    7  A    between atoms: C5_13  and  C6_16 
REMARK    8  A    between atoms: C6_16  and  O4_18 
REMARK    9  A    between atoms: O4_18  and  C7_19 
REMARK   10  A    between atoms: C7_19  and  C8_20 
REMARK   11  A    between atoms: C7_19  and  C9_23 
REMARK   12  A    between atoms: C8_20  and  O5_21 
REMARK   13  A    between atoms: C13_28  and  O7_29 
REMARK   14  A    between atoms: C14_31  and  O8_32 
REMARK   15  A    between atoms: C17_36  and  O9_37 
REMARK   16  A    between atoms: C17_36  and  C18_39 
REMARK   17  A    between atoms: C18_39  and  O10_40 
REMARK   18  A    between atoms: C20_46  and  N6_47 
ROOT
HETATM    1  C6  UNL     1      28.443  25.184 -42.568  1.00  0.00     0.290 C 
HETATM    2  O3  UNL     1      27.385  24.856 -42.006  1.00  0.00    -0.262 OA
ENDROOT
BRANCH   1   3
HETATM    3  C5  UNL     1      29.163  24.338 -43.551  1.00  0.00     0.247 C 
BRANCH   3   4
HETATM    4  C4  UNL     1      28.612  24.435 -44.928  1.00  0.00     0.175 C 
BRANCH   4   5
HETATM    5  C3  UNL     1      29.423  25.191 -45.919  1.00  0.00     0.183 C 
BRANCH   5   6
HETATM    6  N3  UNL     1      29.158  24.996 -47.295  1.00  0.00    -0.173 N 
HETATM    7  C2  UNL     1      29.539  25.762 -48.330  1.00  0.00     0.736 A 
HETATM    8  N2  UNL     1      30.231  26.909 -48.423  1.00  0.00    -0.019 N 
HETATM    9  N5  UNL     1      29.103  25.212 -49.492  1.00  0.00     0.092 N 
HETATM   10  C1  UNL     1      30.500  27.512 -49.595  1.00  0.00     0.705 A 
ATOM     11  H2  UNL     1      30.569  27.344 -47.564  1.00  0.00     0.203 HD
HETATM   12  N7  UNL     1      30.044  26.922 -50.713  1.00  0.00    -0.020 N 
HETATM   13  C20 UNL     1      29.348  25.780 -50.690  1.00  0.00     0.727 A 
ATOM     14  H7  UNL     1      30.235  27.362 -51.613  1.00  0.00     0.203 HD
HETATM   15  N4  UNL     1      28.464  24.119 -49.151  1.00  0.00    -0.260 N 
HETATM   16  C19 UNL     1      28.483  23.965 -47.828  1.00  0.00     0.219 A 
ATOM     17  H4  UNL     1      28.016  23.478 -49.806  1.00  0.00     0.189 HD
BRANCH  10  18
HETATM   18  N1  UNL     1      31.171  28.620 -49.666  1.00  0.00    -0.234 N 
ATOM     19  H12 UNL     1      31.910  28.819 -48.992  1.00  0.00     0.174 HD
ATOM     20  H11 UNL     1      30.989  29.321 -50.383  1.00  0.00     0.174 HD
ENDBRANCH  10  18
BRANCH  13  21
HETATM   21  N6  UNL     1      28.907  25.209 -51.777  1.00  0.00    -0.232 N 
ATOM     22  H62 UNL     1      27.915  25.034 -51.938  1.00  0.00     0.174 HD
ATOM     23  H61 UNL     1      29.567  24.922 -52.500  1.00  0.00     0.174 HD
ENDBRANCH  13  21
ENDBRANCH   5   6
ENDBRANCH   4   5
BRANCH   4  24
HETATM   24  O1  UNL     1      27.357  25.122 -44.916  1.00  0.00    -0.391 OA
ATOM     25  H1  UNL     1      26.873  24.700 -44.215  1.00  0.00     0.210 HD
ENDBRANCH   4  24
ENDBRANCH   3   4
BRANCH   3  26
HETATM   26  O2  UNL     1      29.175  23.048 -43.048  1.00  0.00    -0.383 OA
ATOM     27  H2  UNL     1      29.885  22.885 -42.437  1.00  0.00     0.210 HD
ENDBRANCH   3  26
ENDBRANCH   1   3
BRANCH   1  28
HETATM   28  O4  UNL     1      28.995  26.416 -42.266  1.00  0.00    -0.311 OA
BRANCH  28  29
HETATM   29  C7  UNL     1      28.250  27.648 -42.623  1.00  0.00     0.165 C 
BRANCH  29  30
HETATM   30  C8  UNL     1      29.087  28.244 -43.701  1.00  0.00     0.197 C 
BRANCH  30  31
HETATM   31  O5  UNL     1      29.000  29.593 -43.926  1.00  0.00    -0.398 OA
ATOM     32  H5  UNL     1      28.850  29.895 -44.814  1.00  0.00     0.209 HD
ENDBRANCH  30  31
ENDBRANCH  29  30
BRANCH  29  33
HETATM   33  C9  UNL     1      28.153  28.347 -41.315  1.00  0.00     0.083 C 
HETATM   34  C10 UNL     1      29.505  28.049 -40.624  1.00  0.00     0.186 C 
HETATM   35  O6  UNL     1      29.551  28.502 -39.296  1.00  0.00    -0.350 OA
HETATM   36  C11 UNL     1      28.586  27.951 -38.441  1.00  0.00     0.081 A 
HETATM   37  C12 UNL     1      28.834  27.624 -37.130  1.00  0.00     0.076 A 
HETATM   38  C16 UNL     1      27.371  27.754 -38.999  1.00  0.00     0.015 A 
HETATM   39  C13 UNL     1      27.833  27.079 -36.331  1.00  0.00     0.101 A 
HETATM   40  C14 UNL     1      26.594  26.871 -36.882  1.00  0.00     0.099 A 
HETATM   41  C15 UNL     1      26.378  27.216 -38.222  1.00  0.00     0.052 A 
HETATM   42  C17 UNL     1      27.009  28.115 -40.426  1.00  0.00     0.117 C 
BRANCH  39  43
HETATM   43  O7  UNL     1      28.075  26.747 -35.011  1.00  0.00    -0.358 OA
ATOM     44  H7  UNL     1      27.794  25.912 -34.655  1.00  0.00     0.217 HD
ENDBRANCH  39  43
BRANCH  40  45
HETATM   45  O8  UNL     1      25.563  26.335 -36.151  1.00  0.00    -0.358 OA
ATOM     46  H8  UNL     1      24.917  25.761 -36.548  1.00  0.00     0.217 HD
ENDBRANCH  40  45
BRANCH  42  47
HETATM   47  O9  UNL     1      26.122  27.109 -40.794  1.00  0.00    -0.382 OA
ATOM     48  H9  UNL     1      25.645  26.679 -40.093  1.00  0.00     0.211 HD
ENDBRANCH  42  47
BRANCH  42  49
HETATM   49  C18 UNL     1      26.201  29.426 -40.241  1.00  0.00     0.207 C 
BRANCH  49  50
HETATM   50  O10 UNL     1      26.992  30.551 -40.240  1.00  0.00    -0.398 OA
ATOM     51  H10 UNL     1      26.923  31.056 -41.042  1.00  0.00     0.209 HD
ENDBRANCH  49  50
ENDBRANCH  42  49
ENDBRANCH  29  33
ENDBRANCH  28  29
ENDBRANCH   1  28
TORSDOF 18
ENDMDL
MODEL 2
REMARK VINA RESULT: -7.169121091      5.461     10.606
REMARK  18 active torsions:
REMARK  status: ('A' for Active; 'I' for Inactive)
REMARK    1  A    between atoms: N1_1  and  C1_4 
REMARK    2  A    between atoms: N3_8  and  C3_9 
REMARK    3  A    between atoms: C3_9  and  C4_10 
REMARK    4  A    between atoms: C4_10  and  O1_11 
REMARK    5  A    between atoms: C4_10  and  C5_13 
REMARK    6  A    between atoms: C5_13  and  O2_14 
REMARK    7  A    between atoms: C5_13  and  C6_16 
REMARK    8  A    between atoms: C6_16  and  O4_18 
REMARK    9  A    between atoms: O4_18  and  C7_19 
REMARK   10  A    between atoms: C7_19  and  C8_20 
REMARK   11  A    between atoms: C7_19  and  C9_23 
REMARK   12  A    between atoms: C8_20  and  O5_21 
REMARK   13  A    between atoms: C13_28  and  O7_29 
REMARK   14  A    between atoms: C14_31  and  O8_32 
REMARK   15  A    between atoms: C17_36  and  O9_37 
REMARK   16  A    between atoms: C17_36  and  C18_39 
REMARK   17  A    between atoms: C18_39  and  O10_40 
REMARK   18  A    between atoms: C20_46  and  N6_47 
ROOT
HETATM    1  C6  UNL     1      28.711  28.170 -43.487  1.00  0.00     0.290 C 
HETATM    2  O3  UNL     1      27.545  28.290 -43.899  1.00  0.00    -0.262 OA
ENDROOT
BRANCH   1   3
HETATM    3  C5  UNL     1      29.190  28.676 -42.178  1.00  0.00     0.247 C 
BRANCH   3   4
HETATM    4  C4  UNL     1      28.267  28.372 -41.054  1.00  0.00     0.175 C 
BRANCH   4   5
HETATM    5  C3  UNL     1      28.713  28.781 -39.695  1.00  0.00     0.183 C 
BRANCH   5   6
HETATM    6  N3  UNL     1      27.729  29.128 -38.739  1.00  0.00    -0.173 N 
HETATM    7  C2  UNL     1      26.937  28.308 -38.030  1.00  0.00     0.736 A 
HETATM    8  N2  UNL     1      26.789  26.973 -37.992  1.00  0.00    -0.019 N 
HETATM    9  N5  UNL     1      26.147  29.038 -37.201  1.00  0.00     0.092 N 
HETATM   10  C1  UNL     1      25.911  26.355 -37.182  1.00  0.00     0.705 A 
ATOM     11  H2  UNL     1      27.369  26.402 -38.606  1.00  0.00     0.203 HD
HETATM   12  N7  UNL     1      25.155  27.128 -36.383  1.00  0.00    -0.020 N 
HETATM   13  C20 UNL     1      25.253  28.462 -36.372  1.00  0.00     0.727 A 
ATOM     14  H7  UNL     1      24.482  26.680 -35.761  1.00  0.00     0.203 HD
HETATM   15  N4  UNL     1      26.468  30.290 -37.415  1.00  0.00    -0.260 N 
HETATM   16  C19 UNL     1      27.423  30.372 -38.341  1.00  0.00     0.219 A 
ATOM     17  H4  UNL     1      26.047  31.089 -36.940  1.00  0.00     0.189 HD
BRANCH  10  18
HETATM   18  N1  UNL     1      25.781  25.065 -37.158  1.00  0.00    -0.234 N 
ATOM     19  H12 UNL     1      26.571  24.463 -37.388  1.00  0.00     0.174 HD
ATOM     20  H11 UNL     1      24.901  24.610 -36.913  1.00  0.00     0.174 HD
ENDBRANCH  10  18
BRANCH  13  21
HETATM   21  N6  UNL     1      24.519  29.210 -35.595  1.00  0.00    -0.232 N 
ATOM     22  H62 UNL     1      24.664  30.216 -35.510  1.00  0.00     0.174 HD
ATOM     23  H61 UNL     1      23.771  28.786 -35.047  1.00  0.00     0.174 HD
ENDBRANCH  13  21
ENDBRANCH   5   6
ENDBRANCH   4   5
BRANCH   4  24
HETATM   24  O1  UNL     1      28.070  26.959 -40.939  1.00  0.00    -0.391 OA
ATOM     25  H1  UNL     1      27.562  26.737 -41.711  1.00  0.00     0.210 HD
ENDBRANCH   4  24
ENDBRANCH   3   4
BRANCH   3  26
HETATM   26  O2  UNL     1      29.451  30.027 -42.333  1.00  0.00    -0.383 OA
ATOM     27  H2  UNL     1      30.194  30.209 -42.896  1.00  0.00     0.210 HD
ENDBRANCH   3  26
ENDBRANCH   1   3
BRANCH   1  28
HETATM   28  O4  UNL     1      29.631  27.525 -44.294  1.00  0.00    -0.311 OA
BRANCH  28  29
HETATM   29  C7  UNL     1      29.307  26.177 -44.823  1.00  0.00     0.165 C 
BRANCH  29  30
HETATM   30  C8  UNL     1      29.573  25.288 -43.659  1.00  0.00     0.197 C 
BRANCH  30  31
HETATM   31  O5  UNL     1      28.506  24.796 -42.955  1.00  0.00    -0.398 OA
ATOM     32  H5  UNL     1      28.481  24.931 -42.015  1.00  0.00     0.209 HD
ENDBRANCH  30  31
ENDBRANCH  29  30
BRANCH  29  33
HETATM   33  C9  UNL     1      30.189  26.088 -46.016  1.00  0.00     0.083 C 
HETATM   34  C10 UNL     1      30.320  27.551 -46.502  1.00  0.00     0.186 C 
HETATM   35  O6  UNL     1      31.002  27.661 -47.725  1.00  0.00    -0.350 OA
HETATM   36  C11 UNL     1      30.415  26.980 -48.801  1.00  0.00     0.081 A 
HETATM   37  C12 UNL     1      30.389  27.470 -50.084  1.00  0.00     0.076 A 
HETATM   38  C16 UNL     1      29.863  25.786 -48.491  1.00  0.00     0.015 A 
HETATM   39  C13 UNL     1      29.790  26.747 -51.111  1.00  0.00     0.101 A 
HETATM   40  C14 UNL     1      29.224  25.533 -50.814  1.00  0.00     0.099 A 
HETATM   41  C15 UNL     1      29.269  25.065 -49.495  1.00  0.00     0.052 A 
HETATM   42  C17 UNL     1      29.876  25.162 -47.111  1.00  0.00     0.117 C 
BRANCH  39  43
HETATM   43  O7  UNL     1      29.759  27.234 -52.404  1.00  0.00    -0.358 OA
ATOM     44  H7  UNL     1      30.434  27.822 -52.724  1.00  0.00     0.217 HD
ENDBRANCH  39  43
BRANCH  40  45
HETATM   45  O8  UNL     1      28.615  24.768 -51.778  1.00  0.00    -0.358 OA
ATOM     46  H8  UNL     1      28.131  23.981 -51.557  1.00  0.00     0.217 HD
ENDBRANCH  40  45
BRANCH  42  47
HETATM   47  O9  UNL     1      28.652  24.504 -47.046  1.00  0.00    -0.382 OA
ATOM     48  H9  UNL     1      28.057  24.633 -47.775  1.00  0.00     0.211 HD
ENDBRANCH  42  47
BRANCH  42  49
HETATM   49  C18 UNL     1      30.992  24.092 -47.241  1.00  0.00     0.207 C 
BRANCH  49  50
HETATM   50  O10 UNL     1      32.176  24.473 -46.655  1.00  0.00    -0.398 OA
ATOM     51  H10 UNL     1      32.931  24.340 -47.217  1.00  0.00     0.209 HD
ENDBRANCH  49  50
ENDBRANCH  42  49
ENDBRANCH  29  33
ENDBRANCH  28  29
ENDBRANCH   1  28
TORSDOF 18
ENDMDL
MODEL 3
REMARK VINA RESULT: -7.122433760      1.184      1.622
REMARK  18 active torsions:
REMARK  status: ('A' for Active; 'I' for Inactive)
REMARK    1  A    between atoms: N1_1  and  C1_4 
REMARK    2  A    between atoms: N3_8  and  C3_9 
REMARK    3  A    between atoms: C3_9  and  C4_10 
REMARK    4  A    between atoms: C4_10  and  O1_11 
REMARK    5  A    between atoms: C4_10  and  C5_13 
REMARK    6  A    between atoms: C5_13  and  O2_14 
REMARK    7  A    between atoms: C5_13  and  C6_16 
REMARK    8  A    between atoms: C6_16  and  O4_18 
REMARK    9  A    between atoms: O4_18  and  C7_19 
REMARK   10  A    between atoms: C7_19  and  C8_20 
REMARK   11  A    between atoms: C7_19  and  C9_23 
REMARK   12  A    between atoms: C8_20  and  O5_21 
REMARK   13  A    between atoms: C13_28  and  O7_29 
REMARK   14  A    between atoms: C14_31  and  O8_32 
REMARK   15  A    between atoms: C17_36  and  O9_37 
REMARK   16  A    between atoms: C17_36  and  C18_39 
REMARK   17  A    between atoms: C18_39  and  O10_40 
REMARK   18  A    between atoms: C20_46  and  N6_47 
ROOT
HETATM    1  C6  UNL     1      28.489  25.142 -42.816  1.00  0.00     0.290 C 
HETATM    2  O3  UNL     1      27.469  24.702 -42.260  1.00  0.00    -0.262 OA
ENDROOT
BRANCH   1   3
HETATM    3  C5  UNL     1      29.251  24.412 -43.859  1.00  0.00     0.247 C 
BRANCH   3   4
HETATM    4  C4  UNL     1      28.604  24.446 -45.195  1.00  0.00     0.175 C 
BRANCH   4   5
HETATM    5  C3  UNL     1      29.238  25.315 -46.223  1.00  0.00     0.183 C 
BRANCH   5   6
HETATM    6  N3  UNL     1      30.122  24.722 -47.154  1.00  0.00    -0.173 N 
HETATM    7  C2  UNL     1      30.021  24.695 -48.493  1.00  0.00     0.736 A 
HETATM    8  N2  UNL     1      29.106  25.163 -49.358  1.00  0.00    -0.019 N 
HETATM    9  N5  UNL     1      31.091  24.048 -49.021  1.00  0.00     0.092 N 
HETATM   10  C1  UNL     1      29.213  25.017 -50.691  1.00  0.00     0.705 A 
ATOM     11  H2  UNL     1      28.291  25.652 -48.987  1.00  0.00     0.203 HD
HETATM   12  N7  UNL     1      30.294  24.368 -51.157  1.00  0.00    -0.020 N 
HETATM   13  C20 UNL     1      31.242  23.877 -50.349  1.00  0.00     0.727 A 
ATOM     14  H7  UNL     1      30.396  24.245 -52.165  1.00  0.00     0.203 HD
HETATM   15  N4  UNL     1      31.830  23.690 -47.999  1.00  0.00    -0.260 N 
HETATM   16  C19 UNL     1      31.266  24.086 -46.859  1.00  0.00     0.219 A 
ATOM     17  H4  UNL     1      32.711  23.181 -48.067  1.00  0.00     0.189 HD
BRANCH  10  18
HETATM   18  N1  UNL     1      28.320  25.475 -51.512  1.00  0.00    -0.234 N 
ATOM     19  H12 UNL     1      28.017  26.447 -51.454  1.00  0.00     0.174 HD
ATOM     20  H11 UNL     1      27.896  24.894 -52.235  1.00  0.00     0.174 HD
ENDBRANCH  10  18
BRANCH  13  21
HETATM   21  N6  UNL     1      32.290  23.248 -50.804  1.00  0.00    -0.232 N 
ATOM     22  H62 UNL     1      32.223  22.350 -51.284  1.00  0.00     0.174 HD
ATOM     23  H61 UNL     1      33.216  23.658 -50.683  1.00  0.00     0.174 HD
ENDBRANCH  13  21
ENDBRANCH   5   6
ENDBRANCH   4   5
BRANCH   4  24
HETATM   24  O1  UNL     1      27.270  24.957 -45.091  1.00  0.00    -0.391 OA
ATOM     25  H1  UNL     1      27.330  25.606 -44.399  1.00  0.00     0.210 HD
ENDBRANCH   4  24
ENDBRANCH   3   4
BRANCH   3  26
HETATM   26  O2  UNL     1      29.472  23.131 -43.381  1.00  0.00    -0.383 OA
ATOM     27  H2  UNL     1      29.911  23.110 -42.539  1.00  0.00     0.210 HD
ENDBRANCH   3  26
ENDBRANCH   1   3
BRANCH   1  28
HETATM   28  O4  UNL     1      28.953  26.392 -42.448  1.00  0.00    -0.311 OA
BRANCH  28  29
HETATM   29  C7  UNL     1      28.147  27.590 -42.788  1.00  0.00     0.165 C 
BRANCH  29  30
HETATM   30  C8  UNL     1      28.945  28.234 -43.868  1.00  0.00     0.197 C 
BRANCH  30  31
HETATM   31  O5  UNL     1      28.676  29.538 -44.190  1.00  0.00    -0.398 OA
ATOM     32  H5  UNL     1      29.146  29.932 -44.916  1.00  0.00     0.209 HD
ENDBRANCH  30  31
ENDBRANCH  29  30
BRANCH  29  33
HETATM   33  C9  UNL     1      28.029  28.272 -41.473  1.00  0.00     0.083 C 
HETATM   34  C10 UNL     1      29.404  28.042 -40.801  1.00  0.00     0.186 C 
HETATM   35  O6  UNL     1      29.442  28.487 -39.469  1.00  0.00    -0.350 OA
HETATM   36  C11 UNL     1      28.518  27.879 -38.608  1.00  0.00     0.081 A 
HETATM   37  C12 UNL     1      28.799  27.556 -37.303  1.00  0.00     0.076 A 
HETATM   38  C16 UNL     1      27.308  27.621 -39.153  1.00  0.00     0.015 A 
HETATM   39  C13 UNL     1      27.839  26.951 -36.496  1.00  0.00     0.101 A 
HETATM   40  C14 UNL     1      26.606  26.682 -37.034  1.00  0.00     0.099 A 
HETATM   41  C15 UNL     1      26.356  27.025 -38.369  1.00  0.00     0.052 A 
HETATM   42  C17 UNL     1      26.910  27.973 -40.572  1.00  0.00     0.117 C 
BRANCH  39  43
HETATM   43  O7  UNL     1      28.114  26.623 -35.182  1.00  0.00    -0.358 OA
ATOM     44  H7  UNL     1      28.407  25.751 -34.944  1.00  0.00     0.217 HD
ENDBRANCH  39  43
BRANCH  40  45
HETATM   45  O8  UNL     1      25.614  26.086 -36.295  1.00  0.00    -0.358 OA
ATOM     46  H8  UNL     1      25.253  25.241 -36.537  1.00  0.00     0.217 HD
ENDBRANCH  40  45
BRANCH  42  47
HETATM   47  O9  UNL     1      26.074  26.924 -40.938  1.00  0.00    -0.382 OA
ATOM     48  H9  UNL     1      25.822  26.317 -40.252  1.00  0.00     0.211 HD
ENDBRANCH  42  47
BRANCH  42  49
HETATM   49  C18 UNL     1      26.036  29.238 -40.367  1.00  0.00     0.207 C 
BRANCH  49  50
HETATM   50  O10 UNL     1      26.777  30.383 -40.193  1.00  0.00    -0.398 OA
ATOM     51  H10 UNL     1      27.706  30.254 -40.346  1.00  0.00     0.209 HD
ENDBRANCH  49  50
ENDBRANCH  42  49
ENDBRANCH  29  33
ENDBRANCH  28  29
ENDBRANCH   1  28
TORSDOF 18
ENDMDL
MODEL 4
REMARK VINA RESULT: -6.991993397      5.606     10.488
REMARK  18 active torsions:
REMARK  status: ('A' for Active; 'I' for Inactive)
REMARK    1  A    between atoms: N1_1  and  C1_4 
REMARK    2  A    between atoms: N3_8  and  C3_9 
REMARK    3  A    between atoms: C3_9  and  C4_10 
REMARK    4  A    between atoms: C4_10  and  O1_11 
REMARK    5  A    between atoms: C4_10  and  C5_13 
REMARK    6  A    between atoms: C5_13  and  O2_14 
REMARK    7  A    between atoms: C5_13  and  C6_16 
REMARK    8  A    between atoms: C6_16  and  O4_18 
REMARK    9  A    between atoms: O4_18  and  C7_19 
REMARK   10  A    between atoms: C7_19  and  C8_20 
REMARK   11  A    between atoms: C7_19  and  C9_23 
REMARK   12  A    between atoms: C8_20  and  O5_21 
REMARK   13  A    between atoms: C13_28  and  O7_29 
REMARK   14  A    between atoms: C14_31  and  O8_32 
REMARK   15  A    between atoms: C17_36  and  O9_37 
REMARK   16  A    between atoms: C17_36  and  C18_39 
REMARK   17  A    between atoms: C18_39  and  O10_40 
REMARK   18  A    between atoms: C20_46  and  N6_47 
ROOT
HETATM    1  C6  UNL     1      28.323  28.018 -42.681  1.00  0.00     0.290 C 
HETATM    2  O3  UNL     1      27.366  28.335 -43.406  1.00  0.00    -0.262 OA
ENDROOT
BRANCH   1   3
HETATM    3  C5  UNL     1      28.721  28.752 -41.455  1.00  0.00     0.247 C 
BRANCH   3   4
HETATM    4  C4  UNL     1      27.684  28.730 -40.391  1.00  0.00     0.175 C 
BRANCH   4   5
HETATM    5  C3  UNL     1      27.618  27.506 -39.549  1.00  0.00     0.183 C 
BRANCH   5   6
HETATM    6  N3  UNL     1      27.357  27.653 -38.166  1.00  0.00    -0.173 N 
HETATM    7  C2  UNL     1      26.183  27.909 -37.566  1.00  0.00     0.736 A 
HETATM    8  N2  UNL     1      24.940  28.124 -38.027  1.00  0.00    -0.019 N 
HETATM    9  N5  UNL     1      26.355  27.947 -36.220  1.00  0.00     0.092 N 
HETATM   10  C1  UNL     1      23.890  28.367 -37.221  1.00  0.00     0.705 A 
ATOM     11  H2  UNL     1      24.784  28.102 -39.035  1.00  0.00     0.203 HD
HETATM   12  N7  UNL     1      24.119  28.393 -35.897  1.00  0.00    -0.020 N 
HETATM   13  C20 UNL     1      25.334  28.187 -35.374  1.00  0.00     0.727 A 
ATOM     14  H7  UNL     1      23.338  28.576 -35.267  1.00  0.00     0.203 HD
HETATM   15  N4  UNL     1      27.629  27.714 -36.017  1.00  0.00    -0.260 N 
HETATM   16  C19 UNL     1      28.257  27.532 -37.178  1.00  0.00     0.219 A 
ATOM     17  H4  UNL     1      28.076  27.677 -35.101  1.00  0.00     0.189 HD
BRANCH  10  18
HETATM   18  N1  UNL     1      22.696  28.572 -37.683  1.00  0.00    -0.234 N 
ATOM     19  H12 UNL     1      21.994  27.833 -37.643  1.00  0.00     0.174 HD
ATOM     20  H11 UNL     1      22.416  29.462 -38.095  1.00  0.00     0.174 HD
ENDBRANCH  10  18
BRANCH  13  21
HETATM   21  N6  UNL     1      25.554  28.212 -34.088  1.00  0.00    -0.232 N 
ATOM     22  H62 UNL     1      24.824  28.443 -33.414  1.00  0.00     0.174 HD
ATOM     23  H61 UNL     1      26.484  27.995 -33.731  1.00  0.00     0.174 HD
ENDBRANCH  13  21
ENDBRANCH   5   6
ENDBRANCH   4   5
BRANCH   4  24
HETATM   24  O1  UNL     1      26.377  28.820 -40.967  1.00  0.00    -0.391 OA
ATOM     25  H1  UNL     1      26.474  28.403 -41.816  1.00  0.00     0.210 HD
ENDBRANCH   4  24
ENDBRANCH   3   4
BRANCH   3  26
HETATM   26  O2  UNL     1      29.089  30.029 -41.845  1.00  0.00    -0.383 OA
ATOM     27  H2  UNL     1      29.406  30.078 -42.739  1.00  0.00     0.210 HD
ENDBRANCH   3  26
ENDBRANCH   1   3
BRANCH   1  28
HETATM   28  O4  UNL     1      29.076  26.911 -43.030  1.00  0.00    -0.311 OA
BRANCH  28  29
HETATM   29  C7  UNL     1      28.470  25.870 -43.896  1.00  0.00     0.165 C 
BRANCH  29  30
HETATM   30  C8  UNL     1      28.177  24.768 -42.939  1.00  0.00     0.197 C 
BRANCH  30  31
HETATM   31  O5  UNL     1      27.668  23.594 -43.430  1.00  0.00    -0.398 OA
ATOM     32  H5  UNL     1      27.998  22.775 -43.079  1.00  0.00     0.209 HD
ENDBRANCH  30  31
ENDBRANCH  29  30
BRANCH  29  33
HETATM   33  C9  UNL     1      29.520  25.670 -44.928  1.00  0.00     0.083 C 
HETATM   34  C10 UNL     1      29.976  27.103 -45.289  1.00  0.00     0.186 C 
HETATM   35  O6  UNL     1      30.871  27.135 -46.371  1.00  0.00    -0.350 OA
HETATM   36  C11 UNL     1      30.377  26.606 -47.572  1.00  0.00     0.081 A 
HETATM   37  C12 UNL     1      30.659  27.139 -48.807  1.00  0.00     0.076 A 
HETATM   38  C16 UNL     1      29.588  25.517 -47.438  1.00  0.00     0.015 A 
HETATM   39  C13 UNL     1      30.138  26.568 -49.964  1.00  0.00     0.101 A 
HETATM   40  C14 UNL     1      29.334  25.463 -49.845  1.00  0.00     0.099 A 
HETATM   41  C15 UNL     1      29.068  24.948 -48.571  1.00  0.00     0.052 A 
HETATM   42  C17 UNL     1      29.254  24.852 -46.118  1.00  0.00     0.117 C 
BRANCH  39  43
HETATM   43  O7  UNL     1      30.416  27.098 -51.210  1.00  0.00    -0.358 OA
ATOM     44  H7  UNL     1      29.723  27.426 -51.771  1.00  0.00     0.217 HD
ENDBRANCH  39  43
BRANCH  40  45
HETATM   45  O8  UNL     1      28.785  24.851 -50.946  1.00  0.00    -0.358 OA
ATOM     46  H8  UNL     1      28.724  25.296 -51.784  1.00  0.00     0.217 HD
ENDBRANCH  40  45
BRANCH  42  47
HETATM   47  O9  UNL     1      27.946  24.418 -46.301  1.00  0.00    -0.382 OA
ATOM     48  H9  UNL     1      27.830  23.546 -46.660  1.00  0.00     0.211 HD
ENDBRANCH  42  47
BRANCH  42  49
HETATM   49  C18 UNL     1      30.182  23.608 -46.130  1.00  0.00     0.207 C 
BRANCH  49  50
HETATM   50  O10 UNL     1      29.557  22.465 -45.689  1.00  0.00    -0.398 OA
ATOM     51  H10 UNL     1      30.098  21.945 -45.106  1.00  0.00     0.209 HD
ENDBRANCH  49  50
ENDBRANCH  42  49
ENDBRANCH  29  33
ENDBRANCH  28  29
ENDBRANCH   1  28
TORSDOF 18
ENDMDL
MODEL 5
REMARK VINA RESULT: -6.977830271      5.575     10.479
REMARK  18 active torsions:
REMARK  status: ('A' for Active; 'I' for Inactive)
REMARK    1  A    between atoms: N1_1  and  C1_4 
REMARK    2  A    between atoms: N3_8  and  C3_9 
REMARK    3  A    between atoms: C3_9  and  C4_10 
REMARK    4  A    between atoms: C4_10  and  O1_11 
REMARK    5  A    between atoms: C4_10  and  C5_13 
REMARK    6  A    between atoms: C5_13  and  O2_14 
REMARK    7  A    between atoms: C5_13  and  C6_16 
REMARK    8  A    between atoms: C6_16  and  O4_18 
REMARK    9  A    between atoms: O4_18  and  C7_19 
REMARK   10  A    between atoms: C7_19  and  C8_20 
REMARK   11  A    between atoms: C7_19  and  C9_23 
REMARK   12  A    between atoms: C8_20  and  O5_21 
REMARK   13  A    between atoms: C13_28  and  O7_29 
REMARK   14  A    between atoms: C14_31  and  O8_32 
REMARK   15  A    between atoms: C17_36  and  O9_37 
REMARK   16  A    between atoms: C17_36  and  C18_39 
REMARK   17  A    between atoms: C18_39  and  O10_40 
REMARK   18  A    between atoms: C20_46  and  N6_47 
ROOT
HETATM    1  C6  UNL     1      28.490  27.968 -42.788  1.00  0.00     0.290 C 
HETATM    2  O3  UNL     1      27.389  28.263 -43.283  1.00  0.00    -0.262 OA
ENDROOT
BRANCH   1   3
HETATM    3  C5  UNL     1      29.025  28.552 -41.534  1.00  0.00     0.247 C 
BRANCH   3   4
HETATM    4  C4  UNL     1      28.402  27.990 -40.309  1.00  0.00     0.175 C 
BRANCH   4   5
HETATM    5  C3  UNL     1      27.813  28.964 -39.352  1.00  0.00     0.183 C 
BRANCH   5   6
HETATM    6  N3  UNL     1      26.422  28.905 -39.101  1.00  0.00    -0.173 N 
HETATM    7  C2  UNL     1      25.797  28.728 -37.926  1.00  0.00     0.736 A 
HETATM    8  N2  UNL     1      26.233  28.536 -36.670  1.00  0.00    -0.019 N 
HETATM    9  N5  UNL     1      24.453  28.759 -38.112  1.00  0.00     0.092 N 
HETATM   10  C1  UNL     1      25.405  28.379 -35.621  1.00  0.00     0.705 A 
ATOM     11  H2  UNL     1      27.239  28.507 -36.503  1.00  0.00     0.203 HD
HETATM   12  N7  UNL     1      24.084  28.418 -35.865  1.00  0.00    -0.020 N 
HETATM   13  C20 UNL     1      23.585  28.606 -37.092  1.00  0.00     0.727 A 
ATOM     14  H7  UNL     1      23.437  28.300 -35.084  1.00  0.00     0.203 HD
HETATM   15  N4  UNL     1      24.276  28.954 -39.396  1.00  0.00    -0.260 N 
HETATM   16  C19 UNL     1      25.451  29.047 -40.016  1.00  0.00     0.219 A 
ATOM     17  H4  UNL     1      23.367  29.026 -39.854  1.00  0.00     0.189 HD
BRANCH  10  18
HETATM   18  N1  UNL     1      25.843  28.194 -34.414  1.00  0.00    -0.234 N 
ATOM     19  H12 UNL     1      26.133  27.265 -34.108  1.00  0.00     0.174 HD
ATOM     20  H11 UNL     1      25.914  28.954 -33.738  1.00  0.00     0.174 HD
ENDBRANCH  10  18
BRANCH  13  21
HETATM   21  N6  UNL     1      22.302  28.645 -37.326  1.00  0.00    -0.232 N 
ATOM     22  H62 UNL     1      21.909  29.113 -38.142  1.00  0.00     0.174 HD
ATOM     23  H61 UNL     1      21.657  28.194 -36.676  1.00  0.00     0.174 HD
ENDBRANCH  13  21
ENDBRANCH   5   6
ENDBRANCH   4   5
BRANCH   4  24
HETATM   24  O1  UNL     1      29.379  27.292 -39.528  1.00  0.00    -0.391 OA
ATOM     25  H1  UNL     1      30.109  27.900 -39.483  1.00  0.00     0.210 HD
ENDBRANCH   4  24
ENDBRANCH   3   4
BRANCH   3  26
HETATM   26  O2  UNL     1      28.901  29.928 -41.639  1.00  0.00    -0.383 OA
ATOM     27  H2  UNL     1      28.000  30.227 -41.678  1.00  0.00     0.210 HD
ENDBRANCH   3  26
ENDBRANCH   1   3
BRANCH   1  28
HETATM   28  O4  UNL     1      29.276  27.036 -43.441  1.00  0.00    -0.311 OA
BRANCH  28  29
HETATM   29  C7  UNL     1      28.623  25.997 -44.274  1.00  0.00     0.165 C 
BRANCH  29  30
HETATM   30  C8  UNL     1      28.348  24.908 -43.296  1.00  0.00     0.197 C 
BRANCH  30  31
HETATM   31  O5  UNL     1      27.737  23.767 -43.744  1.00  0.00    -0.398 OA
ATOM     32  H5  UNL     1      26.953  23.850 -44.273  1.00  0.00     0.209 HD
ENDBRANCH  30  31
ENDBRANCH  29  30
BRANCH  29  33
HETATM   33  C9  UNL     1      29.632  25.771 -45.342  1.00  0.00     0.083 C 
HETATM   34  C10 UNL     1      30.087  27.194 -45.742  1.00  0.00     0.186 C 
HETATM   35  O6  UNL     1      30.940  27.201 -46.858  1.00  0.00    -0.350 OA
HETATM   36  C11 UNL     1      30.396  26.658 -48.031  1.00  0.00     0.081 A 
HETATM   37  C12 UNL     1      30.636  27.169 -49.283  1.00  0.00     0.076 A 
HETATM   38  C16 UNL     1      29.603  25.579 -47.849  1.00  0.00     0.015 A 
HETATM   39  C13 UNL     1      30.066  26.586 -50.411  1.00  0.00     0.101 A 
HETATM   40  C14 UNL     1      29.257  25.490 -50.245  1.00  0.00     0.099 A 
HETATM   41  C15 UNL     1      29.035  24.997 -48.953  1.00  0.00     0.052 A 
HETATM   42  C17 UNL     1      29.314  24.937 -46.508  1.00  0.00     0.117 C 
BRANCH  39  43
HETATM   43  O7  UNL     1      30.302  27.094 -51.675  1.00  0.00    -0.358 OA
ATOM     44  H7  UNL     1      30.241  26.542 -52.446  1.00  0.00     0.217 HD
ENDBRANCH  39  43
BRANCH  40  45
HETATM   45  O8  UNL     1      28.662  24.867 -51.314  1.00  0.00    -0.358 OA
ATOM     46  H8  UNL     1      27.737  24.649 -51.311  1.00  0.00     0.217 HD
ENDBRANCH  40  45
BRANCH  42  47
HETATM   47  O9  UNL     1      27.995  24.513 -46.634  1.00  0.00    -0.382 OA
ATOM     48  H9  UNL     1      27.794  23.955 -47.377  1.00  0.00     0.211 HD
ENDBRANCH  42  47
BRANCH  42  49
HETATM   49  C18 UNL     1      30.229  23.685 -46.535  1.00  0.00     0.207 C 
BRANCH  49  50
HETATM   50  O10 UNL     1      29.713  22.624 -45.829  1.00  0.00    -0.398 OA
ATOM     51  H10 UNL     1      30.292  22.314 -45.143  1.00  0.00     0.209 HD
ENDBRANCH  49  50
ENDBRANCH  42  49
ENDBRANCH  29  33
ENDBRANCH  28  29
ENDBRANCH   1  28
TORSDOF 18
ENDMDL
