MODEL 1
REMARK VINA RESULT: -9.111076512      0.000      0.000
REMARK  11 active torsions:
REMARK  status: ('A' for Active; 'I' for Inactive)
REMARK    1  A    between atoms: C4_5  and  N2_6 
REMARK    2  A    between atoms: N2_6  and  C5_8 
REMARK    3  A    between atoms: C5_8  and  C6_13 
REMARK    4  A    between atoms: N3_9  and  O1_11 
REMARK    5  A    between atoms: C6_13  and  O2_14 
REMARK    6  A    between atoms: C6_13  and  N4_16 
REMARK    7  A    between atoms: N4_16  and  N5_18 
REMARK    8  A    between atoms: C7_20  and  C8_21 
REMARK    9  A    between atoms: C10_23  and  N6_24 
REMARK   10  A    between atoms: C12_28  and  N7_29 
REMARK   11  A    between atoms: C15_34  and  N8_35 
ROOT
HETATM    1  C6  UNL     1       4.481  -4.844  52.326  1.00  0.00     0.303 C 
ENDROOT
BRANCH   1   2
HETATM    2  C5  UNL     1       4.931  -3.988  51.190  1.00  0.00     0.152 C 
HETATM    3  N3  UNL     1       6.190  -3.853  50.915  1.00  0.00    -0.253 N 
ATOM      4  H3  UNL     1       6.865  -4.349  51.497  1.00  0.00     0.195 HD
BRANCH   2   5
HETATM    5  N2  UNL     1       4.007  -3.290  50.370  1.00  0.00    -0.341 N 
ATOM      6  H2  UNL     1       3.737  -2.345  50.642  1.00  0.00     0.167 HD
BRANCH   5   7
HETATM    7  C4  UNL     1       3.440  -3.839  49.191  1.00  0.00     0.035 A 
HETATM    8  C3  UNL     1       2.080  -4.129  49.118  1.00  0.00     0.031 A 
HETATM    9  C2  UNL     1       1.556  -4.670  47.942  1.00  0.00     0.031 A 
HETATM   10  C1  UNL     1       2.336  -4.930  46.838  1.00  0.00     0.079 A 
HETATM   11  N1  UNL     1       1.829  -5.480  45.627  1.00  0.00    -0.100 NA
HETATM   12  C15 UNL     1       3.681  -4.631  46.940  1.00  0.00     0.129 A 
HETATM   13  C14 UNL     1       4.229  -4.097  48.089  1.00  0.00     0.067 A 
BRANCH  12  14
HETATM   14  N8  UNL     1       4.537  -4.879  45.831  1.00  0.00    -0.114 N 
HETATM   15  O7  UNL     1       5.191  -5.926  45.729  1.00  0.00    -0.532 OA
HETATM   16  O8  UNL     1       4.666  -3.949  44.822  1.00  0.00    -0.532 OA
ENDBRANCH  12  14
ENDBRANCH   5   7
ENDBRANCH   2   5
BRANCH   3  17
HETATM   17  O1  UNL     1       6.661  -3.093  49.899  1.00  0.00    -0.288 OA
ATOM     18  H1  UNL     1       6.621  -3.349  48.985  1.00  0.00     0.244 HD
ENDBRANCH   3  17
ENDBRANCH   1   2
BRANCH   1  19
HETATM   19  O2  UNL     1       3.411  -5.644  51.940  1.00  0.00    -0.368 OA
ATOM     20  H2  UNL     1       3.355  -6.416  52.491  1.00  0.00     0.212 HD
ENDBRANCH   1  19
BRANCH   1  21
HETATM   21  N4  UNL     1       5.603  -5.679  52.734  1.00  0.00    -0.301 N 
ATOM     22  H4  UNL     1       6.264  -5.997  52.025  1.00  0.00     0.183 HD
BRANCH  21  23
HETATM   23  N5  UNL     1       5.795  -6.043  54.010  1.00  0.00    -0.313 N 
HETATM   24  C7  UNL     1       6.675  -6.600  54.689  1.00  0.00     0.118 C 
ATOM     25  H5  UNL     1       4.992  -5.791  54.587  1.00  0.00     0.185 HD
BRANCH  24  26
HETATM   26  C8  UNL     1       7.953  -7.099  54.233  1.00  0.00    -0.015 A 
HETATM   27  C9  UNL     1       8.121  -8.300  53.617  1.00  0.00     0.049 A 
HETATM   28  C10 UNL     1       9.359  -8.769  53.181  1.00  0.00     0.106 A 
HETATM   29  C11 UNL     1      10.466  -7.980  53.385  1.00  0.00     0.072 A 
HETATM   30  C12 UNL     1      10.340  -6.755  54.006  1.00  0.00     0.106 A 
HETATM   31  C13 UNL     1       9.105  -6.314  54.427  1.00  0.00     0.049 A 
BRANCH  28  32
HETATM   32  N6  UNL     1       9.460 -10.043  52.541  1.00  0.00    -0.116 N 
HETATM   33  O3  UNL     1      10.545 -10.601  52.391  1.00  0.00    -0.532 OA
HETATM   34  O4  UNL     1       8.316 -10.654  52.084  1.00  0.00    -0.532 OA
ENDBRANCH  28  32
BRANCH  30  35
HETATM   35  N7  UNL     1      11.490  -5.945  54.212  1.00  0.00    -0.116 N 
HETATM   36  O5  UNL     1      11.735  -5.457  55.331  1.00  0.00    -0.532 OA
HETATM   37  O6  UNL     1      12.359  -5.678  53.187  1.00  0.00    -0.532 OA
ENDBRANCH  30  35
ENDBRANCH  24  26
ENDBRANCH  21  23
ENDBRANCH   1  21
TORSDOF 11
ENDMDL
MODEL 2
REMARK VINA RESULT: -9.098881173      0.066      2.710
REMARK  11 active torsions:
REMARK  status: ('A' for Active; 'I' for Inactive)
REMARK    1  A    between atoms: C4_5  and  N2_6 
REMARK    2  A    between atoms: N2_6  and  C5_8 
REMARK    3  A    between atoms: C5_8  and  C6_13 
REMARK    4  A    between atoms: N3_9  and  O1_11 
REMARK    5  A    between atoms: C6_13  and  O2_14 
REMARK    6  A    between atoms: C6_13  and  N4_16 
REMARK    7  A    between atoms: N4_16  and  N5_18 
REMARK    8  A    between atoms: C7_20  and  C8_21 
REMARK    9  A    between atoms: C10_23  and  N6_24 
REMARK   10  A    between atoms: C12_28  and  N7_29 
REMARK   11  A    between atoms: C15_34  and  N8_35 
ROOT
HETATM    1  C6  UNL     1       4.442  -4.869  52.328  1.00  0.00     0.303 C 
ENDROOT
BRANCH   1   2
HETATM    2  C5  UNL     1       4.907  -4.010  51.201  1.00  0.00     0.152 C 
HETATM    3  N3  UNL     1       6.170  -3.878  50.941  1.00  0.00    -0.253 N 
ATOM      4  H3  UNL     1       6.837  -4.378  51.529  1.00  0.00     0.195 HD
BRANCH   2   5
HETATM    5  N2  UNL     1       3.996  -3.307  50.373  1.00  0.00    -0.341 N 
ATOM      6  H2  UNL     1       3.730  -2.360  50.642  1.00  0.00     0.167 HD
BRANCH   5   7
HETATM    7  C4  UNL     1       3.434  -3.853  49.189  1.00  0.00     0.035 A 
HETATM    8  C3  UNL     1       2.078  -4.157  49.114  1.00  0.00     0.031 A 
HETATM    9  C2  UNL     1       1.559  -4.695  47.934  1.00  0.00     0.031 A 
HETATM   10  C1  UNL     1       2.342  -4.938  46.828  1.00  0.00     0.079 A 
HETATM   11  N1  UNL     1       1.842  -5.485  45.613  1.00  0.00    -0.100 NA
HETATM   12  C15 UNL     1       3.684  -4.626  46.933  1.00  0.00     0.129 A 
HETATM   13  C14 UNL     1       4.226  -4.095  48.086  1.00  0.00     0.067 A 
BRANCH  12  14
HETATM   14  N8  UNL     1       4.542  -4.857  45.822  1.00  0.00    -0.114 N 
HETATM   15  O7  UNL     1       5.203  -5.898  45.710  1.00  0.00    -0.532 OA
HETATM   16  O8  UNL     1       4.667  -3.915  44.823  1.00  0.00    -0.532 OA
ENDBRANCH  12  14
ENDBRANCH   5   7
ENDBRANCH   2   5
BRANCH   3  17
HETATM   17  O1  UNL     1       6.655  -3.115  49.933  1.00  0.00    -0.288 OA
ATOM     18  H1  UNL     1       7.097  -2.284  50.066  1.00  0.00     0.244 HD
ENDBRANCH   3  17
ENDBRANCH   1   2
BRANCH   1  19
HETATM   19  O2  UNL     1       3.369  -5.659  51.930  1.00  0.00    -0.368 OA
ATOM     20  H2  UNL     1       2.733  -5.738  52.632  1.00  0.00     0.212 HD
ENDBRANCH   1  19
BRANCH   1  21
HETATM   21  N4  UNL     1       5.555  -5.715  52.740  1.00  0.00    -0.301 N 
ATOM     22  H4  UNL     1       6.195  -6.068  52.029  1.00  0.00     0.183 HD
BRANCH  21  23
HETATM   23  N5  UNL     1       5.765  -6.044  54.023  1.00  0.00    -0.313 N 
HETATM   24  C7  UNL     1       6.670  -6.546  54.712  1.00  0.00     0.118 C 
ATOM     25  H5  UNL     1       4.952  -5.818  54.596  1.00  0.00     0.185 HD
BRANCH  24  26
HETATM   26  C8  UNL     1       7.969  -6.995  54.263  1.00  0.00    -0.015 A 
HETATM   27  C9  UNL     1       9.115  -6.282  54.426  1.00  0.00     0.049 A 
HETATM   28  C10 UNL     1      10.362  -6.729  53.989  1.00  0.00     0.106 A 
HETATM   29  C11 UNL     1      10.437  -7.949  53.362  1.00  0.00     0.072 A 
HETATM   30  C12 UNL     1       9.298  -8.705  53.176  1.00  0.00     0.106 A 
HETATM   31  C13 UNL     1       8.079  -8.241  53.617  1.00  0.00     0.049 A 
BRANCH  28  32
HETATM   32  N6  UNL     1      11.526  -5.924  54.195  1.00  0.00    -0.116 N 
HETATM   33  O3  UNL     1      11.784  -5.438  55.294  1.00  0.00    -0.532 OA
HETATM   34  O4  UNL     1      12.372  -5.689  53.136  1.00  0.00    -0.532 OA
ENDBRANCH  28  32
BRANCH  30  35
HETATM   35  N7  UNL     1       9.385  -9.966  52.527  1.00  0.00    -0.116 N 
HETATM   36  O5  UNL     1      10.490 -10.462  52.239  1.00  0.00    -0.532 OA
HETATM   37  O6  UNL     1       8.256 -10.669  52.198  1.00  0.00    -0.532 OA
ENDBRANCH  30  35
ENDBRANCH  24  26
ENDBRANCH  21  23
ENDBRANCH   1  21
TORSDOF 11
ENDMDL
MODEL 3
REMARK VINA RESULT: -8.979976592      2.279      8.851
REMARK  11 active torsions:
REMARK  status: ('A' for Active; 'I' for Inactive)
REMARK    1  A    between atoms: C4_5  and  N2_6 
REMARK    2  A    between atoms: N2_6  and  C5_8 
REMARK    3  A    between atoms: C5_8  and  C6_13 
REMARK    4  A    between atoms: N3_9  and  O1_11 
REMARK    5  A    between atoms: C6_13  and  O2_14 
REMARK    6  A    between atoms: C6_13  and  N4_16 
REMARK    7  A    between atoms: N4_16  and  N5_18 
REMARK    8  A    between atoms: C7_20  and  C8_21 
REMARK    9  A    between atoms: C10_23  and  N6_24 
REMARK   10  A    between atoms: C12_28  and  N7_29 
REMARK   11  A    between atoms: C15_34  and  N8_35 
ROOT
HETATM    1  C6  UNL     1       6.098  -6.094  53.410  1.00  0.00     0.303 C 
ENDROOT
BRANCH   1   2
HETATM    2  C5  UNL     1       7.176  -6.217  54.433  1.00  0.00     0.152 C 
HETATM    3  N3  UNL     1       6.906  -6.140  55.699  1.00  0.00    -0.253 N 
ATOM      4  H3  UNL     1       5.936  -5.991  55.975  1.00  0.00     0.195 HD
BRANCH   2   5
HETATM    5  N2  UNL     1       8.531  -6.423  54.068  1.00  0.00    -0.341 N 
ATOM      6  H2  UNL     1       9.213  -5.708  54.318  1.00  0.00     0.167 HD
BRANCH   5   7
HETATM    7  C4  UNL     1       8.986  -7.574  53.372  1.00  0.00     0.035 A 
HETATM    8  C3  UNL     1       9.084  -7.579  51.984  1.00  0.00     0.031 A 
HETATM    9  C2  UNL     1       9.535  -8.729  51.332  1.00  0.00     0.031 A 
HETATM   10  C1  UNL     1       9.892  -9.871  52.013  1.00  0.00     0.079 A 
HETATM   11  N1  UNL     1      10.355 -11.056  51.376  1.00  0.00    -0.100 NA
HETATM   12  C15 UNL     1       9.785  -9.835  53.390  1.00  0.00     0.129 A 
HETATM   13  C14 UNL     1       9.342  -8.714  54.062  1.00  0.00     0.067 A 
BRANCH  12  14
HETATM   14  N8  UNL     1      10.139 -10.986  54.147  1.00  0.00    -0.114 N 
HETATM   15  O7  UNL     1      11.321 -11.298  54.350  1.00  0.00    -0.532 OA
HETATM   16  O8  UNL     1       9.166 -11.800  54.686  1.00  0.00    -0.532 OA
ENDBRANCH  12  14
ENDBRANCH   5   7
ENDBRANCH   2   5
BRANCH   3  17
HETATM   17  O1  UNL     1       7.839  -6.245  56.674  1.00  0.00    -0.288 OA
ATOM     18  H1  UNL     1       8.463  -6.959  56.734  1.00  0.00     0.244 HD
ENDBRANCH   3  17
ENDBRANCH   1   2
BRANCH   1  19
HETATM   19  O2  UNL     1       4.901  -5.709  54.005  1.00  0.00    -0.368 OA
ATOM     20  H2  UNL     1       4.926  -4.789  54.242  1.00  0.00     0.212 HD
ENDBRANCH   1  19
BRANCH   1  21
HETATM   21  N4  UNL     1       6.512  -5.092  52.436  1.00  0.00    -0.301 N 
ATOM     22  H4  UNL     1       7.282  -5.309  51.803  1.00  0.00     0.183 HD
BRANCH  21  23
HETATM   23  N5  UNL     1       5.915  -3.895  52.345  1.00  0.00    -0.313 N 
HETATM   24  C7  UNL     1       4.983  -3.373  51.711  1.00  0.00     0.118 C 
ATOM     25  H5  UNL     1       6.350  -3.221  52.976  1.00  0.00     0.185 HD
BRANCH  24  26
HETATM   26  C8  UNL     1       4.131  -4.001  50.726  1.00  0.00    -0.015 A 
HETATM   27  C9  UNL     1       4.220  -3.770  49.389  1.00  0.00     0.049 A 
HETATM   28  C10 UNL     1       3.392  -4.384  48.450  1.00  0.00     0.106 A 
HETATM   29  C11 UNL     1       2.437  -5.266  48.897  1.00  0.00     0.072 A 
HETATM   30  C12 UNL     1       2.313  -5.530  50.245  1.00  0.00     0.106 A 
HETATM   31  C13 UNL     1       3.144  -4.910  51.152  1.00  0.00     0.049 A 
BRANCH  28  32
HETATM   32  N6  UNL     1       3.542  -4.091  47.059  1.00  0.00    -0.116 N 
HETATM   33  O3  UNL     1       2.751  -4.523  46.223  1.00  0.00    -0.532 OA
HETATM   34  O4  UNL     1       4.598  -3.310  46.650  1.00  0.00    -0.532 OA
ENDBRANCH  28  32
BRANCH  30  35
HETATM   35  N7  UNL     1       1.324  -6.444  50.699  1.00  0.00    -0.116 N 
HETATM   36  O5  UNL     1       0.377  -6.778  49.963  1.00  0.00    -0.532 OA
HETATM   37  O6  UNL     1       1.384  -6.982  51.957  1.00  0.00    -0.532 OA
ENDBRANCH  30  35
ENDBRANCH  24  26
ENDBRANCH  21  23
ENDBRANCH   1  21
TORSDOF 11
ENDMDL
MODEL 4
REMARK VINA RESULT: -8.913416901      1.994      8.487
REMARK  11 active torsions:
REMARK  status: ('A' for Active; 'I' for Inactive)
REMARK    1  A    between atoms: C4_5  and  N2_6 
REMARK    2  A    between atoms: N2_6  and  C5_8 
REMARK    3  A    between atoms: C5_8  and  C6_13 
REMARK    4  A    between atoms: N3_9  and  O1_11 
REMARK    5  A    between atoms: C6_13  and  O2_14 
REMARK    6  A    between atoms: C6_13  and  N4_16 
REMARK    7  A    between atoms: N4_16  and  N5_18 
REMARK    8  A    between atoms: C7_20  and  C8_21 
REMARK    9  A    between atoms: C10_23  and  N6_24 
REMARK   10  A    between atoms: C12_28  and  N7_29 
REMARK   11  A    between atoms: C15_34  and  N8_35 
ROOT
HETATM    1  C6  UNL     1       5.685  -3.515  51.632  1.00  0.00     0.303 C 
ENDROOT
BRANCH   1   2
HETATM    2  C5  UNL     1       4.863  -4.638  52.168  1.00  0.00     0.152 C 
HETATM    3  N3  UNL     1       3.879  -5.131  51.483  1.00  0.00    -0.253 N 
ATOM      4  H3  UNL     1       3.682  -4.728  50.566  1.00  0.00     0.195 HD
BRANCH   2   5
HETATM    5  N2  UNL     1       5.120  -5.210  53.440  1.00  0.00    -0.341 N 
ATOM      6  H2  UNL     1       4.471  -5.009  54.201  1.00  0.00     0.167 HD
BRANCH   5   7
HETATM    7  C4  UNL     1       6.234  -6.047  53.710  1.00  0.00     0.035 A 
HETATM    8  C3  UNL     1       6.732  -6.183  55.003  1.00  0.00     0.031 A 
HETATM    9  C2  UNL     1       7.831  -7.014  55.231  1.00  0.00     0.031 A 
HETATM   10  C1  UNL     1       8.448  -7.715  54.220  1.00  0.00     0.079 A 
HETATM   11  N1  UNL     1       9.568  -8.569  54.423  1.00  0.00    -0.100 NA
HETATM   12  C15 UNL     1       7.932  -7.560  52.948  1.00  0.00     0.129 A 
HETATM   13  C14 UNL     1       6.847  -6.745  52.691  1.00  0.00     0.067 A 
BRANCH  12  14
HETATM   14  N8  UNL     1       8.529  -8.259  51.863  1.00  0.00    -0.114 N 
HETATM   15  O7  UNL     1       9.600  -7.895  51.359  1.00  0.00    -0.532 OA
HETATM   16  O8  UNL     1       7.926  -9.379  51.331  1.00  0.00    -0.532 OA
ENDBRANCH  12  14
ENDBRANCH   5   7
ENDBRANCH   2   5
BRANCH   3  17
HETATM   17  O1  UNL     1       3.097  -6.148  51.914  1.00  0.00    -0.288 OA
ATOM     18  H1  UNL     1       2.411  -6.545  51.390  1.00  0.00     0.244 HD
ENDBRANCH   3  17
ENDBRANCH   1   2
BRANCH   1  19
HETATM   19  O2  UNL     1       6.445  -2.940  52.643  1.00  0.00    -0.368 OA
ATOM     20  H2  UNL     1       7.031  -2.281  52.288  1.00  0.00     0.212 HD
ENDBRANCH   1  19
BRANCH   1  21
HETATM   21  N4  UNL     1       6.560  -4.051  50.597  1.00  0.00    -0.301 N 
ATOM     22  H4  UNL     1       6.963  -4.980  50.725  1.00  0.00     0.183 HD
BRANCH  21  23
HETATM   23  N5  UNL     1       6.853  -3.365  49.483  1.00  0.00    -0.313 N 
HETATM   24  C7  UNL     1       6.381  -3.207  48.344  1.00  0.00     0.118 C 
ATOM     25  H5  UNL     1       7.704  -2.817  49.605  1.00  0.00     0.185 HD
BRANCH  24  26
HETATM   26  C8  UNL     1       5.189  -3.813  47.795  1.00  0.00    -0.015 A 
HETATM   27  C9  UNL     1       4.033  -3.977  48.492  1.00  0.00     0.049 A 
HETATM   28  C10 UNL     1       2.890  -4.563  47.950  1.00  0.00     0.106 A 
HETATM   29  C11 UNL     1       2.932  -4.997  46.647  1.00  0.00     0.072 A 
HETATM   30  C12 UNL     1       4.084  -4.848  45.903  1.00  0.00     0.106 A 
HETATM   31  C13 UNL     1       5.200  -4.266  46.462  1.00  0.00     0.049 A 
BRANCH  28  32
HETATM   32  N6  UNL     1       1.709  -4.704  48.744  1.00  0.00    -0.116 N 
HETATM   33  O3  UNL     1       0.938  -3.763  48.920  1.00  0.00    -0.532 OA
HETATM   34  O4  UNL     1       1.434  -5.921  49.322  1.00  0.00    -0.532 OA
ENDBRANCH  28  32
BRANCH  30  35
HETATM   35  N7  UNL     1       4.119  -5.299  44.556  1.00  0.00    -0.116 N 
HETATM   36  O5  UNL     1       5.197  -5.378  43.937  1.00  0.00    -0.532 OA
HETATM   37  O6  UNL     1       2.971  -5.657  43.901  1.00  0.00    -0.532 OA
ENDBRANCH  30  35
ENDBRANCH  24  26
ENDBRANCH  21  23
ENDBRANCH   1  21
TORSDOF 11
ENDMDL
MODEL 5
REMARK VINA RESULT: -8.910298940      1.993      8.381
REMARK  11 active torsions:
REMARK  status: ('A' for Active; 'I' for Inactive)
REMARK    1  A    between atoms: C4_5  and  N2_6 
REMARK    2  A    between atoms: N2_6  and  C5_8 
REMARK    3  A    between atoms: C5_8  and  C6_13 
REMARK    4  A    between atoms: N3_9  and  O1_11 
REMARK    5  A    between atoms: C6_13  and  O2_14 
REMARK    6  A    between atoms: C6_13  and  N4_16 
REMARK    7  A    between atoms: N4_16  and  N5_18 
REMARK    8  A    between atoms: C7_20  and  C8_21 
REMARK    9  A    between atoms: C10_23  and  N6_24 
REMARK   10  A    between atoms: C12_28  and  N7_29 
REMARK   11  A    between atoms: C15_34  and  N8_35 
ROOT
HETATM    1  C6  UNL     1       5.606  -3.546  51.685  1.00  0.00     0.303 C 
ENDROOT
BRANCH   1   2
HETATM    2  C5  UNL     1       4.789  -4.671  52.224  1.00  0.00     0.152 C 
HETATM    3  N3  UNL     1       3.773  -5.133  51.564  1.00  0.00    -0.253 N 
ATOM      4  H3  UNL     1       3.547  -4.704  50.667  1.00  0.00     0.195 HD
BRANCH   2   5
HETATM    5  N2  UNL     1       5.086  -5.279  53.470  1.00  0.00    -0.341 N 
ATOM      6  H2  UNL     1       4.431  -5.147  54.241  1.00  0.00     0.167 HD
BRANCH   5   7
HETATM    7  C4  UNL     1       6.248  -6.061  53.701  1.00  0.00     0.035 A 
HETATM    8  C3  UNL     1       6.850  -6.097  54.955  1.00  0.00     0.031 A 
HETATM    9  C2  UNL     1       7.993  -6.877  55.146  1.00  0.00     0.031 A 
HETATM   10  C1  UNL     1       8.554  -7.622  54.134  1.00  0.00     0.079 A 
HETATM   11  N1  UNL     1       9.717  -8.426  54.299  1.00  0.00    -0.100 NA
HETATM   12  C15 UNL     1       7.934  -7.567  52.901  1.00  0.00     0.129 A 
HETATM   13  C14 UNL     1       6.804  -6.805  52.681  1.00  0.00     0.067 A 
BRANCH  12  14
HETATM   14  N8  UNL     1       8.470  -8.316  51.817  1.00  0.00    -0.114 N 
HETATM   15  O7  UNL     1       7.898  -9.318  51.367  1.00  0.00    -0.532 OA
HETATM   16  O8  UNL     1       9.658  -7.944  51.225  1.00  0.00    -0.532 OA
ENDBRANCH  12  14
ENDBRANCH   5   7
ENDBRANCH   2   5
BRANCH   3  17
HETATM   17  O1  UNL     1       2.994  -6.151  51.999  1.00  0.00    -0.288 OA
ATOM     18  H1  UNL     1       2.095  -6.283  51.722  1.00  0.00     0.244 HD
ENDBRANCH   3  17
ENDBRANCH   1   2
BRANCH   1  19
HETATM   19  O2  UNL     1       6.375  -2.974  52.693  1.00  0.00    -0.368 OA
ATOM     20  H2  UNL     1       7.026  -2.387  52.325  1.00  0.00     0.212 HD
ENDBRANCH   1  19
BRANCH   1  21
HETATM   21  N4  UNL     1       6.472  -4.077  50.640  1.00  0.00    -0.301 N 
ATOM     22  H4  UNL     1       6.840  -5.022  50.739  1.00  0.00     0.183 HD
BRANCH  21  23
HETATM   23  N5  UNL     1       6.800  -3.363  49.554  1.00  0.00    -0.313 N 
HETATM   24  C7  UNL     1       6.380  -3.197  48.395  1.00  0.00     0.118 C 
ATOM     25  H5  UNL     1       7.629  -2.795  49.726  1.00  0.00     0.185 HD
BRANCH  24  26
HETATM   26  C8  UNL     1       5.232  -3.824  47.779  1.00  0.00    -0.015 A 
HETATM   27  C9  UNL     1       5.210  -4.267  46.494  1.00  0.00     0.049 A 
HETATM   28  C10 UNL     1       4.096  -4.871  45.912  1.00  0.00     0.106 A 
HETATM   29  C11 UNL     1       2.963  -5.026  46.674  1.00  0.00     0.072 A 
HETATM   30  C12 UNL     1       2.943  -4.591  47.983  1.00  0.00     0.106 A 
HETATM   31  C13 UNL     1       4.057  -3.998  48.534  1.00  0.00     0.049 A 
BRANCH  28  32
HETATM   32  N6  UNL     1       4.145  -5.312  44.553  1.00  0.00    -0.116 N 
HETATM   33  O3  UNL     1       3.127  -5.402  43.871  1.00  0.00    -0.532 OA
HETATM   34  O4  UNL     1       5.360  -5.642  44.001  1.00  0.00    -0.532 OA
ENDBRANCH  28  32
BRANCH  30  35
HETATM   35  N7  UNL     1       1.767  -4.756  48.765  1.00  0.00    -0.116 N 
HETATM   36  O5  UNL     1       0.986  -3.805  48.952  1.00  0.00    -0.532 OA
HETATM   37  O6  UNL     1       1.462  -5.963  49.336  1.00  0.00    -0.532 OA
ENDBRANCH  30  35
ENDBRANCH  24  26
ENDBRANCH  21  23
ENDBRANCH   1  21
TORSDOF 11
ENDMDL
