MODEL 1
REMARK VINA RESULT: -7.094393337      0.000      0.000
REMARK  10 active torsions:
REMARK  status: ('A' for Active; 'I' for Inactive)
REMARK       I    between atoms: N1_2  and  C2_4 
REMARK    1  A    between atoms: C2_4  and  C3_6 
REMARK    2  A    between atoms: C5_8  and  C6_9 
REMARK    3  A    between atoms: C6_9  and  N2_10 
REMARK    4  A    between atoms: C7_13  and  N3_14 
REMARK    5  A    between atoms: C8_19  and  N5_20 
REMARK    6  A    between atoms: N5_20  and  N6_22 
REMARK    7  A    between atoms: N6_22  and  C9_24 
REMARK    8  A    between atoms: C10_25  and  N7_26 
REMARK    9  A    between atoms: C12_30  and  N8_31 
REMARK   10  A    between atoms: C14_35  and  N9_36 
ROOT
HETATM    1  N2  UNL     1      13.879  -3.373  54.336  1.00  0.00    -0.296 NA
HETATM    2  O2  UNL     1      15.142  -3.359  54.317  1.00  0.00    -0.219 OA
ATOM      3  H2  UNL     1      16.079  -3.201  54.345  1.00  0.00     0.261 HD
ENDROOT
BRANCH   1   4
HETATM    4  C6  UNL     1      12.720  -3.568  54.301  1.00  0.00     0.233 C 
BRANCH   4   5
HETATM    5  C5  UNL     1      12.065  -4.879  54.098  1.00  0.00     0.040 A 
HETATM    6  C4  UNL     1      10.940  -5.216  54.856  1.00  0.00     0.038 A 
HETATM    7  C3  UNL     1      10.297  -6.449  54.685  1.00  0.00     0.078 A 
HETATM    8  C8  UNL     1      10.779  -7.334  53.763  1.00  0.00     0.137 A 
HETATM    9  N4  UNL     1      11.856  -6.993  53.047  1.00  0.00    -0.326 N 
HETATM   10  C7  UNL     1      12.506  -5.799  53.189  1.00  0.00     0.113 A 
ATOM     11  H4  UNL     1      12.211  -7.657  52.360  1.00  0.00     0.169 HD
BRANCH   7  12
HETATM   12  C2  UNL     1       9.116  -6.710  55.498  1.00  0.00     0.255 C 
HETATM   13  N1  UNL     1       8.322  -5.694  56.081  1.00  0.00    -0.361 N 
HETATM   14  C1  UNL     1       7.160  -6.082  56.878  1.00  0.00     0.149 C 
ATOM     15  H1  UNL     1       8.555  -4.710  55.948  1.00  0.00     0.162 HD
HETATM   16  O1  UNL     1       8.804  -7.922  55.679  1.00  0.00    -0.268 OA
ENDBRANCH   7  12
BRANCH   8  17
HETATM   17  N5  UNL     1      10.183  -8.580  53.538  1.00  0.00    -0.284 N 
ATOM     18  H5  UNL     1       9.230  -8.546  53.174  1.00  0.00     0.188 HD
BRANCH  17  19
HETATM   19  N6  UNL     1      10.695  -9.853  53.736  1.00  0.00    -0.294 N 
ATOM     20  H6  UNL     1      11.680 -10.064  53.579  1.00  0.00     0.187 HD
BRANCH  19  21
HETATM   21  C9  UNL     1       9.766 -10.863  54.174  1.00  0.00     0.114 A 
HETATM   22  C10 UNL     1      10.161 -11.821  55.099  1.00  0.00     0.135 A 
HETATM   23  C11 UNL     1       9.213 -12.745  55.566  1.00  0.00     0.074 A 
HETATM   24  C12 UNL     1       7.922 -12.713  55.120  1.00  0.00     0.107 A 
HETATM   25  C13 UNL     1       7.551 -11.763  54.203  1.00  0.00     0.074 A 
HETATM   26  C14 UNL     1       8.476 -10.819  53.712  1.00  0.00     0.135 A 
BRANCH  22  27
HETATM   27  N7  UNL     1      11.495 -11.913  55.558  1.00  0.00    -0.113 N 
HETATM   28  O3  UNL     1      11.776 -11.739  56.742  1.00  0.00    -0.532 OA
HETATM   29  O4  UNL     1      12.503 -12.147  54.664  1.00  0.00    -0.532 OA
ENDBRANCH  22  27
BRANCH  24  30
HETATM   30  N8  UNL     1       6.951 -13.654  55.599  1.00  0.00    -0.116 N 
HETATM   31  O5  UNL     1       7.143 -14.188  56.710  1.00  0.00    -0.532 OA
HETATM   32  O6  UNL     1       5.843 -13.958  54.856  1.00  0.00    -0.532 OA
ENDBRANCH  24  30
BRANCH  26  33
HETATM   33  N9  UNL     1       8.060  -9.915  52.723  1.00  0.00    -0.113 N 
HETATM   34  O7  UNL     1       8.172 -10.359  51.516  1.00  0.00    -0.532 OA
HETATM   35  O8  UNL     1       7.573  -8.670  52.835  1.00  0.00    -0.532 OA
ENDBRANCH  26  33
ENDBRANCH  19  21
ENDBRANCH  17  19
ENDBRANCH   8  17
BRANCH  10  36
HETATM   36  N3  UNL     1      13.539  -5.543  52.464  1.00  0.00    -0.385 N 
ATOM     37  H32 UNL     1      14.098  -4.710  52.654  1.00  0.00     0.157 HD
ATOM     38  H31 UNL     1      13.794  -6.170  51.702  1.00  0.00     0.157 HD
ENDBRANCH  10  36
ENDBRANCH   4   5
ENDBRANCH   1   4
TORSDOF 10
ENDMDL
MODEL 2
REMARK VINA RESULT: -7.070906338      5.922      8.553
REMARK  10 active torsions:
REMARK  status: ('A' for Active; 'I' for Inactive)
REMARK       I    between atoms: N1_2  and  C2_4 
REMARK    1  A    between atoms: C2_4  and  C3_6 
REMARK    2  A    between atoms: C5_8  and  C6_9 
REMARK    3  A    between atoms: C6_9  and  N2_10 
REMARK    4  A    between atoms: C7_13  and  N3_14 
REMARK    5  A    between atoms: C8_19  and  N5_20 
REMARK    6  A    between atoms: N5_20  and  N6_22 
REMARK    7  A    between atoms: N6_22  and  C9_24 
REMARK    8  A    between atoms: C10_25  and  N7_26 
REMARK    9  A    between atoms: C12_30  and  N8_31 
REMARK   10  A    between atoms: C14_35  and  N9_36 
ROOT
HETATM    1  N2  UNL     1      10.068  -9.896  53.262  1.00  0.00    -0.296 NA
HETATM    2  O2  UNL     1      10.700 -10.448  52.317  1.00  0.00    -0.219 OA
ATOM      3  H2  UNL     1      11.202 -10.977  51.708  1.00  0.00     0.261 HD
ENDROOT
BRANCH   1   4
HETATM    4  C6  UNL     1       9.446  -9.242  54.016  1.00  0.00     0.233 C 
BRANCH   4   5
HETATM    5  C5  UNL     1       8.434  -8.225  53.656  1.00  0.00     0.040 A 
HETATM    6  C4  UNL     1       7.737  -7.554  54.664  1.00  0.00     0.038 A 
HETATM    7  C3  UNL     1       6.775  -6.584  54.355  1.00  0.00     0.078 A 
HETATM    8  C8  UNL     1       6.514  -6.293  53.046  1.00  0.00     0.137 A 
HETATM    9  N4  UNL     1       7.191  -6.946  52.096  1.00  0.00    -0.326 N 
HETATM   10  C7  UNL     1       8.137  -7.896  52.364  1.00  0.00     0.113 A 
ATOM     11  H4  UNL     1       6.993  -6.724  51.121  1.00  0.00     0.169 HD
BRANCH   7  12
HETATM   12  C2  UNL     1       6.113  -5.915  55.467  1.00  0.00     0.255 C 
HETATM   13  N1  UNL     1       6.539  -6.017  56.813  1.00  0.00    -0.361 N 
HETATM   14  C1  UNL     1       5.790  -5.297  57.842  1.00  0.00     0.149 C 
ATOM     15  H1  UNL     1       7.351  -6.581  57.060  1.00  0.00     0.162 HD
HETATM   16  O1  UNL     1       5.101  -5.208  55.188  1.00  0.00    -0.268 OA
ENDBRANCH   7  12
BRANCH   8  17
HETATM   17  N5  UNL     1       5.569  -5.333  52.667  1.00  0.00    -0.284 N 
ATOM     18  H5  UNL     1       5.927  -4.383  52.575  1.00  0.00     0.188 HD
BRANCH  17  19
HETATM   19  N6  UNL     1       4.217  -5.483  52.397  1.00  0.00    -0.294 N 
ATOM     20  H6  UNL     1       3.580  -5.903  53.074  1.00  0.00     0.187 HD
BRANCH  19  21
HETATM   21  C9  UNL     1       3.757  -5.014  51.116  1.00  0.00     0.114 A 
HETATM   22  C10 UNL     1       4.521  -4.113  50.385  1.00  0.00     0.135 A 
HETATM   23  C11 UNL     1       4.085  -3.735  49.106  1.00  0.00     0.074 A 
HETATM   24  C12 UNL     1       2.926  -4.235  48.582  1.00  0.00     0.107 A 
HETATM   25  C13 UNL     1       2.182  -5.119  49.319  1.00  0.00     0.074 A 
HETATM   26  C14 UNL     1       2.589  -5.522  50.607  1.00  0.00     0.135 A 
BRANCH  22  27
HETATM   27  N7  UNL     1       5.706  -3.544  50.904  1.00  0.00    -0.113 N 
HETATM   28  O3  UNL     1       5.690  -2.850  51.919  1.00  0.00    -0.532 OA
HETATM   29  O4  UNL     1       6.889  -3.720  50.240  1.00  0.00    -0.532 OA
ENDBRANCH  22  27
BRANCH  24  30
HETATM   30  N8  UNL     1       2.482  -3.850  47.272  1.00  0.00    -0.116 N 
HETATM   31  O5  UNL     1       1.261  -3.895  47.025  1.00  0.00    -0.532 OA
HETATM   32  O6  UNL     1       3.377  -3.444  46.320  1.00  0.00    -0.532 OA
ENDBRANCH  24  30
BRANCH  26  33
HETATM   33  N9  UNL     1       1.753  -6.374  51.345  1.00  0.00    -0.113 N 
HETATM   34  O7  UNL     1       0.681  -6.735  50.724  1.00  0.00    -0.532 OA
HETATM   35  O8  UNL     1       1.891  -6.862  52.587  1.00  0.00    -0.532 OA
ENDBRANCH  26  33
ENDBRANCH  19  21
ENDBRANCH  17  19
ENDBRANCH   8  17
BRANCH  10  36
HETATM   36  N3  UNL     1       8.747  -8.483  51.394  1.00  0.00    -0.385 N 
ATOM     37  H32 UNL     1       8.328  -9.304  50.955  1.00  0.00     0.157 HD
ATOM     38  H31 UNL     1       9.645  -8.127  51.068  1.00  0.00     0.157 HD
ENDBRANCH  10  36
ENDBRANCH   4   5
ENDBRANCH   1   4
TORSDOF 10
ENDMDL
MODEL 3
REMARK VINA RESULT: -6.873423549      0.214      2.715
REMARK  10 active torsions:
REMARK  status: ('A' for Active; 'I' for Inactive)
REMARK       I    between atoms: N1_2  and  C2_4 
REMARK    1  A    between atoms: C2_4  and  C3_6 
REMARK    2  A    between atoms: C5_8  and  C6_9 
REMARK    3  A    between atoms: C6_9  and  N2_10 
REMARK    4  A    between atoms: C7_13  and  N3_14 
REMARK    5  A    between atoms: C8_19  and  N5_20 
REMARK    6  A    between atoms: N5_20  and  N6_22 
REMARK    7  A    between atoms: N6_22  and  C9_24 
REMARK    8  A    between atoms: C10_25  and  N7_26 
REMARK    9  A    between atoms: C12_30  and  N8_31 
REMARK   10  A    between atoms: C14_35  and  N9_36 
ROOT
HETATM    1  N2  UNL     1      13.983  -3.427  54.294  1.00  0.00    -0.296 NA
HETATM    2  O2  UNL     1      15.242  -3.387  54.391  1.00  0.00    -0.219 OA
ATOM      3  H2  UNL     1      16.179  -3.236  54.370  1.00  0.00     0.261 HD
ENDROOT
BRANCH   1   4
HETATM    4  C6  UNL     1      12.822  -3.613  54.320  1.00  0.00     0.233 C 
BRANCH   4   5
HETATM    5  C5  UNL     1      12.144  -4.909  54.097  1.00  0.00     0.040 A 
HETATM    6  C4  UNL     1      11.036  -5.255  54.876  1.00  0.00     0.038 A 
HETATM    7  C3  UNL     1      10.372  -6.474  54.687  1.00  0.00     0.078 A 
HETATM    8  C8  UNL     1      10.818  -7.337  53.727  1.00  0.00     0.137 A 
HETATM    9  N4  UNL     1      11.880  -6.989  52.992  1.00  0.00    -0.326 N 
HETATM   10  C7  UNL     1      12.549  -5.808  53.151  1.00  0.00     0.113 A 
ATOM     11  H4  UNL     1      12.207  -7.638  52.277  1.00  0.00     0.169 HD
BRANCH   7  12
HETATM   12  C2  UNL     1       9.211  -6.744  55.524  1.00  0.00     0.255 C 
HETATM   13  N1  UNL     1       8.272  -5.757  55.909  1.00  0.00    -0.361 N 
HETATM   14  C1  UNL     1       7.146  -6.152  56.753  1.00  0.00     0.149 C 
ATOM     15  H1  UNL     1       8.378  -4.790  55.604  1.00  0.00     0.162 HD
HETATM   16  O1  UNL     1       9.055  -7.936  55.917  1.00  0.00    -0.268 OA
ENDBRANCH   7  12
BRANCH   8  17
HETATM   17  N5  UNL     1      10.199  -8.569  53.483  1.00  0.00    -0.284 N 
ATOM     18  H5  UNL     1       9.276  -8.514  53.053  1.00  0.00     0.188 HD
BRANCH  17  19
HETATM   19  N6  UNL     1      10.656  -9.853  53.738  1.00  0.00    -0.294 N 
ATOM     20  H6  UNL     1      11.628 -10.117  53.578  1.00  0.00     0.187 HD
BRANCH  19  21
HETATM   21  C9  UNL     1       9.690 -10.795  54.242  1.00  0.00     0.114 A 
HETATM   22  C10 UNL     1       8.373 -10.748  53.804  1.00  0.00     0.135 A 
HETATM   23  C11 UNL     1       7.473 -11.727  54.252  1.00  0.00     0.074 A 
HETATM   24  C12 UNL     1       7.875 -12.712  55.110  1.00  0.00     0.107 A 
HETATM   25  C13 UNL     1       9.179 -12.740  55.536  1.00  0.00     0.074 A 
HETATM   26  C14 UNL     1      10.110 -11.773  55.106  1.00  0.00     0.135 A 
BRANCH  22  27
HETATM   27  N7  UNL     1       7.906  -9.725  52.947  1.00  0.00    -0.113 N 
HETATM   28  O3  UNL     1       8.012  -9.817  51.725  1.00  0.00    -0.532 OA
HETATM   29  O4  UNL     1       7.372  -8.585  53.482  1.00  0.00    -0.532 OA
ENDBRANCH  22  27
BRANCH  24  30
HETATM   30  N8  UNL     1       6.956 -13.715  55.566  1.00  0.00    -0.116 N 
HETATM   31  O5  UNL     1       7.152 -14.232  56.683  1.00  0.00    -0.532 OA
HETATM   32  O6  UNL     1       5.891 -14.092  54.794  1.00  0.00    -0.532 OA
ENDBRANCH  24  30
BRANCH  26  33
HETATM   33  N9  UNL     1      11.412 -11.809  55.628  1.00  0.00    -0.113 N 
HETATM   34  O7  UNL     1      12.335 -11.983  54.743  1.00  0.00    -0.532 OA
HETATM   35  O8  UNL     1      11.842 -11.698  56.894  1.00  0.00    -0.532 OA
ENDBRANCH  26  33
ENDBRANCH  19  21
ENDBRANCH  17  19
ENDBRANCH   8  17
BRANCH  10  36
HETATM   36  N3  UNL     1      13.565  -5.544  52.405  1.00  0.00    -0.385 N 
ATOM     37  H32 UNL     1      14.321  -4.961  52.767  1.00  0.00     0.157 HD
ATOM     38  H31 UNL     1      13.611  -5.916  51.457  1.00  0.00     0.157 HD
ENDBRANCH  10  36
ENDBRANCH   4   5
ENDBRANCH   1   4
TORSDOF 10
ENDMDL
MODEL 4
REMARK VINA RESULT: -6.658583012      3.204      5.602
REMARK  10 active torsions:
REMARK  status: ('A' for Active; 'I' for Inactive)
REMARK       I    between atoms: N1_2  and  C2_4 
REMARK    1  A    between atoms: C2_4  and  C3_6 
REMARK    2  A    between atoms: C5_8  and  C6_9 
REMARK    3  A    between atoms: C6_9  and  N2_10 
REMARK    4  A    between atoms: C7_13  and  N3_14 
REMARK    5  A    between atoms: C8_19  and  N5_20 
REMARK    6  A    between atoms: N5_20  and  N6_22 
REMARK    7  A    between atoms: N6_22  and  C9_24 
REMARK    8  A    between atoms: C10_25  and  N7_26 
REMARK    9  A    between atoms: C12_30  and  N8_31 
REMARK   10  A    between atoms: C14_35  and  N9_36 
ROOT
HETATM    1  N2  UNL     1      13.173  -3.176  53.672  1.00  0.00    -0.296 NA
HETATM    2  O2  UNL     1      13.017  -2.000  54.106  1.00  0.00    -0.219 OA
ATOM      3  H2  UNL     1      12.969  -1.071  54.302  1.00  0.00     0.261 HD
ENDROOT
BRANCH   1   4
HETATM    4  C6  UNL     1      13.232  -4.325  53.430  1.00  0.00     0.233 C 
BRANCH   4   5
HETATM    5  C5  UNL     1      12.233  -5.347  53.812  1.00  0.00     0.040 A 
HETATM    6  C4  UNL     1      11.962  -6.410  52.946  1.00  0.00     0.038 A 
HETATM    7  C3  UNL     1      11.024  -7.394  53.281  1.00  0.00     0.078 A 
HETATM    8  C8  UNL     1      10.363  -7.311  54.474  1.00  0.00     0.137 A 
HETATM    9  N4  UNL     1      10.636  -6.287  55.289  1.00  0.00    -0.326 N 
HETATM   10  C7  UNL     1      11.546  -5.312  54.993  1.00  0.00     0.113 A 
ATOM     11  H4  UNL     1      10.140  -6.231  56.179  1.00  0.00     0.169 HD
BRANCH   7  12
HETATM   12  C2  UNL     1      10.820  -8.481  52.332  1.00  0.00     0.255 C 
HETATM   13  N1  UNL     1      10.377  -8.291  51.001  1.00  0.00    -0.361 N 
HETATM   14  C1  UNL     1      10.209  -9.462  50.143  1.00  0.00     0.149 C 
ATOM     15  H1  UNL     1      10.178  -7.355  50.648  1.00  0.00     0.162 HD
HETATM   16  O1  UNL     1      11.059  -9.652  52.745  1.00  0.00    -0.268 OA
ENDBRANCH   7  12
BRANCH   8  17
HETATM   17  N5  UNL     1       9.417  -8.262  54.873  1.00  0.00    -0.284 N 
ATOM     18  H5  UNL     1       9.688  -9.234  54.723  1.00  0.00     0.188 HD
BRANCH  17  19
HETATM   19  N6  UNL     1       8.166  -8.079  55.442  1.00  0.00    -0.294 N 
ATOM     20  H6  UNL     1       7.914  -8.512  56.330  1.00  0.00     0.187 HD
BRANCH  19  21
HETATM   21  C9  UNL     1       7.240  -7.246  54.717  1.00  0.00     0.114 A 
HETATM   22  C10 UNL     1       6.650  -6.154  55.338  1.00  0.00     0.135 A 
HETATM   23  C11 UNL     1       5.813  -5.316  54.584  1.00  0.00     0.074 A 
HETATM   24  C12 UNL     1       5.573  -5.566  53.263  1.00  0.00     0.107 A 
HETATM   25  C13 UNL     1       6.160  -6.654  52.667  1.00  0.00     0.074 A 
HETATM   26  C14 UNL     1       7.007  -7.516  53.393  1.00  0.00     0.135 A 
BRANCH  22  27
HETATM   27  N7  UNL     1       6.841  -5.879  56.711  1.00  0.00    -0.113 N 
HETATM   28  O3  UNL     1       7.968  -5.816  57.199  1.00  0.00    -0.532 OA
HETATM   29  O4  UNL     1       5.755  -5.733  57.529  1.00  0.00    -0.532 OA
ENDBRANCH  22  27
BRANCH  24  30
HETATM   30  N8  UNL     1       4.720  -4.708  52.491  1.00  0.00    -0.116 N 
HETATM   31  O5  UNL     1       3.675  -5.190  52.010  1.00  0.00    -0.532 OA
HETATM   32  O6  UNL     1       5.046  -3.394  52.289  1.00  0.00    -0.532 OA
ENDBRANCH  24  30
BRANCH  26  33
HETATM   33  N9  UNL     1       7.525  -8.652  52.753  1.00  0.00    -0.113 N 
HETATM   34  O7  UNL     1       7.615  -8.543  51.470  1.00  0.00    -0.532 OA
HETATM   35  O8  UNL     1       7.932  -9.825  53.260  1.00  0.00    -0.532 OA
ENDBRANCH  26  33
ENDBRANCH  19  21
ENDBRANCH  17  19
ENDBRANCH   8  17
BRANCH  10  36
HETATM   36  N3  UNL     1      11.754  -4.355  55.829  1.00  0.00    -0.385 N 
ATOM     37  H32 UNL     1      10.962  -3.875  56.257  1.00  0.00     0.157 HD
ATOM     38  H31 UNL     1      12.709  -4.080  56.061  1.00  0.00     0.157 HD
ENDBRANCH  10  36
ENDBRANCH   4   5
ENDBRANCH   1   4
TORSDOF 10
ENDMDL
MODEL 5
REMARK VINA RESULT: -6.637258886      5.903      8.700
REMARK  10 active torsions:
REMARK  status: ('A' for Active; 'I' for Inactive)
REMARK       I    between atoms: N1_2  and  C2_4 
REMARK    1  A    between atoms: C2_4  and  C3_6 
REMARK    2  A    between atoms: C5_8  and  C6_9 
REMARK    3  A    between atoms: C6_9  and  N2_10 
REMARK    4  A    between atoms: C7_13  and  N3_14 
REMARK    5  A    between atoms: C8_19  and  N5_20 
REMARK    6  A    between atoms: N5_20  and  N6_22 
REMARK    7  A    between atoms: N6_22  and  C9_24 
REMARK    8  A    between atoms: C10_25  and  N7_26 
REMARK    9  A    between atoms: C12_30  and  N8_31 
REMARK   10  A    between atoms: C14_35  and  N9_36 
ROOT
HETATM    1  N2  UNL     1       9.916  -9.931  53.348  1.00  0.00    -0.296 NA
HETATM    2  O2  UNL     1      10.712 -10.421  52.499  1.00  0.00    -0.219 OA
ATOM      3  H2  UNL     1      11.420 -10.768  51.968  1.00  0.00     0.261 HD
ENDROOT
BRANCH   1   4
HETATM    4  C6  UNL     1       9.040  -9.501  54.005  1.00  0.00     0.233 C 
BRANCH   4   5
HETATM    5  C5  UNL     1       8.165  -8.362  53.652  1.00  0.00     0.040 A 
HETATM    6  C4  UNL     1       7.503  -7.658  54.661  1.00  0.00     0.038 A 
HETATM    7  C3  UNL     1       6.669  -6.574  54.358  1.00  0.00     0.078 A 
HETATM    8  C8  UNL     1       6.501  -6.202  53.055  1.00  0.00     0.137 A 
HETATM    9  N4  UNL     1       7.143  -6.889  52.103  1.00  0.00    -0.326 N 
HETATM   10  C7  UNL     1       7.963  -7.949  52.365  1.00  0.00     0.113 A 
ATOM     11  H4  UNL     1       7.013  -6.606  51.132  1.00  0.00     0.169 HD
BRANCH   7  12
HETATM   12  C2  UNL     1       6.037  -5.879  55.472  1.00  0.00     0.255 C 
HETATM   13  N1  UNL     1       6.457  -6.005  56.818  1.00  0.00    -0.361 N 
HETATM   14  C1  UNL     1       5.741  -5.256  57.849  1.00  0.00     0.149 C 
ATOM     15  H1  UNL     1       7.243  -6.605  57.064  1.00  0.00     0.162 HD
HETATM   16  O1  UNL     1       5.058  -5.127  55.195  1.00  0.00    -0.268 OA
ENDBRANCH   7  12
BRANCH   8  17
HETATM   17  N5  UNL     1       5.686  -5.127  52.682  1.00  0.00    -0.284 N 
ATOM     18  H5  UNL     1       6.163  -4.230  52.596  1.00  0.00     0.188 HD
BRANCH  17  19
HETATM   19  N6  UNL     1       4.326  -5.100  52.412  1.00  0.00    -0.294 N 
ATOM     20  H6  UNL     1       3.633  -5.269  53.141  1.00  0.00     0.187 HD
BRANCH  19  21
HETATM   21  C9  UNL     1       3.941  -4.823  51.052  1.00  0.00     0.114 A 
HETATM   22  C10 UNL     1       2.767  -5.355  50.536  1.00  0.00     0.135 A 
HETATM   23  C11 UNL     1       2.378  -5.005  49.234  1.00  0.00     0.074 A 
HETATM   24  C12 UNL     1       3.139  -4.158  48.477  1.00  0.00     0.107 A 
HETATM   25  C13 UNL     1       4.298  -3.646  49.001  1.00  0.00     0.074 A 
HETATM   26  C14 UNL     1       4.719  -3.977  50.306  1.00  0.00     0.135 A 
BRANCH  22  27
HETATM   27  N7  UNL     1       1.970  -6.263  51.271  1.00  0.00    -0.113 N 
HETATM   28  O3  UNL     1       2.334  -6.694  52.363  1.00  0.00    -0.532 OA
HETATM   29  O4  UNL     1       0.795  -6.716  50.738  1.00  0.00    -0.532 OA
ENDBRANCH  22  27
BRANCH  24  30
HETATM   30  N8  UNL     1       2.740  -3.797  47.147  1.00  0.00    -0.116 N 
HETATM   31  O5  UNL     1       1.533  -3.884  46.847  1.00  0.00    -0.532 OA
HETATM   32  O6  UNL     1       3.663  -3.367  46.231  1.00  0.00    -0.532 OA
ENDBRANCH  24  30
BRANCH  26  33
HETATM   33  N9  UNL     1       5.948  -3.480  50.765  1.00  0.00    -0.113 N 
HETATM   34  O7  UNL     1       6.943  -3.709  49.975  1.00  0.00    -0.532 OA
HETATM   35  O8  UNL     1       6.250  -2.815  51.891  1.00  0.00    -0.532 OA
ENDBRANCH  26  33
ENDBRANCH  19  21
ENDBRANCH  17  19
ENDBRANCH   8  17
BRANCH  10  36
HETATM   36  N3  UNL     1       8.547  -8.562  51.394  1.00  0.00    -0.385 N 
ATOM     37  H32 UNL     1       8.632  -9.579  51.415  1.00  0.00     0.157 HD
ATOM     38  H31 UNL     1       8.922  -8.030  50.609  1.00  0.00     0.157 HD
ENDBRANCH  10  36
ENDBRANCH   4   5
ENDBRANCH   1   4
TORSDOF 10
ENDMDL
