MODEL 1
REMARK VINA RESULT: -7.694219815      0.000      0.000
REMARK  2 active torsions:
REMARK  status: ('A' for Active; 'I' for Inactive)
REMARK    1  A    between atoms: C2_2  and  C3_6 
REMARK    2  A    between atoms: C3_6  and  C4_7 
ROOT
HETATM    1  C4  UNL     1      33.705  -0.695  36.345  1.00  0.00    -0.001 C 
HETATM    2  C5  UNL     1      33.746   0.263  35.230  1.00  0.00    -0.010 C 
HETATM    3  C6  UNL     1      34.383  -0.457  34.025  1.00  0.00     0.005 C 
HETATM    4  C7  UNL     1      35.357  -1.472  34.526  1.00  0.00     0.001 C 
HETATM    5  C8  UNL     1      36.034  -1.115  35.817  1.00  0.00     0.005 C 
HETATM    6  C9  UNL     1      35.089  -0.822  36.948  1.00  0.00    -0.010 C 
HETATM    7  C10 UNL     1      35.431   0.501  37.550  1.00  0.00     0.005 C 
HETATM    8  C11 UNL     1      35.493   1.602  36.522  1.00  0.00     0.001 C 
HETATM    9  C12 UNL     1      34.456   1.557  35.487  1.00  0.00     0.005 C 
ENDROOT
BRANCH   1  10
HETATM   10  C3  UNL     1      32.623  -0.581  37.341  1.00  0.00     0.056 C 
BRANCH  10  11
HETATM   11  C2  UNL     1      31.304  -0.819  36.714  1.00  0.00    -0.024 C 
HETATM   12  C1  UNL     1      31.081  -2.076  35.879  1.00  0.00     0.062 C 
HETATM   13  N1  UNL     1      30.329  -0.003  36.801  1.00  0.00    -0.406 N 
ATOM     14  H12 UNL     1      29.420  -0.168  36.369  1.00  0.00     0.155 HD
ATOM     15  H11 UNL     1      30.478   0.837  37.360  1.00  0.00     0.155 HD
ENDBRANCH  10  11
ENDBRANCH   1  10
TORSDOF 2
ENDMDL
MODEL 2
REMARK VINA RESULT: -7.693967141      3.322      5.077
REMARK  2 active torsions:
REMARK  status: ('A' for Active; 'I' for Inactive)
REMARK    1  A    between atoms: C2_2  and  C3_6 
REMARK    2  A    between atoms: C3_6  and  C4_7 
ROOT
HETATM    1  C4  UNL     1      36.372   0.721  33.724  1.00  0.00    -0.001 C 
HETATM    2  C5  UNL     1      35.277  -0.260  33.743  1.00  0.00    -0.010 C 
HETATM    3  C6  UNL     1      34.059   0.419  34.398  1.00  0.00     0.005 C 
HETATM    4  C7  UNL     1      34.540   1.420  35.397  1.00  0.00     0.001 C 
HETATM    5  C8  UNL     1      35.838   1.072  36.063  1.00  0.00     0.005 C 
HETATM    6  C9  UNL     1      36.974   0.826  35.110  1.00  0.00    -0.010 C 
HETATM    7  C10 UNL     1      37.603  -0.492  35.420  1.00  0.00     0.005 C 
HETATM    8  C11 UNL     1      36.598  -1.615  35.454  1.00  0.00     0.001 C 
HETATM    9  C12 UNL     1      35.561  -1.566  34.420  1.00  0.00     0.005 C 
ENDROOT
BRANCH   1  10
HETATM   10  C3  UNL     1      37.369   0.654  32.639  1.00  0.00     0.056 C 
BRANCH  10  11
HETATM   11  C2  UNL     1      36.722   0.827  31.320  1.00  0.00    -0.024 C 
HETATM   12  C1  UNL     1      35.871   2.065  31.053  1.00  0.00     0.062 C 
HETATM   13  N1  UNL     1      36.804  -0.030  30.381  1.00  0.00    -0.406 N 
ATOM     14  H12 UNL     1      36.358   0.090  29.471  1.00  0.00     0.155 HD
ATOM     15  H11 UNL     1      37.373  -0.858  30.559  1.00  0.00     0.155 HD
ENDBRANCH  10  11
ENDBRANCH   1  10
TORSDOF 2
ENDMDL
MODEL 3
REMARK VINA RESULT: -7.441813797      1.037      1.075
REMARK  2 active torsions:
REMARK  status: ('A' for Active; 'I' for Inactive)
REMARK    1  A    between atoms: C2_2  and  C3_6 
REMARK    2  A    between atoms: C3_6  and  C4_7 
ROOT
HETATM    1  C4  UNL     1      33.539  -0.960  36.035  1.00  0.00    -0.001 C 
HETATM    2  C5  UNL     1      33.683   0.051  34.976  1.00  0.00    -0.010 C 
HETATM    3  C6  UNL     1      34.540  -0.572  33.857  1.00  0.00     0.005 C 
HETATM    4  C7  UNL     1      35.494  -1.549  34.463  1.00  0.00     0.001 C 
HETATM    5  C8  UNL     1      35.943  -1.213  35.854  1.00  0.00     0.005 C 
HETATM    6  C9  UNL     1      34.821  -1.031  36.838  1.00  0.00    -0.010 C 
HETATM    7  C10 UNL     1      34.980   0.280  37.534  1.00  0.00     0.005 C 
HETATM    8  C11 UNL     1      35.122   1.430  36.569  1.00  0.00     0.001 C 
HETATM    9  C12 UNL     1      34.258   1.372  35.387  1.00  0.00     0.005 C 
ENDROOT
BRANCH   1  10
HETATM   10  C3  UNL     1      32.314  -0.958  36.857  1.00  0.00     0.056 C 
BRANCH  10  11
HETATM   11  C2  UNL     1      31.181  -1.553  36.115  1.00  0.00    -0.024 C 
HETATM   12  C1  UNL     1      29.967  -0.694  35.774  1.00  0.00     0.062 C 
HETATM   13  N1  UNL     1      31.138  -2.777  35.764  1.00  0.00    -0.406 N 
ATOM     14  H12 UNL     1      30.357  -3.187  35.252  1.00  0.00     0.155 HD
ATOM     15  H11 UNL     1      31.950  -3.352  35.992  1.00  0.00     0.155 HD
ENDBRANCH  10  11
ENDBRANCH   1  10
TORSDOF 2
ENDMDL
MODEL 4
REMARK VINA RESULT: -7.410776975      3.167      4.964
REMARK  2 active torsions:
REMARK  status: ('A' for Active; 'I' for Inactive)
REMARK    1  A    between atoms: C2_2  and  C3_6 
REMARK    2  A    between atoms: C3_6  and  C4_7 
ROOT
HETATM    1  C4  UNL     1      36.100   1.051  33.657  1.00  0.00    -0.001 C 
HETATM    2  C5  UNL     1      34.946   0.139  33.683  1.00  0.00    -0.010 C 
HETATM    3  C6  UNL     1      33.872   0.778  34.584  1.00  0.00     0.005 C 
HETATM    4  C7  UNL     1      34.546   1.590  35.641  1.00  0.00     0.001 C 
HETATM    5  C8  UNL     1      35.888   1.077  36.072  1.00  0.00     0.005 C 
HETATM    6  C9  UNL     1      36.876   0.914  34.951  1.00  0.00    -0.010 C 
HETATM    7  C10 UNL     1      37.440  -0.467  34.984  1.00  0.00     0.005 C 
HETATM    8  C11 UNL     1      36.367  -1.527  34.994  1.00  0.00     0.001 C 
HETATM    9  C12 UNL     1      35.216  -1.267  34.125  1.00  0.00     0.005 C 
ENDROOT
BRANCH   1  10
HETATM   10  C3  UNL     1      36.946   1.092  32.450  1.00  0.00     0.056 C 
BRANCH  10  11
HETATM   11  C2  UNL     1      36.178   1.587  31.286  1.00  0.00    -0.024 C 
HETATM   12  C1  UNL     1      35.929   0.664  30.098  1.00  0.00     0.062 C 
HETATM   13  N1  UNL     1      35.732   2.778  31.195  1.00  0.00    -0.406 N 
ATOM     14  H12 UNL     1      35.203   3.119  30.393  1.00  0.00     0.155 HD
ATOM     15  H11 UNL     1      35.899   3.395  31.990  1.00  0.00     0.155 HD
ENDBRANCH  10  11
ENDBRANCH   1  10
TORSDOF 2
ENDMDL
MODEL 5
REMARK VINA RESULT: -7.154247192      0.811      2.686
REMARK  2 active torsions:
REMARK  status: ('A' for Active; 'I' for Inactive)
REMARK    1  A    between atoms: C2_2  and  C3_6 
REMARK    2  A    between atoms: C3_6  and  C4_7 
ROOT
HETATM    1  C4  UNL     1      33.721  -0.510  35.959  1.00  0.00    -0.001 C 
HETATM    2  C5  UNL     1      34.956  -0.871  36.671  1.00  0.00    -0.010 C 
HETATM    3  C6  UNL     1      35.545   0.424  37.261  1.00  0.00     0.005 C 
HETATM    4  C7  UNL     1      35.186   1.570  36.373  1.00  0.00     0.001 C 
HETATM    5  C8  UNL     1      35.058   1.225  34.919  1.00  0.00     0.005 C 
HETATM    6  C9  UNL     1      34.076   0.124  34.630  1.00  0.00    -0.010 C 
HETATM    7  C10 UNL     1      34.739  -0.927  33.803  1.00  0.00     0.005 C 
HETATM    8  C11 UNL     1      36.024  -1.419  34.420  1.00  0.00     0.001 C 
HETATM    9  C12 UNL     1      35.999  -1.593  35.874  1.00  0.00     0.005 C 
ENDROOT
BRANCH   1  10
HETATM   10  C3  UNL     1      32.629  -1.498  35.882  1.00  0.00     0.056 C 
BRANCH  10  11
HETATM   11  C2  UNL     1      31.361  -0.921  36.377  1.00  0.00    -0.024 C 
HETATM   12  C1  UNL     1      30.049  -1.274  35.682  1.00  0.00     0.062 C 
HETATM   13  N1  UNL     1      31.296  -0.100  37.349  1.00  0.00    -0.406 N 
ATOM     14  H12 UNL     1      30.421   0.297  37.690  1.00  0.00     0.155 HD
ATOM     15  H11 UNL     1      32.173   0.135  37.814  1.00  0.00     0.155 HD
ENDBRANCH  10  11
ENDBRANCH   1  10
TORSDOF 2
ENDMDL
