MODEL 1
REMARK VINA RESULT: -5.894040099      0.000      0.000
REMARK  3 active torsions:
REMARK  status: ('A' for Active; 'I' for Inactive)
REMARK    1  A    between atoms: C2_2  and  C3_3 
REMARK    2  A    between atoms: C7_7  and  C8_8 
REMARK    3  A    between atoms: C8_8  and  N1_9 
ROOT
HETATM    1  C3  UNL     1      36.417  -0.476  35.328  1.00  0.00     0.008 C 
HETATM    2  C4  UNL     1      36.362   1.014  35.372  1.00  0.00     0.008 C 
HETATM    3  C5  UNL     1      35.351   1.576  36.309  1.00  0.00     0.001 C 
HETATM    4  C6  UNL     1      34.899   0.670  37.384  1.00  0.00     0.006 C 
HETATM    5  C7  UNL     1      34.606  -0.731  36.985  1.00  0.00     0.011 C 
HETATM    6  C9  UNL     1      35.057  -1.082  35.592  1.00  0.00     0.014 C 
ENDROOT
BRANCH   5   7
HETATM    7  C8  UNL     1      33.144  -1.095  37.168  1.00  0.00     0.234 C 
BRANCH   7   8
HETATM    8  N1  UNL     1      32.344   0.070  36.805  1.00  0.00    -0.079 N 
ATOM      9  H13 UNL     1      32.909   0.844  36.455  1.00  0.00     0.274 HD
ATOM     10  H12 UNL     1      31.784  -0.080  35.966  1.00  0.00     0.274 HD
ATOM     11  H11 UNL     1      31.780   0.328  37.615  1.00  0.00     0.274 HD
ENDBRANCH   7   8
ENDBRANCH   5   7
BRANCH   1  12
HETATM   12  C2  UNL     1      36.875  -0.872  33.963  1.00  0.00    -0.032 C 
HETATM   13  C1  UNL     1      36.935  -0.025  32.958  1.00  0.00     0.007 C 
ENDBRANCH   1  12
TORSDOF 3
ENDMDL
MODEL 2
REMARK VINA RESULT: -5.857767236      2.360      4.405
REMARK  3 active torsions:
REMARK  status: ('A' for Active; 'I' for Inactive)
REMARK    1  A    between atoms: C2_2  and  C3_3 
REMARK    2  A    between atoms: C7_7  and  C8_8 
REMARK    3  A    between atoms: C8_8  and  N1_9 
ROOT
HETATM    1  C3  UNL     1      32.428  -0.784  35.838  1.00  0.00     0.008 C 
HETATM    2  C4  UNL     1      32.914  -1.092  37.215  1.00  0.00     0.008 C 
HETATM    3  C5  UNL     1      34.394  -1.155  37.356  1.00  0.00     0.001 C 
HETATM    4  C6  UNL     1      35.170  -0.460  36.310  1.00  0.00     0.006 C 
HETATM    5  C7  UNL     1      34.711  -0.655  34.910  1.00  0.00     0.011 C 
HETATM    6  C9  UNL     1      33.371  -1.331  34.789  1.00  0.00     0.014 C 
ENDROOT
BRANCH   5   7
HETATM    7  C8  UNL     1      35.738  -1.377  34.057  1.00  0.00     0.234 C 
BRANCH   7   8
HETATM    8  N1  UNL     1      36.942  -1.557  34.861  1.00  0.00    -0.079 N 
ATOM      9  H13 UNL     1      36.969  -0.945  35.677  1.00  0.00     0.274 HD
ATOM     10  H12 UNL     1      36.956  -2.447  35.360  1.00  0.00     0.274 HD
ATOM     11  H11 UNL     1      37.749  -1.435  34.249  1.00  0.00     0.274 HD
ENDBRANCH   7   8
ENDBRANCH   5   7
BRANCH   1  12
HETATM   12  C2  UNL     1      31.089  -1.424  35.677  1.00  0.00    -0.032 C 
HETATM   13  C1  UNL     1      29.961  -0.764  35.831  1.00  0.00     0.007 C 
ENDBRANCH   1  12
TORSDOF 3
ENDMDL
MODEL 3
REMARK VINA RESULT: -5.850758708      2.103      3.032
REMARK  3 active torsions:
REMARK  status: ('A' for Active; 'I' for Inactive)
REMARK    1  A    between atoms: C2_2  and  C3_3 
REMARK    2  A    between atoms: C7_7  and  C8_8 
REMARK    3  A    between atoms: C8_8  and  N1_9 
ROOT
HETATM    1  C3  UNL     1      35.879   0.775  32.422  1.00  0.00     0.008 C 
HETATM    2  C4  UNL     1      37.230   1.096  32.968  1.00  0.00     0.008 C 
HETATM    3  C5  UNL     1      37.315   1.120  34.454  1.00  0.00     0.001 C 
HETATM    4  C6  UNL     1      36.256   0.381  35.170  1.00  0.00     0.006 C 
HETATM    5  C7  UNL     1      34.870   0.560  34.664  1.00  0.00     0.011 C 
HETATM    6  C9  UNL     1      34.784   1.272  33.340  1.00  0.00     0.014 C 
ENDROOT
BRANCH   5   7
HETATM    7  C8  UNL     1      33.964   1.234  35.678  1.00  0.00     0.234 C 
BRANCH   7   8
HETATM    8  N1  UNL     1      34.795   1.690  36.788  1.00  0.00    -0.079 N 
ATOM      9  H13 UNL     1      34.361   1.531  37.698  1.00  0.00     0.274 HD
ATOM     10  H12 UNL     1      35.622   1.109  36.929  1.00  0.00     0.274 HD
ATOM     11  H11 UNL     1      35.024   2.670  36.626  1.00  0.00     0.274 HD
ENDBRANCH   7   8
ENDBRANCH   5   7
BRANCH   1  12
HETATM   12  C2  UNL     1      35.753   1.450  31.097  1.00  0.00    -0.032 C 
HETATM   13  C1  UNL     1      35.722   0.788  29.960  1.00  0.00     0.007 C 
ENDBRANCH   1  12
TORSDOF 3
ENDMDL
MODEL 4
REMARK VINA RESULT: -5.832915822      1.209      1.587
REMARK  3 active torsions:
REMARK  status: ('A' for Active; 'I' for Inactive)
REMARK    1  A    between atoms: C2_2  and  C3_3 
REMARK    2  A    between atoms: C7_7  and  C8_8 
REMARK    3  A    between atoms: C8_8  and  N1_9 
ROOT
HETATM    1  C3  UNL     1      35.363  -1.010  35.527  1.00  0.00     0.008 C 
HETATM    2  C4  UNL     1      35.624   0.141  36.439  1.00  0.00     0.008 C 
HETATM    3  C5  UNL     1      34.430   0.639  37.176  1.00  0.00     0.001 C 
HETATM    4  C6  UNL     1      33.307  -0.312  37.297  1.00  0.00     0.006 C 
HETATM    5  C7  UNL     1      32.957  -1.078  36.072  1.00  0.00     0.011 C 
HETATM    6  C9  UNL     1      33.963  -0.952  34.958  1.00  0.00     0.014 C 
ENDROOT
BRANCH   5   7
HETATM    7  C8  UNL     1      31.567  -0.750  35.559  1.00  0.00     0.234 C 
BRANCH   7   8
HETATM    8  N1  UNL     1      30.842  -0.074  36.630  1.00  0.00    -0.079 N 
ATOM      9  H13 UNL     1      30.352  -0.722  37.247  1.00  0.00     0.274 HD
ATOM     10  H12 UNL     1      31.461   0.337  37.329  1.00  0.00     0.274 HD
ATOM     11  H11 UNL     1      30.219   0.611  36.203  1.00  0.00     0.274 HD
ENDBRANCH   7   8
ENDBRANCH   5   7
BRANCH   1  12
HETATM   12  C2  UNL     1      36.351  -0.935  34.410  1.00  0.00    -0.032 C 
HETATM   13  C1  UNL     1      37.284  -0.009  34.344  1.00  0.00     0.007 C 
ENDBRANCH   1  12
TORSDOF 3
ENDMDL
MODEL 5
REMARK VINA RESULT: -5.825049648      2.794      4.633
REMARK  3 active torsions:
REMARK  status: ('A' for Active; 'I' for Inactive)
REMARK    1  A    between atoms: C2_2  and  C3_3 
REMARK    2  A    between atoms: C7_7  and  C8_8 
REMARK    3  A    between atoms: C8_8  and  N1_9 
ROOT
HETATM    1  C3  UNL     1      35.221   1.241  34.926  1.00  0.00     0.008 C 
HETATM    2  C4  UNL     1      36.403   0.408  35.292  1.00  0.00     0.008 C 
HETATM    3  C5  UNL     1      37.288   0.043  34.152  1.00  0.00     0.001 C 
HETATM    4  C6  UNL     1      37.184   0.903  32.957  1.00  0.00     0.006 C 
HETATM    5  C7  UNL     1      35.810   1.274  32.529  1.00  0.00     0.011 C 
HETATM    6  C9  UNL     1      34.738   0.924  33.528  1.00  0.00     0.014 C 
ENDROOT
BRANCH   5   7
HETATM    7  C8  UNL     1      35.455   0.714  31.164  1.00  0.00     0.234 C 
BRANCH   7   8
HETATM    8  N1  UNL     1      36.641   0.055  30.627  1.00  0.00    -0.079 N 
ATOM      9  H13 UNL     1      36.506  -0.289  29.676  1.00  0.00     0.274 HD
ATOM     10  H12 UNL     1      37.400   0.707  30.428  1.00  0.00     0.274 HD
ATOM     11  H11 UNL     1      36.913  -0.680  31.279  1.00  0.00     0.274 HD
ENDBRANCH   7   8
ENDBRANCH   5   7
BRANCH   1  12
HETATM   12  C2  UNL     1      34.133   0.938  35.902  1.00  0.00    -0.032 C 
HETATM   13  C1  UNL     1      34.370   0.590  37.149  1.00  0.00     0.007 C 
ENDBRANCH   1  12
TORSDOF 3
ENDMDL
