MODEL 1
REMARK VINA RESULT: -9.549476642      0.000      0.000
REMARK  6 active torsions:
REMARK  status: ('A' for Active; 'I' for Inactive)
REMARK       I    between atoms: C1_4  and  N2_5 
REMARK       I    between atoms: C1_4  and  N11_31 
REMARK    1  A    between atoms: N2_5  and  C2_7 
REMARK    2  A    between atoms: C3_10  and  N4_11 
REMARK    3  A    between atoms: C4_19  and  C5_20 
REMARK       I    between atoms: C5_20  and  N7_22 
REMARK    4  A    between atoms: N7_22  and  C6_24 
REMARK    5  A    between atoms: C6_24  and  N8_25 
REMARK    6  A    between atoms: N11_31  and  N12_33 
ROOT
HETATM    1  C2  UNL     1       4.644   1.532  38.162  1.00  0.00     0.102 C 
HETATM    2  N3  UNL     1       5.089   2.074  39.262  1.00  0.00    -0.335 N 
ATOM      3  H3  UNL     1       5.744   2.852  39.188  1.00  0.00     0.164 HD
HETATM    4  C3  UNL     1       4.698   1.627  40.587  1.00  0.00     0.402 C 
HETATM    5  N5  UNL     1       3.253   1.550  40.697  1.00  0.00    -0.289 N 
ATOM      6  H5  UNL     1       2.834   2.078  41.462  1.00  0.00     0.184 HD
HETATM    7  N6  UNL     1       2.366   0.842  39.883  1.00  0.00    -0.300 N 
ATOM      8  H6  UNL     1       1.444   0.681  40.289  1.00  0.00     0.186 HD
HETATM    9  C4  UNL     1       2.528   0.369  38.717  1.00  0.00     0.100 C 
HETATM   10  C9  UNL     1       3.722   0.436  37.878  1.00  0.00     0.141 C 
ENDROOT
BRANCH   1  11
HETATM   11  N2  UNL     1       5.196   2.172  37.017  1.00  0.00    -0.179 N 
HETATM   12  C1  UNL     1       4.589   2.142  35.738  1.00  0.00     0.696 C 
HETATM   13  N1  UNL     1       3.449   2.687  35.542  1.00  0.00    -0.233 N 
HETATM   14  N11 UNL     1       5.238   1.507  34.646  1.00  0.00    -0.072 N 
ATOM     15  H12 UNL     1       2.984   3.143  36.326  1.00  0.00     0.174 HD
ATOM     16  H11 UNL     1       3.012   2.666  34.620  1.00  0.00     0.174 HD
ATOM     17  H11 UNL     1       5.323   1.994  33.754  1.00  0.00     0.212 HD
ATOM     18  H2  UNL     1       6.076   2.677  37.123  1.00  0.00     0.185 HD
BRANCH  14  19
HETATM   19  N12 UNL     1       5.759   0.219  34.788  1.00  0.00    -0.024 N 
HETATM   20  O2  UNL     1       5.232  -0.704  34.139  1.00  0.00    -0.516 OA
HETATM   21  O3  UNL     1       6.824  -0.042  35.614  1.00  0.00    -0.516 OA
ENDBRANCH  14  19
ENDBRANCH   1  11
BRANCH   4  22
HETATM   22  N4  UNL     1       5.238   2.441  41.629  1.00  0.00    -0.039 N 
ATOM     23  H43 UNL     1       5.090   2.011  42.542  1.00  0.00     0.279 HD
ATOM     24  H42 UNL     1       6.258   2.434  41.607  1.00  0.00     0.279 HD
ATOM     25  H41 UNL     1       4.879   3.395  41.613  1.00  0.00     0.279 HD
ENDBRANCH   4  22
BRANCH   9  26
HETATM   26  C5  UNL     1       1.382  -0.351  38.089  1.00  0.00     0.270 C 
HETATM   27  O1  UNL     1       1.614  -1.497  37.607  1.00  0.00    -0.266 OA
HETATM   28  N7  UNL     1       0.155   0.313  38.094  1.00  0.00    -0.317 N 
ATOM     29  H7  UNL     1       0.121   1.242  38.513  1.00  0.00     0.170 HD
BRANCH  28  30
HETATM   30  C6  UNL     1      -1.051  -0.216  37.555  1.00  0.00     0.200 C 
BRANCH  30  31
HETATM   31  N8  UNL     1      -2.286   0.239  37.989  1.00  0.00    -0.274 N 
HETATM   32  C7  UNL     1      -2.724   0.299  39.298  1.00  0.00     0.164 C 
HETATM   33  C8  UNL     1      -4.264   0.346  39.101  1.00  0.00     0.153 C 
HETATM   34  N9  UNL     1      -4.394  -0.450  37.869  1.00  0.00    -0.124 NA
HETATM   35  N10 UNL     1      -3.324   0.003  37.122  1.00  0.00    -0.028 NA
ENDBRANCH  30  31
ENDBRANCH  28  30
ENDBRANCH   9  26
TORSDOF 6
ENDMDL
MODEL 2
REMARK VINA RESULT: -9.399258068      3.410      6.066
REMARK  6 active torsions:
REMARK  status: ('A' for Active; 'I' for Inactive)
REMARK       I    between atoms: C1_4  and  N2_5 
REMARK       I    between atoms: C1_4  and  N11_31 
REMARK    1  A    between atoms: N2_5  and  C2_7 
REMARK    2  A    between atoms: C3_10  and  N4_11 
REMARK    3  A    between atoms: C4_19  and  C5_20 
REMARK       I    between atoms: C5_20  and  N7_22 
REMARK    4  A    between atoms: N7_22  and  C6_24 
REMARK    5  A    between atoms: C6_24  and  N8_25 
REMARK    6  A    between atoms: N11_31  and  N12_33 
ROOT
HETATM    1  C2  UNL     1       3.904   1.622  38.744  1.00  0.00     0.102 C 
HETATM    2  N3  UNL     1       2.942   1.073  38.053  1.00  0.00    -0.335 N 
ATOM      3  H3  UNL     1       3.124   0.832  37.079  1.00  0.00     0.164 HD
HETATM    4  C3  UNL     1       1.628   0.787  38.600  1.00  0.00     0.402 C 
HETATM    5  N5  UNL     1       1.740   0.050  39.846  1.00  0.00    -0.289 N 
ATOM      6  H5  UNL     1       1.234  -0.834  39.889  1.00  0.00     0.184 HD
HETATM    7  N6  UNL     1       2.457   0.403  40.992  1.00  0.00    -0.300 N 
ATOM      8  H6  UNL     1       2.179  -0.088  41.842  1.00  0.00     0.186 HD
HETATM    9  C4  UNL     1       3.399   1.239  41.139  1.00  0.00     0.100 C 
HETATM   10  C9  UNL     1       4.015   2.089  40.123  1.00  0.00     0.141 C 
ENDROOT
BRANCH   1  11
HETATM   11  N2  UNL     1       5.075   1.783  37.953  1.00  0.00    -0.179 N 
HETATM   12  C1  UNL     1       5.049   1.950  36.547  1.00  0.00     0.696 C 
HETATM   13  N1  UNL     1       4.502   2.980  36.020  1.00  0.00    -0.233 N 
HETATM   14  N11 UNL     1       5.631   0.977  35.693  1.00  0.00    -0.072 N 
ATOM     15  H12 UNL     1       4.084   3.679  36.633  1.00  0.00     0.174 HD
ATOM     16  H11 UNL     1       4.484   3.101  35.007  1.00  0.00     0.174 HD
ATOM     17  H11 UNL     1       6.268   1.269  34.952  1.00  0.00     0.212 HD
ATOM     18  H2  UNL     1       5.980   1.777  38.422  1.00  0.00     0.185 HD
BRANCH  14  19
HETATM   19  N12 UNL     1       5.337  -0.377  35.864  1.00  0.00    -0.024 N 
HETATM   20  O2  UNL     1       6.189  -1.214  35.508  1.00  0.00    -0.516 OA
HETATM   21  O3  UNL     1       4.149  -0.796  36.409  1.00  0.00    -0.516 OA
ENDBRANCH  14  19
ENDBRANCH   1  11
BRANCH   4  22
HETATM   22  N4  UNL     1       0.783   0.094  37.681  1.00  0.00    -0.039 N 
ATOM     23  H43 UNL     1       0.048   0.707  37.328  1.00  0.00     0.279 HD
ATOM     24  H42 UNL     1       1.273  -0.097  36.807  1.00  0.00     0.279 HD
ATOM     25  H41 UNL     1       0.388  -0.761  38.073  1.00  0.00     0.279 HD
ENDBRANCH   4  22
BRANCH   9  26
HETATM   26  C5  UNL     1       3.979   1.405  42.505  1.00  0.00     0.270 C 
HETATM   27  O1  UNL     1       5.019   2.118  42.608  1.00  0.00    -0.266 OA
HETATM   28  N7  UNL     1       3.314   0.753  43.543  1.00  0.00    -0.317 N 
ATOM     29  H7  UNL     1       2.489   0.203  43.307  1.00  0.00     0.170 HD
BRANCH  28  30
HETATM   30  C6  UNL     1       3.708   0.803  44.910  1.00  0.00     0.200 C 
BRANCH  30  31
HETATM   31  N8  UNL     1       3.029   1.598  45.820  1.00  0.00    -0.274 N 
HETATM   32  C7  UNL     1       2.117   2.592  45.519  1.00  0.00     0.164 C 
HETATM   33  C8  UNL     1       2.145   3.434  46.824  1.00  0.00     0.153 C 
HETATM   34  N9  UNL     1       3.543   3.228  47.238  1.00  0.00    -0.124 NA
HETATM   35  N10 UNL     1       3.728   1.887  46.966  1.00  0.00    -0.028 NA
ENDBRANCH  30  31
ENDBRANCH  28  30
ENDBRANCH   9  26
TORSDOF 6
ENDMDL
MODEL 3
REMARK VINA RESULT: -9.286008036      3.458      5.853
REMARK  6 active torsions:
REMARK  status: ('A' for Active; 'I' for Inactive)
REMARK       I    between atoms: C1_4  and  N2_5 
REMARK       I    between atoms: C1_4  and  N11_31 
REMARK    1  A    between atoms: N2_5  and  C2_7 
REMARK    2  A    between atoms: C3_10  and  N4_11 
REMARK    3  A    between atoms: C4_19  and  C5_20 
REMARK       I    between atoms: C5_20  and  N7_22 
REMARK    4  A    between atoms: N7_22  and  C6_24 
REMARK    5  A    between atoms: C6_24  and  N8_25 
REMARK    6  A    between atoms: N11_31  and  N12_33 
ROOT
HETATM    1  C2  UNL     1       3.998   1.198  38.122  1.00  0.00     0.102 C 
HETATM    2  N3  UNL     1       3.673   0.052  37.590  1.00  0.00    -0.335 N 
ATOM      3  H3  UNL     1       4.090  -0.201  36.694  1.00  0.00     0.164 HD
HETATM    4  C3  UNL     1       2.748  -0.882  38.207  1.00  0.00     0.402 C 
HETATM    5  N5  UNL     1       3.121  -1.137  39.586  1.00  0.00    -0.289 N 
ATOM      6  H5  UNL     1       3.260  -2.115  39.838  1.00  0.00     0.184 HD
HETATM    7  N6  UNL     1       3.315  -0.207  40.610  1.00  0.00    -0.300 N 
ATOM      8  H6  UNL     1       3.285  -0.593  41.554  1.00  0.00     0.186 HD
HETATM    9  C4  UNL     1       3.522   1.043  40.548  1.00  0.00     0.100 C 
HETATM   10  C9  UNL     1       3.619   1.881  39.356  1.00  0.00     0.141 C 
ENDROOT
BRANCH   1  11
HETATM   11  N2  UNL     1       4.919   1.902  37.298  1.00  0.00    -0.179 N 
HETATM   12  C1  UNL     1       4.646   2.264  35.956  1.00  0.00     0.696 C 
HETATM   13  N1  UNL     1       3.707   3.086  35.678  1.00  0.00    -0.233 N 
HETATM   14  N11 UNL     1       5.413   1.721  34.892  1.00  0.00    -0.072 N 
ATOM     15  H12 UNL     1       3.156   3.476  36.442  1.00  0.00     0.174 HD
ATOM     16  H11 UNL     1       3.510   3.347  34.711  1.00  0.00     0.174 HD
ATOM     17  H11 UNL     1       5.800   2.339  34.179  1.00  0.00     0.212 HD
ATOM     18  H2  UNL     1       5.823   2.159  37.693  1.00  0.00     0.185 HD
BRANCH  14  19
HETATM   19  N12 UNL     1       5.641   0.345  34.818  1.00  0.00    -0.024 N 
HETATM   20  O2  UNL     1       5.059  -0.301  33.924  1.00  0.00    -0.516 OA
HETATM   21  O3  UNL     1       6.479  -0.298  35.694  1.00  0.00    -0.516 OA
ENDBRANCH  14  19
ENDBRANCH   1  11
BRANCH   4  22
HETATM   22  N4  UNL     1       2.632  -2.108  37.483  1.00  0.00    -0.039 N 
ATOM     23  H43 UNL     1       1.951  -2.023  36.728  1.00  0.00     0.279 HD
ATOM     24  H42 UNL     1       3.470  -2.287  36.930  1.00  0.00     0.279 HD
ATOM     25  H41 UNL     1       2.414  -2.903  38.083  1.00  0.00     0.279 HD
ENDBRANCH   4  22
BRANCH   9  26
HETATM   26  C5  UNL     1       3.694   1.787  41.831  1.00  0.00     0.270 C 
HETATM   27  O1  UNL     1       4.653   2.610  41.897  1.00  0.00    -0.266 OA
HETATM   28  N7  UNL     1       2.774   1.503  42.840  1.00  0.00    -0.317 N 
ATOM     29  H7  UNL     1       2.056   0.805  42.645  1.00  0.00     0.170 HD
BRANCH  28  30
HETATM   30  C6  UNL     1       2.769   2.117  44.123  1.00  0.00     0.200 C 
BRANCH  30  31
HETATM   31  N8  UNL     1       2.882   1.359  45.279  1.00  0.00    -0.274 N 
HETATM   32  C7  UNL     1       2.027   1.387  46.364  1.00  0.00     0.164 C 
HETATM   33  C8  UNL     1       2.933   0.795  47.479  1.00  0.00     0.153 C 
HETATM   34  N9  UNL     1       4.249   1.273  47.026  1.00  0.00    -0.124 NA
HETATM   35  N10 UNL     1       4.170   1.080  45.661  1.00  0.00    -0.028 NA
ENDBRANCH  30  31
ENDBRANCH  28  30
ENDBRANCH   9  26
TORSDOF 6
ENDMDL
MODEL 4
REMARK VINA RESULT: -9.123230038      0.945      1.065
REMARK  6 active torsions:
REMARK  status: ('A' for Active; 'I' for Inactive)
REMARK       I    between atoms: C1_4  and  N2_5 
REMARK       I    between atoms: C1_4  and  N11_31 
REMARK    1  A    between atoms: N2_5  and  C2_7 
REMARK    2  A    between atoms: C3_10  and  N4_11 
REMARK    3  A    between atoms: C4_19  and  C5_20 
REMARK       I    between atoms: C5_20  and  N7_22 
REMARK    4  A    between atoms: N7_22  and  C6_24 
REMARK    5  A    between atoms: C6_24  and  N8_25 
REMARK    6  A    between atoms: N11_31  and  N12_33 
ROOT
HETATM    1  C2  UNL     1       4.614   1.511  38.171  1.00  0.00     0.102 C 
HETATM    2  N3  UNL     1       4.940   2.121  39.278  1.00  0.00    -0.335 N 
ATOM      3  H3  UNL     1       5.535   2.947  39.218  1.00  0.00     0.164 HD
HETATM    4  C3  UNL     1       4.497   1.685  40.590  1.00  0.00     0.402 C 
HETATM    5  N5  UNL     1       3.059   1.495  40.609  1.00  0.00    -0.289 N 
ATOM      6  H5  UNL     1       2.549   2.010  41.326  1.00  0.00     0.184 HD
HETATM    7  N6  UNL     1       2.287   0.692  39.767  1.00  0.00    -0.300 N 
ATOM      8  H6  UNL     1       1.356   0.468  40.118  1.00  0.00     0.186 HD
HETATM    9  C4  UNL     1       2.565   0.197  38.632  1.00  0.00     0.100 C 
HETATM   10  C9  UNL     1       3.803   0.335  37.869  1.00  0.00     0.141 C 
ENDROOT
BRANCH   1  11
HETATM   11  N2  UNL     1       5.190   2.157  37.042  1.00  0.00    -0.179 N 
HETATM   12  C1  UNL     1       4.600   2.150  35.755  1.00  0.00     0.696 C 
HETATM   13  N1  UNL     1       3.469   2.711  35.550  1.00  0.00    -0.233 N 
HETATM   14  N11 UNL     1       5.256   1.521  34.665  1.00  0.00    -0.072 N 
ATOM     15  H12 UNL     1       2.999   3.164  36.333  1.00  0.00     0.174 HD
ATOM     16  H11 UNL     1       3.045   2.707  34.622  1.00  0.00     0.174 HD
ATOM     17  H11 UNL     1       5.359   2.017  33.780  1.00  0.00     0.212 HD
ATOM     18  H2  UNL     1       6.074   2.651  37.167  1.00  0.00     0.185 HD
BRANCH  14  19
HETATM   19  N12 UNL     1       5.760   0.225  34.798  1.00  0.00    -0.024 N 
HETATM   20  O2  UNL     1       5.222  -0.686  34.140  1.00  0.00    -0.516 OA
HETATM   21  O3  UNL     1       6.818  -0.057  35.624  1.00  0.00    -0.516 OA
ENDBRANCH  14  19
ENDBRANCH   1  11
BRANCH   4  22
HETATM   22  N4  UNL     1       4.900   2.572  41.635  1.00  0.00    -0.039 N 
ATOM     23  H43 UNL     1       4.897   3.541  41.313  1.00  0.00     0.279 HD
ATOM     24  H42 UNL     1       4.183   2.636  42.358  1.00  0.00     0.279 HD
ATOM     25  H41 UNL     1       5.804   2.325  42.038  1.00  0.00     0.279 HD
ENDBRANCH   4  22
BRANCH   9  26
HETATM   26  C5  UNL     1       1.523  -0.633  37.957  1.00  0.00     0.270 C 
HETATM   27  O1  UNL     1       1.854  -1.803  37.609  1.00  0.00    -0.266 OA
HETATM   28  N7  UNL     1       0.277  -0.035  37.775  1.00  0.00    -0.317 N 
ATOM     29  H7  UNL     1       0.158   0.924  38.101  1.00  0.00     0.170 HD
BRANCH  28  30
HETATM   30  C6  UNL     1      -0.841  -0.670  37.165  1.00  0.00     0.200 C 
BRANCH  30  31
HETATM   31  N8  UNL     1      -1.944  -1.048  37.915  1.00  0.00    -0.274 N 
HETATM   32  C7  UNL     1      -2.909  -0.206  38.436  1.00  0.00     0.164 C 
HETATM   33  C8  UNL     1      -3.505  -1.089  39.566  1.00  0.00     0.153 C 
HETATM   34  N9  UNL     1      -2.313  -1.864  39.948  1.00  0.00    -0.124 NA
HETATM   35  N10 UNL     1      -1.747  -2.143  38.719  1.00  0.00    -0.028 NA
ENDBRANCH  30  31
ENDBRANCH  28  30
ENDBRANCH   9  26
TORSDOF 6
ENDMDL
MODEL 5
REMARK VINA RESULT: -9.077983193      3.618      5.950
REMARK  6 active torsions:
REMARK  status: ('A' for Active; 'I' for Inactive)
REMARK       I    between atoms: C1_4  and  N2_5 
REMARK       I    between atoms: C1_4  and  N11_31 
REMARK    1  A    between atoms: N2_5  and  C2_7 
REMARK    2  A    between atoms: C3_10  and  N4_11 
REMARK    3  A    between atoms: C4_19  and  C5_20 
REMARK       I    between atoms: C5_20  and  N7_22 
REMARK    4  A    between atoms: N7_22  and  C6_24 
REMARK    5  A    between atoms: C6_24  and  N8_25 
REMARK    6  A    between atoms: N11_31  and  N12_33 
ROOT
HETATM    1  C2  UNL     1       3.923   1.690  38.605  1.00  0.00     0.102 C 
HETATM    2  N3  UNL     1       2.972   1.092  37.943  1.00  0.00    -0.335 N 
ATOM      3  H3  UNL     1       3.164   0.789  36.988  1.00  0.00     0.164 HD
HETATM    4  C3  UNL     1       1.654   0.835  38.494  1.00  0.00     0.402 C 
HETATM    5  N5  UNL     1       1.757   0.182  39.786  1.00  0.00    -0.289 N 
ATOM      6  H5  UNL     1       1.255  -0.701  39.882  1.00  0.00     0.184 HD
HETATM    7  N6  UNL     1       2.459   0.612  40.913  1.00  0.00    -0.300 N 
ATOM      8  H6  UNL     1       2.176   0.176  41.791  1.00  0.00     0.186 HD
HETATM    9  C4  UNL     1       3.396   1.462  41.015  1.00  0.00     0.100 C 
HETATM   10  C9  UNL     1       4.018   2.247  39.952  1.00  0.00     0.141 C 
ENDROOT
BRANCH   1  11
HETATM   11  N2  UNL     1       5.102   1.806  37.817  1.00  0.00    -0.179 N 
HETATM   12  C1  UNL     1       5.087   1.929  36.406  1.00  0.00     0.696 C 
HETATM   13  N1  UNL     1       4.561   2.951  35.844  1.00  0.00    -0.233 N 
HETATM   14  N11 UNL     1       5.657   0.920  35.587  1.00  0.00    -0.072 N 
ATOM     15  H12 UNL     1       4.152   3.676  36.432  1.00  0.00     0.174 HD
ATOM     16  H11 UNL     1       4.551   3.040  34.827  1.00  0.00     0.174 HD
ATOM     17  H11 UNL     1       6.303   1.177  34.841  1.00  0.00     0.212 HD
ATOM     18  H2  UNL     1       6.004   1.799  38.292  1.00  0.00     0.185 HD
BRANCH  14  19
HETATM   19  N12 UNL     1       5.339  -0.423  35.799  1.00  0.00    -0.024 N 
HETATM   20  O2  UNL     1       6.167  -1.287  35.450  1.00  0.00    -0.516 OA
HETATM   21  O3  UNL     1       4.153  -0.803  36.376  1.00  0.00    -0.516 OA
ENDBRANCH  14  19
ENDBRANCH   1  11
BRANCH   4  22
HETATM   22  N4  UNL     1       0.821   0.078  37.614  1.00  0.00    -0.039 N 
ATOM     23  H43 UNL     1       0.554  -0.810  38.037  1.00  0.00     0.279 HD
ATOM     24  H42 UNL     1      -0.102   0.505  37.527  1.00  0.00     0.279 HD
ATOM     25  H41 UNL     1       1.243  -0.067  36.697  1.00  0.00     0.279 HD
ENDBRANCH   4  22
BRANCH   9  26
HETATM   26  C5  UNL     1       3.962   1.720  42.373  1.00  0.00     0.270 C 
HETATM   27  O1  UNL     1       4.727   2.718  42.499  1.00  0.00    -0.266 OA
HETATM   28  N7  UNL     1       3.588   0.828  43.378  1.00  0.00    -0.317 N 
ATOM     29  H7  UNL     1       2.967   0.060  43.125  1.00  0.00     0.170 HD
BRANCH  28  30
HETATM   30  C6  UNL     1       4.013   0.917  44.733  1.00  0.00     0.200 C 
BRANCH  30  31
HETATM   31  N8  UNL     1       3.105   0.809  45.775  1.00  0.00    -0.274 N 
HETATM   32  C7  UNL     1       3.201   1.415  47.013  1.00  0.00     0.164 C 
HETATM   33  C8  UNL     1       2.260   0.520  47.864  1.00  0.00     0.153 C 
HETATM   34  N9  UNL     1       2.449  -0.774  47.188  1.00  0.00    -0.124 NA
HETATM   35  N10 UNL     1       2.465  -0.403  45.858  1.00  0.00    -0.028 NA
ENDBRANCH  30  31
ENDBRANCH  28  30
ENDBRANCH   9  26
TORSDOF 6
ENDMDL
