MODEL 1
REMARK VINA RESULT: -6.620668819      0.000      0.000
REMARK  1 active torsions:
REMARK  status: ('A' for Active; 'I' for Inactive)
REMARK    1  A    between atoms: C2_4  and  C3_5 
ROOT
HETATM    1  F1  UNL     1      25.745  14.922   4.900  1.00  0.00    -0.174 F 
HETATM    2  C1  UNL     1      26.402  16.072   5.220  1.00  0.00     0.272 A 
HETATM    3  O1  UNL     1      26.030  17.037   6.020  1.00  0.00    -0.277 OA
HETATM    4  C2  UNL     1      26.927  17.988   6.082  1.00  0.00     0.162 A 
HETATM    5  C4  UNL     1      27.963  17.605   5.257  1.00  0.00     0.195 A 
HETATM    6  F4  UNL     1      29.090  18.326   5.048  1.00  0.00    -0.200 F 
HETATM    7  C5  UNL     1      27.645  16.388   4.700  1.00  0.00     0.220 A 
HETATM    8  F5  UNL     1      28.398  15.669   3.833  1.00  0.00    -0.197 F 
ENDROOT
BRANCH   4   9
HETATM    9  C3  UNL     1      26.858  19.258   6.892  1.00  0.00     0.413 C 
HETATM   10  F2  UNL     1      28.078  19.863   6.806  1.00  0.00    -0.207 F 
HETATM   11  F3  UNL     1      26.588  18.874   8.207  1.00  0.00    -0.207 F 
ENDBRANCH   4   9
TORSDOF 1
ENDMDL
MODEL 2
REMARK VINA RESULT: -6.495260894      1.285      2.209
REMARK  1 active torsions:
REMARK  status: ('A' for Active; 'I' for Inactive)
REMARK    1  A    between atoms: C2_4  and  C3_5 
ROOT
HETATM    1  F1  UNL     1      29.298  16.167   4.224  1.00  0.00    -0.174 F 
HETATM    2  C1  UNL     1      28.335  16.751   4.990  1.00  0.00     0.272 A 
HETATM    3  O1  UNL     1      28.338  17.929   5.559  1.00  0.00    -0.277 OA
HETATM    4  C2  UNL     1      27.231  18.150   6.220  1.00  0.00     0.162 A 
HETATM    5  C4  UNL     1      26.449  17.024   6.066  1.00  0.00     0.195 A 
HETATM    6  F4  UNL     1      25.217  16.860   6.604  1.00  0.00    -0.200 F 
HETATM    7  C5  UNL     1      27.138  16.124   5.285  1.00  0.00     0.220 A 
HETATM    8  F5  UNL     1      26.717  14.895   4.900  1.00  0.00    -0.197 F 
ENDROOT
BRANCH   4   9
HETATM    9  C3  UNL     1      26.864  19.385   7.003  1.00  0.00     0.413 C 
HETATM   10  F2  UNL     1      27.955  20.205   7.005  1.00  0.00    -0.207 F 
HETATM   11  F3  UNL     1      26.565  18.958   8.299  1.00  0.00    -0.207 F 
ENDBRANCH   4   9
TORSDOF 1
ENDMDL
MODEL 3
REMARK VINA RESULT: -6.407078305      1.526      4.246
REMARK  1 active torsions:
REMARK  status: ('A' for Active; 'I' for Inactive)
REMARK    1  A    between atoms: C2_4  and  C3_5 
ROOT
HETATM    1  F1  UNL     1      27.958  20.668   7.071  1.00  0.00    -0.174 F 
HETATM    2  C1  UNL     1      27.602  19.418   6.664  1.00  0.00     0.272 A 
HETATM    3  O1  UNL     1      28.279  18.565   5.939  1.00  0.00    -0.277 OA
HETATM    4  C2  UNL     1      27.612  17.456   5.748  1.00  0.00     0.162 A 
HETATM    5  C4  UNL     1      26.407  17.604   6.402  1.00  0.00     0.195 A 
HETATM    6  F4  UNL     1      25.430  16.667   6.441  1.00  0.00    -0.200 F 
HETATM    7  C5  UNL     1      26.385  18.848   6.990  1.00  0.00     0.220 A 
HETATM    8  F5  UNL     1      25.380  19.381   7.726  1.00  0.00    -0.197 F 
ENDROOT
BRANCH   4   9
HETATM    9  C3  UNL     1      28.057  16.244   4.969  1.00  0.00     0.413 C 
HETATM   10  F2  UNL     1      29.419  16.284   4.895  1.00  0.00    -0.207 F 
HETATM   11  F3  UNL     1      27.489  16.361   3.698  1.00  0.00    -0.207 F 
ENDBRANCH   4   9
TORSDOF 1
ENDMDL
MODEL 4
REMARK VINA RESULT: -6.396562491      0.877      3.735
REMARK  1 active torsions:
REMARK  status: ('A' for Active; 'I' for Inactive)
REMARK    1  A    between atoms: C2_4  and  C3_5 
ROOT
HETATM    1  F1  UNL     1      26.197  18.982   8.353  1.00  0.00    -0.174 F 
HETATM    2  C1  UNL     1      26.560  18.425   7.163  1.00  0.00     0.272 A 
HETATM    3  O1  UNL     1      26.033  17.405   6.537  1.00  0.00    -0.277 OA
HETATM    4  C2  UNL     1      26.651  17.156   5.411  1.00  0.00     0.162 A 
HETATM    5  C4  UNL     1      27.658  18.090   5.301  1.00  0.00     0.195 A 
HETATM    6  F4  UNL     1      28.530  18.168   4.266  1.00  0.00    -0.200 F 
HETATM    7  C5  UNL     1      27.615  18.906   6.408  1.00  0.00     0.220 A 
HETATM    8  F5  UNL     1      28.436  19.949   6.682  1.00  0.00    -0.197 F 
ENDROOT
BRANCH   4   9
HETATM    9  C3  UNL     1      26.336  16.066   4.417  1.00  0.00     0.413 C 
HETATM   10  F2  UNL     1      25.238  15.400   4.877  1.00  0.00    -0.207 F 
HETATM   11  F3  UNL     1      27.450  15.224   4.389  1.00  0.00    -0.207 F 
ENDBRANCH   4   9
TORSDOF 1
ENDMDL
MODEL 5
REMARK VINA RESULT: -6.321591204      1.522      2.231
REMARK  1 active torsions:
REMARK  status: ('A' for Active; 'I' for Inactive)
REMARK    1  A    between atoms: C2_4  and  C3_5 
ROOT
HETATM    1  F1  UNL     1      27.609  17.400   2.793  1.00  0.00    -0.174 F 
HETATM    2  C1  UNL     1      27.385  17.435   4.136  1.00  0.00     0.272 A 
HETATM    3  O1  UNL     1      27.299  18.471   4.929  1.00  0.00    -0.277 OA
HETATM    4  C2  UNL     1      27.074  18.116   6.168  1.00  0.00     0.162 A 
HETATM    5  C4  UNL     1      27.008  16.739   6.176  1.00  0.00     0.195 A 
HETATM    6  F4  UNL     1      26.787  15.982   7.277  1.00  0.00    -0.200 F 
HETATM    7  C5  UNL     1      27.204  16.289   4.889  1.00  0.00     0.220 A 
HETATM    8  F5  UNL     1      27.214  15.000   4.472  1.00  0.00    -0.197 F 
ENDROOT
BRANCH   4   9
HETATM    9  C3  UNL     1      26.914  19.020   7.364  1.00  0.00     0.413 C 
HETATM   10  F2  UNL     1      25.606  19.405   7.413  1.00  0.00    -0.207 F 
HETATM   11  F3  UNL     1      27.746  20.120   7.141  1.00  0.00    -0.207 F 
ENDBRANCH   4   9
TORSDOF 1
ENDMDL
