MODEL 1
REMARK VINA RESULT: -7.070749941      0.000      0.000
REMARK  13 active torsions:
REMARK  status: ('A' for Active; 'I' for Inactive)
REMARK    1  A    between atoms: C4_6  and  O1_7 
REMARK    2  A    between atoms: C5_9  and  C6_10 
REMARK    3  A    between atoms: N2_14  and  C10_15 
REMARK    4  A    between atoms: C10_15  and  C11_16 
REMARK    5  A    between atoms: C12_17  and  C13_18 
REMARK    6  A    between atoms: C16_21  and  C17_22 
REMARK    7  A    between atoms: C20_25  and  C21_26 
REMARK    8  A    between atoms: C21_26  and  C22_27 
REMARK    9  A    between atoms: C22_27  and  C23_28 
REMARK   10  A    between atoms: C23_28  and  N3_29 
REMARK   11  A    between atoms: C26_32  and  C27_33 
REMARK   12  A    between atoms: C27_33  and  N4_34 
REMARK   13  A    between atoms: N4_34  and  O2_36 
ROOT
HETATM    1  C13 UNL     1      80.539  64.230  11.528  1.00  0.00     0.017 A 
HETATM    2  C14 UNL     1      80.269  63.632  10.317  1.00  0.00     0.021 A 
HETATM    3  C15 UNL     1      80.963  62.512   9.903  1.00  0.00     0.013 A 
HETATM    4  C16 UNL     1      81.952  61.942  10.679  1.00  0.00    -0.026 A 
HETATM    5  C32 UNL     1      82.213  62.551  11.893  1.00  0.00     0.013 A 
HETATM    6  C33 UNL     1      81.522  63.673  12.312  1.00  0.00     0.021 A 
ENDROOT
BRANCH   4   7
HETATM    7  C17 UNL     1      82.691  60.759  10.254  1.00  0.00    -0.026 A 
HETATM    8  C18 UNL     1      83.380  60.743   9.054  1.00  0.00     0.013 A 
HETATM    9  C19 UNL     1      84.085  59.626   8.641  1.00  0.00     0.008 A 
HETATM   10  C20 UNL     1      84.135  58.479   9.403  1.00  0.00    -0.058 A 
HETATM   11  C30 UNL     1      83.442  58.501  10.606  1.00  0.00     0.008 A 
HETATM   12  C31 UNL     1      82.739  59.613  11.020  1.00  0.00     0.013 A 
BRANCH  10  13
HETATM   13  C21 UNL     1      84.877  57.265   8.995  1.00  0.00     0.040 C 
BRANCH  13  14
HETATM   14  C22 UNL     1      86.094  56.989   9.814  1.00  0.00     0.025 C 
BRANCH  14  15
HETATM   15  C23 UNL     1      87.051  58.136   9.903  1.00  0.00     0.128 C 
BRANCH  15  16
HETATM   16  N3  UNL     1      86.816  58.914  11.094  1.00  0.00    -0.366 N 
HETATM   17  C24 UNL     1      86.691  58.254  12.252  1.00  0.00     0.091 A 
HETATM   18  C25 UNL     1      86.464  58.959  13.422  1.00  0.00     0.030 A 
HETATM   19  C26 UNL     1      86.359  60.321  13.450  1.00  0.00    -0.016 A 
HETATM   20  C28 UNL     1      86.496  60.969  12.220  1.00  0.00     0.030 A 
HETATM   21  C29 UNL     1      86.720  60.274  11.064  1.00  0.00     0.091 A 
BRANCH  19  22
HETATM   22  C27 UNL     1      86.122  61.126  14.643  1.00  0.00     0.125 C 
BRANCH  22  23
HETATM   23  N4  UNL     1      85.730  60.755  15.772  1.00  0.00    -0.280 N 
ATOM     24  H4  UNL     1      86.003  59.804  16.017  1.00  0.00     0.193 HD
BRANCH  23  25
HETATM   25  O2  UNL     1      85.017  61.379  16.713  1.00  0.00    -0.290 OA
ATOM     26  H2  UNL     1      85.066  61.356  17.662  1.00  0.00     0.244 HD
ENDBRANCH  23  25
ENDBRANCH  22  23
ENDBRANCH  19  22
ENDBRANCH  15  16
ENDBRANCH  14  15
ENDBRANCH  13  14
ENDBRANCH  10  13
ENDBRANCH   4   7
BRANCH   1  27
HETATM   27  C12 UNL     1      79.822  65.392  11.959  1.00  0.00    -0.065 C 
HETATM   28  C11 UNL     1      79.209  66.370  12.346  1.00  0.00    -0.079 C 
BRANCH  28  29
HETATM   29  C10 UNL     1      78.463  67.531  12.830  1.00  0.00     0.242 C 
BRANCH  29  30
HETATM   30  N2  UNL     1      77.459  67.138  13.805  1.00  0.00    -0.292 N 
HETATM   31  C9  UNL     1      76.713  68.030  14.470  1.00  0.00     0.113 A 
HETATM   32  C8  UNL     1      75.877  67.313  15.302  1.00  0.00     0.050 A 
HETATM   33  C7  UNL     1      76.160  65.981  15.101  1.00  0.00     0.050 A 
HETATM   34  C6  UNL     1      75.551  64.835  15.738  1.00  0.00     0.047 C 
HETATM   35  N5  UNL     1      77.132  65.923  14.180  1.00  0.00    -0.298 N 
ATOM     36  H5  UNL     1      77.553  65.065  13.823  1.00  0.00     0.187 HD
BRANCH  34  37
HETATM   37  C5  UNL     1      76.004  64.398  16.907  1.00  0.00     0.026 A 
HETATM   38  C2  UNL     1      77.030  63.493  17.118  1.00  0.00     0.035 A 
HETATM   39  C1  UNL     1      77.738  62.907  16.158  1.00  0.00     0.044 C 
HETATM   40  N1  UNL     1      77.181  63.316  18.444  1.00  0.00    -0.363 N 
HETATM   41  C3  UNL     1      76.287  64.075  19.099  1.00  0.00     0.125 A 
ATOM     42  H1  UNL     1      77.867  62.701  18.883  1.00  0.00     0.165 HD
HETATM   43  C4  UNL     1      75.540  64.762  18.160  1.00  0.00     0.093 A 
BRANCH  43  44
HETATM   44  O1  UNL     1      74.516  65.647  18.473  1.00  0.00    -0.358 OA
ATOM     45  H1  UNL     1      74.235  66.359  17.910  1.00  0.00     0.217 HD
ENDBRANCH  43  44
ENDBRANCH  34  37
ENDBRANCH  29  30
ENDBRANCH  28  29
ENDBRANCH   1  27
TORSDOF 13
ENDMDL
MODEL 2
REMARK VINA RESULT: -7.039754182      5.232      8.589
REMARK  13 active torsions:
REMARK  status: ('A' for Active; 'I' for Inactive)
REMARK    1  A    between atoms: C4_6  and  O1_7 
REMARK    2  A    between atoms: C5_9  and  C6_10 
REMARK    3  A    between atoms: N2_14  and  C10_15 
REMARK    4  A    between atoms: C10_15  and  C11_16 
REMARK    5  A    between atoms: C12_17  and  C13_18 
REMARK    6  A    between atoms: C16_21  and  C17_22 
REMARK    7  A    between atoms: C20_25  and  C21_26 
REMARK    8  A    between atoms: C21_26  and  C22_27 
REMARK    9  A    between atoms: C22_27  and  C23_28 
REMARK   10  A    between atoms: C23_28  and  N3_29 
REMARK   11  A    between atoms: C26_32  and  C27_33 
REMARK   12  A    between atoms: C27_33  and  N4_34 
REMARK   13  A    between atoms: N4_34  and  O2_36 
ROOT
HETATM    1  C13 UNL     1      75.277  63.619  18.987  1.00  0.00     0.017 A 
HETATM    2  C14 UNL     1      76.527  63.050  18.889  1.00  0.00     0.021 A 
HETATM    3  C15 UNL     1      77.224  63.056  17.696  1.00  0.00     0.013 A 
HETATM    4  C16 UNL     1      76.704  63.630  16.554  1.00  0.00    -0.026 A 
HETATM    5  C32 UNL     1      75.448  64.200  16.665  1.00  0.00     0.013 A 
HETATM    6  C33 UNL     1      74.746  64.196  17.856  1.00  0.00     0.021 A 
ENDROOT
BRANCH   4   7
HETATM    7  C17 UNL     1      77.430  63.645  15.289  1.00  0.00    -0.026 A 
HETATM    8  C18 UNL     1      78.639  62.986  15.155  1.00  0.00     0.013 A 
HETATM    9  C19 UNL     1      79.336  62.992  13.960  1.00  0.00     0.008 A 
HETATM   10  C20 UNL     1      78.861  63.654  12.848  1.00  0.00    -0.058 A 
HETATM   11  C30 UNL     1      77.647  64.314  12.989  1.00  0.00     0.008 A 
HETATM   12  C31 UNL     1      76.951  64.309  14.180  1.00  0.00     0.013 A 
BRANCH  10  13
HETATM   13  C21 UNL     1      79.578  63.685  11.554  1.00  0.00     0.040 C 
BRANCH  13  14
HETATM   14  C22 UNL     1      81.065  63.663  11.680  1.00  0.00     0.025 C 
BRANCH  14  15
HETATM   15  C23 UNL     1      81.703  62.382  11.241  1.00  0.00     0.128 C 
BRANCH  15  16
HETATM   16  N3  UNL     1      82.757  61.993  12.144  1.00  0.00    -0.366 N 
HETATM   17  C24 UNL     1      83.503  60.933  11.808  1.00  0.00     0.091 A 
HETATM   18  C25 UNL     1      84.526  60.521  12.646  1.00  0.00     0.030 A 
HETATM   19  C26 UNL     1      84.815  61.157  13.820  1.00  0.00    -0.016 A 
HETATM   20  C28 UNL     1      84.012  62.257  14.131  1.00  0.00     0.030 A 
HETATM   21  C29 UNL     1      83.002  62.665  13.306  1.00  0.00     0.091 A 
BRANCH  19  22
HETATM   22  C27 UNL     1      85.876  60.780  14.747  1.00  0.00     0.125 C 
BRANCH  22  23
HETATM   23  N4  UNL     1      87.075  61.138  14.751  1.00  0.00    -0.280 N 
ATOM     24  H4  UNL     1      87.290  61.871  15.427  1.00  0.00     0.193 HD
BRANCH  23  25
HETATM   25  O2  UNL     1      88.124  60.735  14.030  1.00  0.00    -0.290 OA
ATOM     26  H2  UNL     1      88.629  61.168  13.351  1.00  0.00     0.244 HD
ENDBRANCH  23  25
ENDBRANCH  22  23
ENDBRANCH  19  22
ENDBRANCH  15  16
ENDBRANCH  14  15
ENDBRANCH  13  14
ENDBRANCH  10  13
ENDBRANCH   4   7
BRANCH   1  27
HETATM   27  C12 UNL     1      74.552  63.613  20.221  1.00  0.00    -0.065 C 
HETATM   28  C11 UNL     1      73.946  63.627  21.277  1.00  0.00    -0.079 C 
BRANCH  28  29
HETATM   29  C10 UNL     1      73.237  63.659  22.555  1.00  0.00     0.242 C 
BRANCH  29  30
HETATM   30  N2  UNL     1      72.048  62.825  22.515  1.00  0.00    -0.292 N 
HETATM   31  C9  UNL     1      70.894  63.186  23.091  1.00  0.00     0.113 A 
HETATM   32  C8  UNL     1      69.992  62.168  22.859  1.00  0.00     0.050 A 
HETATM   33  C7  UNL     1      70.655  61.206  22.131  1.00  0.00     0.050 A 
HETATM   34  C6  UNL     1      70.140  59.947  21.641  1.00  0.00     0.047 C 
HETATM   35  N5  UNL     1      71.906  61.650  21.946  1.00  0.00    -0.298 N 
ATOM     36  H5  UNL     1      72.637  61.152  21.439  1.00  0.00     0.187 HD
BRANCH  34  37
HETATM   37  C5  UNL     1      70.149  58.870  22.418  1.00  0.00     0.026 A 
HETATM   38  C2  UNL     1      69.180  58.493  23.331  1.00  0.00     0.035 A 
HETATM   39  C1  UNL     1      68.061  59.167  23.577  1.00  0.00     0.044 C 
HETATM   40  N1  UNL     1      69.564  57.343  23.915  1.00  0.00    -0.363 N 
HETATM   41  C3  UNL     1      70.751  56.962  23.411  1.00  0.00     0.125 A 
ATOM     42  H1  UNL     1      69.037  56.838  24.628  1.00  0.00     0.165 HD
HETATM   43  C4  UNL     1      71.137  57.901  22.473  1.00  0.00     0.093 A 
BRANCH  43  44
HETATM   44  O1  UNL     1      72.318  57.836  21.744  1.00  0.00    -0.358 OA
ATOM     45  H1  UNL     1      73.179  58.002  22.107  1.00  0.00     0.217 HD
ENDBRANCH  43  44
ENDBRANCH  34  37
ENDBRANCH  29  30
ENDBRANCH  28  29
ENDBRANCH   1  27
TORSDOF 13
ENDMDL
MODEL 3
REMARK VINA RESULT: -6.936595601      2.569      3.020
REMARK  13 active torsions:
REMARK  status: ('A' for Active; 'I' for Inactive)
REMARK    1  A    between atoms: C4_6  and  O1_7 
REMARK    2  A    between atoms: C5_9  and  C6_10 
REMARK    3  A    between atoms: N2_14  and  C10_15 
REMARK    4  A    between atoms: C10_15  and  C11_16 
REMARK    5  A    between atoms: C12_17  and  C13_18 
REMARK    6  A    between atoms: C16_21  and  C17_22 
REMARK    7  A    between atoms: C20_25  and  C21_26 
REMARK    8  A    between atoms: C21_26  and  C22_27 
REMARK    9  A    between atoms: C22_27  and  C23_28 
REMARK   10  A    between atoms: C23_28  and  N3_29 
REMARK   11  A    between atoms: C26_32  and  C27_33 
REMARK   12  A    between atoms: C27_33  and  N4_34 
REMARK   13  A    between atoms: N4_34  and  O2_36 
ROOT
HETATM    1  C13 UNL     1      81.295  63.942  12.204  1.00  0.00     0.017 A 
HETATM    2  C14 UNL     1      81.283  63.129  11.092  1.00  0.00     0.021 A 
HETATM    3  C15 UNL     1      82.095  62.014  11.014  1.00  0.00     0.013 A 
HETATM    4  C16 UNL     1      82.951  61.666  12.038  1.00  0.00    -0.026 A 
HETATM    5  C32 UNL     1      82.954  62.490  13.149  1.00  0.00     0.013 A 
HETATM    6  C33 UNL     1      82.144  63.607  13.234  1.00  0.00     0.021 A 
ENDROOT
BRANCH   4   7
HETATM    7  C17 UNL     1      83.813  60.492  11.968  1.00  0.00    -0.026 A 
HETATM    8  C18 UNL     1      83.601  59.509  11.018  1.00  0.00     0.013 A 
HETATM    9  C19 UNL     1      84.412  58.391  10.942  1.00  0.00     0.008 A 
HETATM   10  C20 UNL     1      85.470  58.202  11.807  1.00  0.00    -0.058 A 
HETATM   11  C30 UNL     1      85.677  59.192  12.759  1.00  0.00     0.008 A 
HETATM   12  C31 UNL     1      84.869  60.308  12.836  1.00  0.00     0.013 A 
BRANCH  10  13
HETATM   13  C21 UNL     1      86.358  57.020  11.758  1.00  0.00     0.040 C 
BRANCH  13  14
HETATM   14  C22 UNL     1      87.053  56.832  10.450  1.00  0.00     0.025 C 
BRANCH  14  15
HETATM   15  C23 UNL     1      88.098  57.861  10.154  1.00  0.00     0.128 C 
BRANCH  15  16
HETATM   16  N3  UNL     1      89.190  57.774  11.091  1.00  0.00    -0.366 N 
HETATM   17  C24 UNL     1      89.884  56.630  11.131  1.00  0.00     0.091 A 
HETATM   18  C25 UNL     1      90.942  56.499  12.017  1.00  0.00     0.030 A 
HETATM   19  C26 UNL     1      91.316  57.501  12.866  1.00  0.00    -0.016 A 
HETATM   20  C28 UNL     1      90.565  58.677  12.792  1.00  0.00     0.030 A 
HETATM   21  C29 UNL     1      89.521  58.807  11.918  1.00  0.00     0.091 A 
BRANCH  19  22
HETATM   22  C27 UNL     1      92.416  57.433  13.821  1.00  0.00     0.125 C 
BRANCH  22  23
HETATM   23  N4  UNL     1      92.776  58.289  14.661  1.00  0.00    -0.280 N 
ATOM     24  H4  UNL     1      93.218  59.113  14.254  1.00  0.00     0.193 HD
BRANCH  23  25
HETATM   25  O2  UNL     1      92.688  58.317  15.993  1.00  0.00    -0.290 OA
ATOM     26  H2  UNL     1      92.140  58.825  16.580  1.00  0.00     0.244 HD
ENDBRANCH  23  25
ENDBRANCH  22  23
ENDBRANCH  19  22
ENDBRANCH  15  16
ENDBRANCH  14  15
ENDBRANCH  13  14
ENDBRANCH  10  13
ENDBRANCH   4   7
BRANCH   1  27
HETATM   27  C12 UNL     1      80.455  65.098  12.288  1.00  0.00    -0.065 C 
HETATM   28  C11 UNL     1      79.726  66.070  12.372  1.00  0.00    -0.079 C 
BRANCH  28  29
HETATM   29  C10 UNL     1      78.831  67.221  12.481  1.00  0.00     0.242 C 
BRANCH  29  30
HETATM   30  N2  UNL     1      77.795  66.986  13.472  1.00  0.00    -0.292 N 
HETATM   31  C9  UNL     1      77.189  67.982  14.131  1.00  0.00     0.113 A 
HETATM   32  C8  UNL     1      76.271  67.401  14.983  1.00  0.00     0.050 A 
HETATM   33  C7  UNL     1      76.362  66.040  14.799  1.00  0.00     0.050 A 
HETATM   34  C6  UNL     1      75.607  64.999  15.459  1.00  0.00     0.047 C 
HETATM   35  N5  UNL     1      77.305  65.834  13.868  1.00  0.00    -0.298 N 
ATOM     36  H5  UNL     1      77.597  64.921  13.520  1.00  0.00     0.187 HD
BRANCH  34  37
HETATM   37  C5  UNL     1      76.009  64.518  16.630  1.00  0.00     0.026 A 
HETATM   38  C2  UNL     1      76.978  63.554  16.846  1.00  0.00     0.035 A 
HETATM   39  C1  UNL     1      77.673  62.944  15.891  1.00  0.00     0.044 C 
HETATM   40  N1  UNL     1      77.089  63.346  18.172  1.00  0.00    -0.363 N 
HETATM   41  C3  UNL     1      76.225  64.145  18.821  1.00  0.00     0.125 A 
ATOM     42  H1  UNL     1      77.730  62.687  18.614  1.00  0.00     0.165 HD
HETATM   43  C4  UNL     1      75.538  64.887  17.879  1.00  0.00     0.093 A 
BRANCH  43  44
HETATM   44  O1  UNL     1      74.559  65.824  18.186  1.00  0.00    -0.358 OA
ATOM     45  H1  UNL     1      74.202  66.446  17.563  1.00  0.00     0.217 HD
ENDBRANCH  43  44
ENDBRANCH  34  37
ENDBRANCH  29  30
ENDBRANCH  28  29
ENDBRANCH   1  27
TORSDOF 13
ENDMDL
MODEL 4
REMARK VINA RESULT: -6.927702470      2.566      2.936
REMARK  13 active torsions:
REMARK  status: ('A' for Active; 'I' for Inactive)
REMARK    1  A    between atoms: C4_6  and  O1_7 
REMARK    2  A    between atoms: C5_9  and  C6_10 
REMARK    3  A    between atoms: N2_14  and  C10_15 
REMARK    4  A    between atoms: C10_15  and  C11_16 
REMARK    5  A    between atoms: C12_17  and  C13_18 
REMARK    6  A    between atoms: C16_21  and  C17_22 
REMARK    7  A    between atoms: C20_25  and  C21_26 
REMARK    8  A    between atoms: C21_26  and  C22_27 
REMARK    9  A    between atoms: C22_27  and  C23_28 
REMARK   10  A    between atoms: C23_28  and  N3_29 
REMARK   11  A    between atoms: C26_32  and  C27_33 
REMARK   12  A    between atoms: C27_33  and  N4_34 
REMARK   13  A    between atoms: N4_34  and  O2_36 
ROOT
HETATM    1  C13 UNL     1      81.408  63.795  12.225  1.00  0.00     0.017 A 
HETATM    2  C14 UNL     1      82.315  63.456  13.204  1.00  0.00     0.021 A 
HETATM    3  C15 UNL     1      83.128  62.347  13.073  1.00  0.00     0.013 A 
HETATM    4  C16 UNL     1      83.071  61.532  11.960  1.00  0.00    -0.026 A 
HETATM    5  C32 UNL     1      82.157  61.884  10.983  1.00  0.00     0.013 A 
HETATM    6  C33 UNL     1      81.341  62.992  11.109  1.00  0.00     0.021 A 
ENDROOT
BRANCH   4   7
HETATM    7  C17 UNL     1      83.924  60.359  11.808  1.00  0.00    -0.026 A 
HETATM    8  C18 UNL     1      83.981  59.672  10.609  1.00  0.00     0.013 A 
HETATM    9  C19 UNL     1      84.786  58.558  10.453  1.00  0.00     0.008 A 
HETATM   10  C20 UNL     1      85.570  58.080  11.483  1.00  0.00    -0.058 A 
HETATM   11  C30 UNL     1      85.508  58.774  12.684  1.00  0.00     0.008 A 
HETATM   12  C31 UNL     1      84.705  59.885  12.841  1.00  0.00     0.013 A 
BRANCH  10  13
HETATM   13  C21 UNL     1      86.442  56.892  11.355  1.00  0.00     0.040 C 
BRANCH  13  14
HETATM   14  C22 UNL     1      87.893  57.175  11.565  1.00  0.00     0.025 C 
BRANCH  14  15
HETATM   15  C23 UNL     1      88.482  58.141  10.584  1.00  0.00     0.128 C 
BRANCH  15  16
HETATM   16  N3  UNL     1      89.454  58.995  11.220  1.00  0.00    -0.366 N 
HETATM   17  C24 UNL     1      88.998  60.032  11.933  1.00  0.00     0.091 A 
HETATM   18  C25 UNL     1      89.895  60.880  12.561  1.00  0.00     0.030 A 
HETATM   19  C26 UNL     1      91.247  60.705  12.485  1.00  0.00    -0.016 A 
HETATM   20  C28 UNL     1      91.680  59.611  11.731  1.00  0.00     0.030 A 
HETATM   21  C29 UNL     1      90.795  58.773  11.110  1.00  0.00     0.091 A 
BRANCH  19  22
HETATM   22  C27 UNL     1      92.247  61.556  13.120  1.00  0.00     0.125 C 
BRANCH  22  23
HETATM   23  N4  UNL     1      92.529  61.659  14.335  1.00  0.00    -0.280 N 
ATOM     24  H4  UNL     1      92.914  60.810  14.748  1.00  0.00     0.193 HD
BRANCH  23  25
HETATM   25  O2  UNL     1      92.416  62.679  15.189  1.00  0.00    -0.290 OA
ATOM     26  H2  UNL     1      91.936  62.770  16.005  1.00  0.00     0.244 HD
ENDBRANCH  23  25
ENDBRANCH  22  23
ENDBRANCH  19  22
ENDBRANCH  15  16
ENDBRANCH  14  15
ENDBRANCH  13  14
ENDBRANCH  10  13
ENDBRANCH   4   7
BRANCH   1  27
HETATM   27  C12 UNL     1      80.564  64.944  12.358  1.00  0.00    -0.065 C 
HETATM   28  C11 UNL     1      79.858  65.930  12.456  1.00  0.00    -0.079 C 
BRANCH  28  29
HETATM   29  C10 UNL     1      79.027  67.129  12.560  1.00  0.00     0.242 C 
BRANCH  29  30
HETATM   30  N2  UNL     1      77.928  66.925  13.489  1.00  0.00    -0.292 N 
HETATM   31  C9  UNL     1      77.270  67.942  14.060  1.00  0.00     0.113 A 
HETATM   32  C8  UNL     1      76.303  67.388  14.874  1.00  0.00     0.050 A 
HETATM   33  C7  UNL     1      76.419  66.021  14.759  1.00  0.00     0.050 A 
HETATM   34  C6  UNL     1      75.632  65.002  15.415  1.00  0.00     0.047 C 
HETATM   35  N5  UNL     1      77.424  65.786  13.904  1.00  0.00    -0.298 N 
ATOM     36  H5  UNL     1      77.749  64.862  13.619  1.00  0.00     0.187 HD
BRANCH  34  37
HETATM   37  C5  UNL     1      75.959  64.579  16.630  1.00  0.00     0.026 A 
HETATM   38  C2  UNL     1      76.880  63.597  16.952  1.00  0.00     0.035 A 
HETATM   39  C1  UNL     1      77.597  62.907  16.070  1.00  0.00     0.044 C 
HETATM   40  N1  UNL     1      76.919  63.467  18.291  1.00  0.00    -0.363 N 
HETATM   41  C3  UNL     1      76.055  64.332  18.848  1.00  0.00     0.125 A 
ATOM     42  H1  UNL     1      77.513  62.814  18.803  1.00  0.00     0.165 HD
HETATM   43  C4  UNL     1      75.443  65.039  17.830  1.00  0.00     0.093 A 
BRANCH  43  44
HETATM   44  O1  UNL     1      74.485  66.026  18.031  1.00  0.00    -0.358 OA
ATOM     45  H1  UNL     1      74.646  66.955  17.923  1.00  0.00     0.217 HD
ENDBRANCH  43  44
ENDBRANCH  34  37
ENDBRANCH  29  30
ENDBRANCH  28  29
ENDBRANCH   1  27
TORSDOF 13
ENDMDL
MODEL 5
REMARK VINA RESULT: -6.834267347      3.670      4.538
REMARK  13 active torsions:
REMARK  status: ('A' for Active; 'I' for Inactive)
REMARK    1  A    between atoms: C4_6  and  O1_7 
REMARK    2  A    between atoms: C5_9  and  C6_10 
REMARK    3  A    between atoms: N2_14  and  C10_15 
REMARK    4  A    between atoms: C10_15  and  C11_16 
REMARK    5  A    between atoms: C12_17  and  C13_18 
REMARK    6  A    between atoms: C16_21  and  C17_22 
REMARK    7  A    between atoms: C20_25  and  C21_26 
REMARK    8  A    between atoms: C21_26  and  C22_27 
REMARK    9  A    between atoms: C22_27  and  C23_28 
REMARK   10  A    between atoms: C23_28  and  N3_29 
REMARK   11  A    between atoms: C26_32  and  C27_33 
REMARK   12  A    between atoms: C27_33  and  N4_34 
REMARK   13  A    between atoms: N4_34  and  O2_36 
ROOT
HETATM    1  C13 UNL     1      81.660  62.706  13.254  1.00  0.00     0.017 A 
HETATM    2  C14 UNL     1      81.928  62.024  12.088  1.00  0.00     0.021 A 
HETATM    3  C15 UNL     1      83.126  61.363  11.906  1.00  0.00     0.013 A 
HETATM    4  C16 UNL     1      84.106  61.354  12.878  1.00  0.00    -0.026 A 
HETATM    5  C32 UNL     1      83.825  62.042  14.046  1.00  0.00     0.013 A 
HETATM    6  C33 UNL     1      82.627  62.706  14.233  1.00  0.00     0.021 A 
ENDROOT
BRANCH   4   7
HETATM    7  C17 UNL     1      85.375  60.658  12.700  1.00  0.00    -0.026 A 
HETATM    8  C18 UNL     1      86.220  60.433  13.772  1.00  0.00     0.013 A 
HETATM    9  C19 UNL     1      87.427  59.775  13.615  1.00  0.00     0.008 A 
HETATM   10  C20 UNL     1      87.844  59.312  12.385  1.00  0.00    -0.058 A 
HETATM   11  C30 UNL     1      86.992  59.541  11.313  1.00  0.00     0.008 A 
HETATM   12  C31 UNL     1      85.788  60.198  11.467  1.00  0.00     0.013 A 
BRANCH  10  13
HETATM   13  C21 UNL     1      89.127  58.605  12.176  1.00  0.00     0.040 C 
BRANCH  13  14
HETATM   14  C22 UNL     1      89.746  58.845  10.839  1.00  0.00     0.025 C 
BRANCH  14  15
HETATM   15  C23 UNL     1      91.241  58.757  10.826  1.00  0.00     0.128 C 
BRANCH  15  16
HETATM   16  N3  UNL     1      91.832  59.893  11.489  1.00  0.00    -0.366 N 
HETATM   17  C24 UNL     1      92.691  59.651  12.487  1.00  0.00     0.091 A 
HETATM   18  C25 UNL     1      93.284  60.711  13.154  1.00  0.00     0.030 A 
HETATM   19  C26 UNL     1      93.026  62.014  12.836  1.00  0.00    -0.016 A 
HETATM   20  C28 UNL     1      92.123  62.221  11.790  1.00  0.00     0.030 A 
HETATM   21  C29 UNL     1      91.538  61.175  11.131  1.00  0.00     0.091 A 
BRANCH  19  22
HETATM   22  C27 UNL     1      93.613  63.176  13.494  1.00  0.00     0.125 C 
BRANCH  22  23
HETATM   23  N4  UNL     1      93.269  63.725  14.565  1.00  0.00    -0.280 N 
ATOM     24  H4  UNL     1      93.647  64.664  14.693  1.00  0.00     0.193 HD
BRANCH  23  25
HETATM   25  O2  UNL     1      92.498  63.303  15.571  1.00  0.00    -0.290 OA
ATOM     26  H2  UNL     1      92.210  62.434  15.824  1.00  0.00     0.244 HD
ENDBRANCH  23  25
ENDBRANCH  22  23
ENDBRANCH  19  22
ENDBRANCH  15  16
ENDBRANCH  14  15
ENDBRANCH  13  14
ENDBRANCH  10  13
ENDBRANCH   4   7
BRANCH   1  27
HETATM   27  C12 UNL     1      80.418  63.394  13.445  1.00  0.00    -0.065 C 
HETATM   28  C11 UNL     1      79.361  63.980  13.586  1.00  0.00    -0.079 C 
BRANCH  28  29
HETATM   29  C10 UNL     1      78.092  64.692  13.730  1.00  0.00     0.242 C 
BRANCH  29  30
HETATM   30  N2  UNL     1      77.209  64.006  14.659  1.00  0.00    -0.292 N 
HETATM   31  C9  UNL     1      75.941  63.702  14.356  1.00  0.00     0.113 A 
HETATM   32  C8  UNL     1      75.406  63.063  15.457  1.00  0.00     0.050 A 
HETATM   33  C7  UNL     1      76.402  63.005  16.406  1.00  0.00     0.050 A 
HETATM   34  C6  UNL     1      76.337  62.431  17.731  1.00  0.00     0.047 C 
HETATM   35  N5  UNL     1      77.483  63.593  15.875  1.00  0.00    -0.298 N 
ATOM     36  H5  UNL     1      78.382  63.703  16.344  1.00  0.00     0.187 HD
BRANCH  34  37
HETATM   37  C5  UNL     1      75.883  63.148  18.752  1.00  0.00     0.026 A 
HETATM   38  C2  UNL     1      74.560  63.364  19.097  1.00  0.00     0.035 A 
HETATM   39  C1  UNL     1      73.512  62.873  18.442  1.00  0.00     0.044 C 
HETATM   40  N1  UNL     1      74.523  64.145  20.193  1.00  0.00    -0.363 N 
HETATM   41  C3  UNL     1      75.778  64.443  20.569  1.00  0.00     0.125 A 
ATOM     42  H1  UNL     1      73.675  64.462  20.664  1.00  0.00     0.165 HD
HETATM   43  C4  UNL     1      76.646  63.831  19.684  1.00  0.00     0.093 A 
BRANCH  43  44
HETATM   44  O1  UNL     1      78.031  63.919  19.762  1.00  0.00    -0.358 OA
ATOM     45  H1  UNL     1      78.499  64.661  20.127  1.00  0.00     0.217 HD
ENDBRANCH  43  44
ENDBRANCH  34  37
ENDBRANCH  29  30
ENDBRANCH  28  29
ENDBRANCH   1  27
TORSDOF 13
ENDMDL
