MODEL 1
REMARK VINA RESULT: -6.272940341      0.000      0.000
REMARK  5 active torsions:
REMARK  status: ('A' for Active; 'I' for Inactive)
REMARK    1  A    between atoms: C2_2  and  C3_3 
REMARK    2  A    between atoms: C3_3  and  N1_4 
REMARK    3  A    between atoms: N1_4  and  C5_6 
REMARK    4  A    between atoms: C5_6  and  C6_7 
REMARK    5  A    between atoms: C6_7  and  N2_8 
ROOT
HETATM    1  N2  UNL     1      24.154 -15.279   7.569  1.00  0.00    -0.223 N 
ATOM      2  H2  UNL     1      23.252 -15.098   7.129  1.00  0.00     0.177 HD
HETATM    3  C7  UNL     1      24.969 -14.335   7.443  1.00  0.00     0.693 A 
HETATM    4  N3  UNL     1      26.244 -14.138   7.853  1.00  0.00    -0.185 N 
ATOM      5  H3  UNL     1      26.789 -14.813   8.389  1.00  0.00     0.185 HD
HETATM    6  C8  UNL     1      26.697 -12.937   7.459  1.00  0.00     0.215 A 
HETATM    7  N4  UNL     1      25.692 -12.361   6.788  1.00  0.00    -0.281 N 
ATOM      8  H4  UNL     1      25.721 -11.436   6.359  1.00  0.00     0.188 HD
HETATM    9  N5  UNL     1      24.658 -13.181   6.771  1.00  0.00    -0.131 N 
ATOM     10  H5  UNL     1      23.762 -12.984   6.324  1.00  0.00     0.205 HD
ENDROOT
BRANCH   1  11
HETATM   11  C6  UNL     1      24.230 -16.544   8.198  1.00  0.00     0.157 C 
BRANCH  11  12
HETATM   12  C5  UNL     1      22.935 -17.272   8.197  1.00  0.00     0.136 C 
BRANCH  12  13
HETATM   13  N1  UNL     1      22.434 -17.633   6.916  1.00  0.00    -0.412 N 
HETATM   14  C4  UNL     1      22.548 -19.011   6.576  1.00  0.00     0.143 C 
BRANCH  13  15
HETATM   15  C3  UNL     1      21.224 -17.008   6.507  1.00  0.00     0.143 C 
BRANCH  15  16
HETATM   16  C2  UNL     1      21.366 -15.935   5.512  1.00  0.00    -0.018 C 
HETATM   17  C1  UNL     1      22.312 -15.882   4.601  1.00  0.00     0.008 C 
ENDBRANCH  15  16
ENDBRANCH  13  15
ENDBRANCH  12  13
ENDBRANCH  11  12
ENDBRANCH   1  11
TORSDOF 5
ENDMDL
MODEL 2
REMARK VINA RESULT: -6.250494017      1.523      2.304
REMARK  5 active torsions:
REMARK  status: ('A' for Active; 'I' for Inactive)
REMARK    1  A    between atoms: C2_2  and  C3_3 
REMARK    2  A    between atoms: C3_3  and  N1_4 
REMARK    3  A    between atoms: N1_4  and  C5_6 
REMARK    4  A    between atoms: C5_6  and  C6_7 
REMARK    5  A    between atoms: C6_7  and  N2_8 
ROOT
HETATM    1  N2  UNL     1      24.172 -14.213   6.695  1.00  0.00    -0.223 N 
ATOM      2  H2  UNL     1      23.605 -13.612   6.097  1.00  0.00     0.177 HD
HETATM    3  C7  UNL     1      25.224 -13.663   7.098  1.00  0.00     0.693 A 
HETATM    4  N3  UNL     1      26.247 -14.066   7.889  1.00  0.00    -0.185 N 
ATOM      5  H3  UNL     1      26.314 -14.986   8.323  1.00  0.00     0.185 HD
HETATM    6  C8  UNL     1      27.162 -13.093   8.026  1.00  0.00     0.215 A 
HETATM    7  N4  UNL     1      26.714 -12.055   7.310  1.00  0.00    -0.281 N 
ATOM      8  H4  UNL     1      27.186 -11.156   7.211  1.00  0.00     0.188 HD
HETATM    9  N5  UNL     1      25.562 -12.380   6.753  1.00  0.00    -0.131 N 
ATOM     10  H5  UNL     1      25.007 -11.767   6.155  1.00  0.00     0.205 HD
ENDROOT
BRANCH   1  11
HETATM   11  C6  UNL     1      23.612 -15.495   6.901  1.00  0.00     0.157 C 
BRANCH  11  12
HETATM   12  C5  UNL     1      22.240 -15.445   7.467  1.00  0.00     0.136 C 
BRANCH  12  13
HETATM   13  N1  UNL     1      21.188 -15.736   6.555  1.00  0.00    -0.412 N 
HETATM   14  C4  UNL     1      21.597 -16.155   5.256  1.00  0.00     0.143 C 
BRANCH  13  15
HETATM   15  C3  UNL     1      20.060 -16.422   7.083  1.00  0.00     0.143 C 
BRANCH  15  16
HETATM   16  C2  UNL     1      20.361 -17.583   7.933  1.00  0.00    -0.018 C 
HETATM   17  C1  UNL     1      19.523 -18.564   8.182  1.00  0.00     0.008 C 
ENDBRANCH  15  16
ENDBRANCH  13  15
ENDBRANCH  12  13
ENDBRANCH  11  12
ENDBRANCH   1  11
TORSDOF 5
ENDMDL
MODEL 3
REMARK VINA RESULT: -6.147329903      0.720      1.079
REMARK  5 active torsions:
REMARK  status: ('A' for Active; 'I' for Inactive)
REMARK    1  A    between atoms: C2_2  and  C3_3 
REMARK    2  A    between atoms: C3_3  and  N1_4 
REMARK    3  A    between atoms: N1_4  and  C5_6 
REMARK    4  A    between atoms: C5_6  and  C6_7 
REMARK    5  A    between atoms: C6_7  and  N2_8 
ROOT
HETATM    1  N2  UNL     1      23.974 -15.245   7.566  1.00  0.00    -0.223 N 
ATOM      2  H2  UNL     1      23.084 -15.008   7.127  1.00  0.00     0.177 HD
HETATM    3  C7  UNL     1      24.844 -14.352   7.440  1.00  0.00     0.693 A 
HETATM    4  N3  UNL     1      26.130 -14.233   7.848  1.00  0.00    -0.185 N 
ATOM      5  H3  UNL     1      26.634 -14.941   8.383  1.00  0.00     0.185 HD
HETATM    6  C8  UNL     1      26.654 -13.061   7.456  1.00  0.00     0.215 A 
HETATM    7  N4  UNL     1      25.685 -12.423   6.787  1.00  0.00    -0.281 N 
ATOM      8  H4  UNL     1      25.770 -11.501   6.360  1.00  0.00     0.188 HD
HETATM    9  N5  UNL     1      24.603 -13.179   6.770  1.00  0.00    -0.131 N 
ATOM     10  H5  UNL     1      23.720 -12.928   6.325  1.00  0.00     0.205 HD
ENDROOT
BRANCH   1  11
HETATM   11  C6  UNL     1      23.974 -16.513   8.192  1.00  0.00     0.157 C 
BRANCH  11  12
HETATM   12  C5  UNL     1      23.067 -17.487   7.532  1.00  0.00     0.136 C 
BRANCH  12  13
HETATM   13  N1  UNL     1      21.678 -17.196   7.630  1.00  0.00    -0.412 N 
HETATM   14  C4  UNL     1      21.216 -16.827   8.927  1.00  0.00     0.143 C 
BRANCH  13  15
HETATM   15  C3  UNL     1      21.104 -16.465   6.554  1.00  0.00     0.143 C 
BRANCH  15  16
HETATM   16  C2  UNL     1      21.750 -16.645   5.246  1.00  0.00    -0.018 C 
HETATM   17  C1  UNL     1      22.192 -15.665   4.490  1.00  0.00     0.008 C 
ENDBRANCH  15  16
ENDBRANCH  13  15
ENDBRANCH  12  13
ENDBRANCH  11  12
ENDBRANCH   1  11
TORSDOF 5
ENDMDL
MODEL 4
REMARK VINA RESULT: -6.134141115      1.479      2.555
REMARK  5 active torsions:
REMARK  status: ('A' for Active; 'I' for Inactive)
REMARK    1  A    between atoms: C2_2  and  C3_3 
REMARK    2  A    between atoms: C3_3  and  N1_4 
REMARK    3  A    between atoms: N1_4  and  C5_6 
REMARK    4  A    between atoms: C5_6  and  C6_7 
REMARK    5  A    between atoms: C6_7  and  N2_8 
ROOT
HETATM    1  N2  UNL     1      24.180 -14.330   6.724  1.00  0.00    -0.223 N 
ATOM      2  H2  UNL     1      23.579 -13.771   6.117  1.00  0.00     0.177 HD
HETATM    3  C7  UNL     1      25.210 -13.724   7.100  1.00  0.00     0.693 A 
HETATM    4  N3  UNL     1      26.259 -14.060   7.888  1.00  0.00    -0.185 N 
ATOM      5  H3  UNL     1      26.371 -14.965   8.345  1.00  0.00     0.185 HD
HETATM    6  C8  UNL     1      27.131 -13.044   7.990  1.00  0.00     0.215 A 
HETATM    7  N4  UNL     1      26.628 -12.045   7.254  1.00  0.00    -0.281 N 
ATOM      8  H4  UNL     1      27.058 -11.130   7.128  1.00  0.00     0.188 HD
HETATM    9  N5  UNL     1      25.486 -12.436   6.719  1.00  0.00    -0.131 N 
ATOM     10  H5  UNL     1      24.897 -11.864   6.113  1.00  0.00     0.205 HD
ENDROOT
BRANCH   1  11
HETATM   11  C6  UNL     1      23.680 -15.631   6.967  1.00  0.00     0.157 C 
BRANCH  11  12
HETATM   12  C5  UNL     1      22.367 -15.879   6.320  1.00  0.00     0.136 C 
BRANCH  12  13
HETATM   13  N1  UNL     1      21.265 -16.037   7.207  1.00  0.00    -0.412 N 
HETATM   14  C4  UNL     1      20.020 -15.525   6.740  1.00  0.00     0.143 C 
BRANCH  13  15
HETATM   15  C3  UNL     1      21.186 -17.271   7.908  1.00  0.00     0.143 C 
BRANCH  15  16
HETATM   16  C2  UNL     1      21.186 -17.170   9.375  1.00  0.00    -0.018 C 
HETATM   17  C1  UNL     1      21.663 -16.151  10.054  1.00  0.00     0.008 C 
ENDBRANCH  15  16
ENDBRANCH  13  15
ENDBRANCH  12  13
ENDBRANCH  11  12
ENDBRANCH   1  11
TORSDOF 5
ENDMDL
MODEL 5
REMARK VINA RESULT: -6.132058828      1.103      2.199
REMARK  5 active torsions:
REMARK  status: ('A' for Active; 'I' for Inactive)
REMARK    1  A    between atoms: C2_2  and  C3_3 
REMARK    2  A    between atoms: C3_3  and  N1_4 
REMARK    3  A    between atoms: N1_4  and  C5_6 
REMARK    4  A    between atoms: C5_6  and  C6_7 
REMARK    5  A    between atoms: C6_7  and  N2_8 
ROOT
HETATM    1  N2  UNL     1      24.237 -14.389   6.846  1.00  0.00    -0.223 N 
ATOM      2  H2  UNL     1      23.590 -13.879   6.244  1.00  0.00     0.177 HD
HETATM    3  C7  UNL     1      25.257 -13.729   7.153  1.00  0.00     0.693 A 
HETATM    4  N3  UNL     1      26.350 -13.992   7.909  1.00  0.00    -0.185 N 
ATOM      5  H3  UNL     1      26.517 -14.872   8.395  1.00  0.00     0.185 HD
HETATM    6  C8  UNL     1      27.184 -12.940   7.932  1.00  0.00     0.215 A 
HETATM    7  N4  UNL     1      26.611 -11.992   7.180  1.00  0.00    -0.281 N 
ATOM      8  H4  UNL     1      26.999 -11.067   6.999  1.00  0.00     0.188 HD
HETATM    9  N5  UNL     1      25.465 -12.448   6.710  1.00  0.00    -0.131 N 
ATOM     10  H5  UNL     1      24.829 -11.925   6.108  1.00  0.00     0.205 HD
ENDROOT
BRANCH   1  11
HETATM   11  C6  UNL     1      23.800 -15.697   7.162  1.00  0.00     0.157 C 
BRANCH  11  12
HETATM   12  C5  UNL     1      22.329 -15.861   7.048  1.00  0.00     0.136 C 
BRANCH  12  13
HETATM   13  N1  UNL     1      21.879 -16.599   5.918  1.00  0.00    -0.412 N 
HETATM   14  C4  UNL     1      21.738 -15.854   4.712  1.00  0.00     0.143 C 
BRANCH  13  15
HETATM   15  C3  UNL     1      22.411 -17.908   5.761  1.00  0.00     0.143 C 
BRANCH  15  16
HETATM   16  C2  UNL     1      22.134 -18.844   6.861  1.00  0.00    -0.018 C 
HETATM   17  C1  UNL     1      23.040 -19.591   7.451  1.00  0.00     0.008 C 
ENDBRANCH  15  16
ENDBRANCH  13  15
ENDBRANCH  12  13
ENDBRANCH  11  12
ENDBRANCH   1  11
TORSDOF 5
ENDMDL
