MODEL 1
REMARK VINA RESULT: -5.791499387      0.000      0.000
REMARK  9 active torsions:
REMARK  status: ('A' for Active; 'I' for Inactive)
REMARK    1  A    between atoms: N1_1  and  C1_5 
REMARK    2  A    between atoms: C1_5  and  C2_6 
REMARK    3  A    between atoms: C2_6  and  C3_7 
REMARK    4  A    between atoms: C3_7  and  C4_8 
REMARK    5  A    between atoms: C4_8  and  C5_9 
REMARK    6  A    between atoms: C5_9  and  C6_10 
REMARK    7  A    between atoms: C6_10  and  N2_11 
REMARK    8  A    between atoms: N2_11  and  C7_13 
REMARK    9  A    between atoms: C9_17  and  C10_18 
ROOT
HETATM    1  C7  UNL     1      -5.929   6.436   9.291  1.00  0.00     0.669 C 
HETATM    2  N3  UNL     1      -5.929   7.634   9.706  1.00  0.00    -0.226 N 
ATOM      3  H3  UNL     1      -5.137   7.929  10.278  1.00  0.00     0.177 HD
HETATM    4  C8  UNL     1      -6.947   8.612   9.442  1.00  0.00     0.144 C 
HETATM    5  C9  UNL     1      -8.050   8.197   8.535  1.00  0.00     0.026 C 
HETATM    6  C16 UNL     1      -7.618   7.052   7.652  1.00  0.00     0.144 C 
HETATM    7  N4  UNL     1      -7.035   6.017   8.491  1.00  0.00    -0.226 N 
ATOM      8  H4  UNL     1      -7.391   5.062   8.506  1.00  0.00     0.177 HD
ENDROOT
BRANCH   1   9
HETATM    9  N2  UNL     1      -4.870   5.538   9.603  1.00  0.00    -0.227 N 
ATOM     10  H2  UNL     1      -4.799   4.684   9.050  1.00  0.00     0.177 HD
BRANCH   9  11
HETATM   11  C6  UNL     1      -3.894   5.741  10.638  1.00  0.00     0.138 C 
BRANCH  11  12
HETATM   12  C5  UNL     1      -4.329   5.124  11.930  1.00  0.00     0.020 C 
BRANCH  12  13
HETATM   13  C4  UNL     1      -4.797   6.148  12.908  1.00  0.00     0.002 C 
BRANCH  13  14
HETATM   14  C3  UNL     1      -4.403   5.801  14.333  1.00  0.00     0.002 C 
BRANCH  14  15
HETATM   15  C2  UNL     1      -3.407   4.701  14.453  1.00  0.00     0.027 C 
BRANCH  15  16
HETATM   16  C1  UNL     1      -1.991   5.154  14.649  1.00  0.00     0.229 C 
BRANCH  16  17
HETATM   17  N1  UNL     1      -1.297   4.150  15.433  1.00  0.00    -0.079 N 
ATOM     18  H13 UNL     1      -0.715   4.555  16.165  1.00  0.00     0.274 HD
ATOM     19  H12 UNL     1      -1.926   3.618  16.035  1.00  0.00     0.274 HD
ATOM     20  H11 UNL     1      -0.769   3.556  14.794  1.00  0.00     0.274 HD
ENDBRANCH  16  17
ENDBRANCH  15  16
ENDBRANCH  14  15
ENDBRANCH  13  14
ENDBRANCH  12  13
ENDBRANCH  11  12
ENDBRANCH   9  11
ENDBRANCH   1   9
BRANCH   5  21
HETATM   21  C10 UNL     1      -8.480   9.384   7.701  1.00  0.00    -0.007 C 
HETATM   22  C11 UNL     1      -9.974   9.435   7.646  1.00  0.00     0.005 C 
HETATM   23  C12 UNL     1     -10.389  10.708   6.897  1.00  0.00     0.000 C 
HETATM   24  C13 UNL     1      -9.939  10.532   5.472  1.00  0.00     0.000 C 
HETATM   25  C14 UNL     1      -8.407  10.490   5.493  1.00  0.00     0.000 C 
HETATM   26  C15 UNL     1      -7.923   9.340   6.310  1.00  0.00     0.005 C 
ENDBRANCH   5  21
TORSDOF 9
ENDMDL
MODEL 2
REMARK VINA RESULT: -5.722233703      0.898      1.379
REMARK  9 active torsions:
REMARK  status: ('A' for Active; 'I' for Inactive)
REMARK    1  A    between atoms: N1_1  and  C1_5 
REMARK    2  A    between atoms: C1_5  and  C2_6 
REMARK    3  A    between atoms: C2_6  and  C3_7 
REMARK    4  A    between atoms: C3_7  and  C4_8 
REMARK    5  A    between atoms: C4_8  and  C5_9 
REMARK    6  A    between atoms: C5_9  and  C6_10 
REMARK    7  A    between atoms: C6_10  and  N2_11 
REMARK    8  A    between atoms: N2_11  and  C7_13 
REMARK    9  A    between atoms: C9_17  and  C10_18 
ROOT
HETATM    1  C7  UNL     1      -6.146   6.420   9.096  1.00  0.00     0.669 C 
HETATM    2  N3  UNL     1      -6.675   7.335   9.794  1.00  0.00    -0.226 N 
ATOM      3  H3  UNL     1      -6.329   7.454  10.747  1.00  0.00     0.177 HD
HETATM    4  C8  UNL     1      -7.719   8.222   9.360  1.00  0.00     0.144 C 
HETATM    5  C9  UNL     1      -8.152   8.099   7.944  1.00  0.00     0.026 C 
HETATM    6  C16 UNL     1      -7.068   7.468   7.104  1.00  0.00     0.144 C 
HETATM    7  N4  UNL     1      -6.627   6.249   7.761  1.00  0.00    -0.226 N 
ATOM      8  H4  UNL     1      -6.657   5.339   7.303  1.00  0.00     0.177 HD
ENDROOT
BRANCH   1   9
HETATM    9  N2  UNL     1      -5.111   5.590   9.613  1.00  0.00    -0.227 N 
ATOM     10  H2  UNL     1      -5.056   4.633   9.262  1.00  0.00     0.177 HD
BRANCH   9  11
HETATM   11  C6  UNL     1      -4.139   5.996  10.590  1.00  0.00     0.138 C 
BRANCH  11  12
HETATM   12  C5  UNL     1      -4.347   5.292  11.894  1.00  0.00     0.020 C 
BRANCH  12  13
HETATM   13  C4  UNL     1      -4.882   6.207  12.943  1.00  0.00     0.002 C 
BRANCH  13  14
HETATM   14  C3  UNL     1      -4.387   5.838  14.331  1.00  0.00     0.002 C 
BRANCH  14  15
HETATM   15  C2  UNL     1      -3.376   4.745  14.361  1.00  0.00     0.027 C 
BRANCH  15  16
HETATM   16  C1  UNL     1      -1.972   5.195  14.634  1.00  0.00     0.229 C 
BRANCH  16  17
HETATM   17  N1  UNL     1      -1.312   4.170  15.420  1.00  0.00    -0.079 N 
ATOM     18  H13 UNL     1      -1.792   3.272  15.378  1.00  0.00     0.274 HD
ATOM     19  H12 UNL     1      -0.426   3.872  15.011  1.00  0.00     0.274 HD
ATOM     20  H11 UNL     1      -1.208   4.517  16.373  1.00  0.00     0.274 HD
ENDBRANCH  16  17
ENDBRANCH  15  16
ENDBRANCH  14  15
ENDBRANCH  13  14
ENDBRANCH  12  13
ENDBRANCH  11  12
ENDBRANCH   9  11
ENDBRANCH   1   9
BRANCH   5  21
HETATM   21  C10 UNL     1      -8.510   9.470   7.413  1.00  0.00    -0.007 C 
HETATM   22  C11 UNL     1      -7.741  10.509   8.165  1.00  0.00     0.005 C 
HETATM   23  C12 UNL     1      -8.028  11.877   7.534  1.00  0.00     0.000 C 
HETATM   24  C13 UNL     1      -9.477  12.177   7.802  1.00  0.00     0.000 C 
HETATM   25  C14 UNL     1     -10.295  11.134   7.030  1.00  0.00     0.000 C 
HETATM   26  C15 UNL     1      -9.978   9.758   7.509  1.00  0.00     0.005 C 
ENDBRANCH   5  21
TORSDOF 9
ENDMDL
MODEL 3
REMARK VINA RESULT: -5.578370458      0.841      1.304
REMARK  9 active torsions:
REMARK  status: ('A' for Active; 'I' for Inactive)
REMARK    1  A    between atoms: N1_1  and  C1_5 
REMARK    2  A    between atoms: C1_5  and  C2_6 
REMARK    3  A    between atoms: C2_6  and  C3_7 
REMARK    4  A    between atoms: C3_7  and  C4_8 
REMARK    5  A    between atoms: C4_8  and  C5_9 
REMARK    6  A    between atoms: C5_9  and  C6_10 
REMARK    7  A    between atoms: C6_10  and  N2_11 
REMARK    8  A    between atoms: N2_11  and  C7_13 
REMARK    9  A    between atoms: C9_17  and  C10_18 
ROOT
HETATM    1  C7  UNL     1      -5.703   6.402   9.020  1.00  0.00     0.669 C 
HETATM    2  N3  UNL     1      -6.911   6.260   8.665  1.00  0.00    -0.226 N 
ATOM      3  H3  UNL     1      -7.429   5.483   9.076  1.00  0.00     0.177 HD
HETATM    4  C8  UNL     1      -7.614   7.096   7.732  1.00  0.00     0.144 C 
HETATM    5  C9  UNL     1      -6.877   8.276   7.207  1.00  0.00     0.026 C 
HETATM    6  C16 UNL     1      -5.760   8.671   8.143  1.00  0.00     0.144 C 
HETATM    7  N4  UNL     1      -4.972   7.488   8.446  1.00  0.00    -0.226 N 
ATOM      8  H4  UNL     1      -3.970   7.436   8.262  1.00  0.00     0.177 HD
ENDROOT
BRANCH   1   9
HETATM    9  N2  UNL     1      -5.090   5.522   9.956  1.00  0.00    -0.227 N 
ATOM     10  H2  UNL     1      -5.276   4.524   9.855  1.00  0.00     0.177 HD
BRANCH   9  11
HETATM   11  C6  UNL     1      -4.230   5.931  11.032  1.00  0.00     0.138 C 
BRANCH  11  12
HETATM   12  C5  UNL     1      -4.970   6.750  12.042  1.00  0.00     0.020 C 
BRANCH  12  13
HETATM   13  C4  UNL     1      -5.320   5.956  13.256  1.00  0.00     0.002 C 
BRANCH  13  14
HETATM   14  C3  UNL     1      -4.223   6.002  14.306  1.00  0.00     0.002 C 
BRANCH  14  15
HETATM   15  C2  UNL     1      -3.427   4.749  14.428  1.00  0.00     0.027 C 
BRANCH  15  16
HETATM   16  C1  UNL     1      -1.944   4.933  14.308  1.00  0.00     0.229 C 
BRANCH  16  17
HETATM   17  N1  UNL     1      -1.306   4.186  15.375  1.00  0.00    -0.079 N 
ATOM     18  H13 UNL     1      -0.741   3.411  15.029  1.00  0.00     0.274 HD
ATOM     19  H12 UNL     1      -0.557   4.710  15.829  1.00  0.00     0.274 HD
ATOM     20  H11 UNL     1      -2.027   3.886  16.030  1.00  0.00     0.274 HD
ENDBRANCH  16  17
ENDBRANCH  15  16
ENDBRANCH  14  15
ENDBRANCH  13  14
ENDBRANCH  12  13
ENDBRANCH  11  12
ENDBRANCH   9  11
ENDBRANCH   1   9
BRANCH   5  21
HETATM   21  C10 UNL     1      -7.845   9.422   7.015  1.00  0.00    -0.007 C 
HETATM   22  C11 UNL     1      -9.160   9.069   7.636  1.00  0.00     0.005 C 
HETATM   23  C12 UNL     1     -10.087  10.288   7.534  1.00  0.00     0.000 C 
HETATM   24  C13 UNL     1     -10.373  10.487   6.071  1.00  0.00     0.000 C 
HETATM   25  C14 UNL     1      -9.043  10.865   5.407  1.00  0.00     0.000 C 
HETATM   26  C15 UNL     1      -8.044   9.770   5.571  1.00  0.00     0.005 C 
ENDBRANCH   5  21
TORSDOF 9
ENDMDL
MODEL 4
REMARK VINA RESULT: -5.575366213      1.365      1.663
REMARK  9 active torsions:
REMARK  status: ('A' for Active; 'I' for Inactive)
REMARK    1  A    between atoms: N1_1  and  C1_5 
REMARK    2  A    between atoms: C1_5  and  C2_6 
REMARK    3  A    between atoms: C2_6  and  C3_7 
REMARK    4  A    between atoms: C3_7  and  C4_8 
REMARK    5  A    between atoms: C4_8  and  C5_9 
REMARK    6  A    between atoms: C5_9  and  C6_10 
REMARK    7  A    between atoms: C6_10  and  N2_11 
REMARK    8  A    between atoms: N2_11  and  C7_13 
REMARK    9  A    between atoms: C9_17  and  C10_18 
ROOT
HETATM    1  C7  UNL     1      -5.821   6.482  10.084  1.00  0.00     0.669 C 
HETATM    2  N3  UNL     1      -6.289   7.567  10.540  1.00  0.00    -0.226 N 
ATOM      3  H3  UNL     1      -5.900   7.911  11.418  1.00  0.00     0.177 HD
HETATM    4  C8  UNL     1      -7.323   8.356   9.929  1.00  0.00     0.144 C 
HETATM    5  C9  UNL     1      -7.820   7.893   8.607  1.00  0.00     0.026 C 
HETATM    6  C16 UNL     1      -6.794   7.024   7.921  1.00  0.00     0.144 C 
HETATM    7  N4  UNL     1      -6.363   5.996   8.855  1.00  0.00    -0.226 N 
ATOM      8  H4  UNL     1      -6.442   5.001   8.647  1.00  0.00     0.177 HD
ENDROOT
BRANCH   1   9
HETATM    9  N2  UNL     1      -4.791   5.770  10.761  1.00  0.00    -0.227 N 
ATOM     10  H2  UNL     1      -4.511   4.868  10.376  1.00  0.00     0.177 HD
BRANCH   9  11
HETATM   11  C6  UNL     1      -4.116   6.224  11.946  1.00  0.00     0.138 C 
BRANCH  11  12
HETATM   12  C5  UNL     1      -4.942   5.986  13.171  1.00  0.00     0.020 C 
BRANCH  12  13
HETATM   13  C4  UNL     1      -4.102   5.617  14.347  1.00  0.00     0.002 C 
BRANCH  13  14
HETATM   14  C3  UNL     1      -3.725   4.146  14.343  1.00  0.00     0.002 C 
BRANCH  14  15
HETATM   15  C2  UNL     1      -4.843   3.218  14.017  1.00  0.00     0.027 C 
BRANCH  15  16
HETATM   16  C1  UNL     1      -4.594   2.322  12.841  1.00  0.00     0.229 C 
BRANCH  16  17
HETATM   17  N1  UNL     1      -3.283   2.635  12.302  1.00  0.00    -0.079 N 
ATOM     18  H13 UNL     1      -2.722   1.802  12.124  1.00  0.00     0.274 HD
ATOM     19  H12 UNL     1      -3.325   2.979  11.342  1.00  0.00     0.274 HD
ATOM     20  H11 UNL     1      -2.826   3.290  12.935  1.00  0.00     0.274 HD
ENDBRANCH  16  17
ENDBRANCH  15  16
ENDBRANCH  14  15
ENDBRANCH  13  14
ENDBRANCH  12  13
ENDBRANCH  11  12
ENDBRANCH   9  11
ENDBRANCH   1   9
BRANCH   5  21
HETATM   21  C10 UNL     1      -8.157   9.097   7.753  1.00  0.00    -0.007 C 
HETATM   22  C11 UNL     1      -9.643   9.258   7.690  1.00  0.00     0.005 C 
HETATM   23  C12 UNL     1      -9.959  10.547   6.921  1.00  0.00     0.000 C 
HETATM   24  C13 UNL     1      -9.518  10.318   5.502  1.00  0.00     0.000 C 
HETATM   25  C14 UNL     1      -7.993  10.163   5.531  1.00  0.00     0.000 C 
HETATM   26  C15 UNL     1      -7.600   8.991   6.366  1.00  0.00     0.005 C 
ENDBRANCH   5  21
TORSDOF 9
ENDMDL
MODEL 5
REMARK VINA RESULT: -5.562843392      1.084      1.263
REMARK  9 active torsions:
REMARK  status: ('A' for Active; 'I' for Inactive)
REMARK    1  A    between atoms: N1_1  and  C1_5 
REMARK    2  A    between atoms: C1_5  and  C2_6 
REMARK    3  A    between atoms: C2_6  and  C3_7 
REMARK    4  A    between atoms: C3_7  and  C4_8 
REMARK    5  A    between atoms: C4_8  and  C5_9 
REMARK    6  A    between atoms: C5_9  and  C6_10 
REMARK    7  A    between atoms: C6_10  and  N2_11 
REMARK    8  A    between atoms: N2_11  and  C7_13 
REMARK    9  A    between atoms: C9_17  and  C10_18 
ROOT
HETATM    1  C7  UNL     1      -6.097   6.422   9.466  1.00  0.00     0.669 C 
HETATM    2  N3  UNL     1      -6.278   7.564   9.984  1.00  0.00    -0.226 N 
ATOM      3  H3  UNL     1      -5.638   7.846  10.727  1.00  0.00     0.177 HD
HETATM    4  C8  UNL     1      -7.306   8.498   9.616  1.00  0.00     0.144 C 
HETATM    5  C9  UNL     1      -8.176   8.114   8.473  1.00  0.00     0.026 C 
HETATM    6  C16 UNL     1      -7.488   7.103   7.589  1.00  0.00     0.144 C 
HETATM    7  N4  UNL     1      -6.991   6.023   8.425  1.00  0.00    -0.226 N 
ATOM      8  H4  UNL     1      -7.260   5.050   8.279  1.00  0.00     0.177 HD
ENDROOT
BRANCH   1   9
HETATM    9  N2  UNL     1      -5.044   5.565   9.895  1.00  0.00    -0.227 N 
ATOM     10  H2  UNL     1      -5.156   4.565   9.732  1.00  0.00     0.177 HD
BRANCH   9  11
HETATM   11  C6  UNL     1      -3.837   6.002  10.541  1.00  0.00     0.138 C 
BRANCH  11  12
HETATM   12  C5  UNL     1      -3.702   5.408  11.908  1.00  0.00     0.020 C 
BRANCH  12  13
HETATM   13  C4  UNL     1      -4.494   6.161  12.924  1.00  0.00     0.002 C 
BRANCH  13  14
HETATM   14  C3  UNL     1      -4.576   5.422  14.249  1.00  0.00     0.002 C 
BRANCH  14  15
HETATM   15  C2  UNL     1      -3.993   4.052  14.234  1.00  0.00     0.027 C 
BRANCH  15  16
HETATM   16  C1  UNL     1      -5.000   2.940  14.237  1.00  0.00     0.229 C 
BRANCH  16  17
HETATM   17  N1  UNL     1      -4.441   1.824  14.976  1.00  0.00    -0.079 N 
ATOM     18  H13 UNL     1      -3.499   1.583  14.671  1.00  0.00     0.274 HD
ATOM     19  H12 UNL     1      -4.216   2.065  15.941  1.00  0.00     0.274 HD
ATOM     20  H11 UNL     1      -5.090   1.040  14.907  1.00  0.00     0.274 HD
ENDBRANCH  16  17
ENDBRANCH  15  16
ENDBRANCH  14  15
ENDBRANCH  13  14
ENDBRANCH  12  13
ENDBRANCH  11  12
ENDBRANCH   9  11
ENDBRANCH   1   9
BRANCH   5  21
HETATM   21  C10 UNL     1      -8.539   9.355   7.686  1.00  0.00    -0.007 C 
HETATM   22  C11 UNL     1     -10.028   9.477   7.613  1.00  0.00     0.005 C 
HETATM   23  C12 UNL     1     -10.371  10.800   6.915  1.00  0.00     0.000 C 
HETATM   24  C13 UNL     1      -9.908  10.665   5.490  1.00  0.00     0.000 C 
HETATM   25  C14 UNL     1      -8.379  10.551   5.531  1.00  0.00     0.000 C 
HETATM   26  C15 UNL     1      -7.962   9.345   6.302  1.00  0.00     0.005 C 
ENDBRANCH   5  21
TORSDOF 9
ENDMDL
