MODEL 1
REMARK VINA RESULT: -7.677895423      0.000      0.000
REMARK  12 active torsions:
REMARK  status: ('A' for Active; 'I' for Inactive)
REMARK    1  A    between atoms: C2_2  and  C3_3 
REMARK    2  A    between atoms: C3_3  and  C4_4 
REMARK    3  A    between atoms: C4_4  and  C5_5 
REMARK    4  A    between atoms: C5_5  and  O1_6 
REMARK    5  A    between atoms: O1_6  and  C6_7 
REMARK       I    between atoms: C6_7  and  N1_9 
REMARK    6  A    between atoms: N1_9  and  C7_11 
REMARK    7  A    between atoms: C10_14  and  C11_15 
REMARK       I    between atoms: N2_18  and  C14_19 
REMARK    8  A    between atoms: C14_19  and  O4_21 
REMARK    9  A    between atoms: O4_21  and  C15_22 
REMARK   10  A    between atoms: C15_22  and  C16_23 
REMARK   11  A    between atoms: C19_27  and  S1_28 
REMARK   12  A    between atoms: S1_28  and  O5_29 
ROOT
HETATM    1  C7  UNL     1      50.169  26.189  31.889  1.00  0.00     0.038 A 
HETATM    2  C8  UNL     1      50.308  26.514  30.537  1.00  0.00     0.030 A 
HETATM    3  C9  UNL     1      49.285  26.394  29.661  1.00  0.00     0.015 A 
HETATM    4  C10 UNL     1      48.017  25.934  30.101  1.00  0.00    -0.015 A 
HETATM    5  C19 UNL     1      47.898  25.639  31.406  1.00  0.00     0.040 A 
HETATM    6  C20 UNL     1      48.962  25.757  32.329  1.00  0.00     0.051 A 
ENDROOT
BRANCH   4   7
HETATM    7  C11 UNL     1      46.925  25.842  29.133  1.00  0.00    -0.065 C 
HETATM    8  C12 UNL     1      45.860  26.897  29.547  1.00  0.00     0.055 C 
HETATM    9  C13 UNL     1      45.605  27.607  28.168  1.00  0.00     0.132 C 
HETATM   10  N2  UNL     1      44.851  26.538  27.465  1.00  0.00    -0.327 N 
HETATM   11  C14 UNL     1      43.488  26.785  27.258  1.00  0.00     0.362 C 
HETATM   12  C17 UNL     1      45.602  25.371  27.140  1.00  0.00     0.132 C 
HETATM   13  O3  UNL     1      42.987  27.873  27.640  1.00  0.00    -0.238 OA
HETATM   14  C18 UNL     1      47.045  25.567  27.733  1.00  0.00     0.055 C 
BRANCH  11  15
HETATM   15  O4  UNL     1      42.561  25.915  26.658  1.00  0.00    -0.303 OA
BRANCH  15  16
HETATM   16  C15 UNL     1      41.851  24.978  27.460  1.00  0.00     0.195 C 
BRANCH  16  17
HETATM   17  C16 UNL     1      40.798  24.248  26.701  1.00  0.00     0.141 C 
HETATM   18 CL1  UNL     1      41.157  24.250  24.935  1.00  0.00    -0.128 Cl
ENDBRANCH  16  17
ENDBRANCH  15  16
ENDBRANCH  11  15
ENDBRANCH   4   7
BRANCH   5  19
HETATM   19  S1  UNL     1      46.410  24.947  32.080  1.00  0.00     0.026 SA
BRANCH  19  20
HETATM   20  O5  UNL     1      46.674  24.290  33.416  1.00  0.00    -0.325 OA
ATOM     21  H5  UNL     1      46.711  23.344  33.329  1.00  0.00     0.228 HD
ENDBRANCH  19  20
ENDBRANCH   5  19
BRANCH   1  22
HETATM   22  N1  UNL     1      51.313  26.205  32.732  1.00  0.00    -0.303 N 
HETATM   23  C6  UNL     1      51.702  27.279  33.564  1.00  0.00     0.365 C 
HETATM   24  O2  UNL     1      50.935  28.281  33.598  1.00  0.00    -0.238 OA
ATOM     25  H1  UNL     1      51.901  25.372  32.737  1.00  0.00     0.171 HD
BRANCH  23  26
HETATM   26  O1  UNL     1      52.853  27.248  34.274  1.00  0.00    -0.304 OA
BRANCH  26  27
HETATM   27  C5  UNL     1      53.234  28.113  35.313  1.00  0.00     0.180 C 
BRANCH  27  28
HETATM   28  C4  UNL     1      52.447  27.695  36.530  1.00  0.00     0.027 C 
BRANCH  28  29
HETATM   29  C3  UNL     1      51.545  28.777  37.038  1.00  0.00     0.002 C 
BRANCH  29  30
HETATM   30  C2  UNL     1      51.440  28.619  38.582  1.00  0.00    -0.004 C 
HETATM   31  C1  UNL     1      50.559  29.732  39.082  1.00  0.00     0.005 C 
ENDBRANCH  29  30
ENDBRANCH  28  29
ENDBRANCH  27  28
ENDBRANCH  26  27
ENDBRANCH  23  26
ENDBRANCH   1  22
TORSDOF 12
ENDMDL
MODEL 2
REMARK VINA RESULT: -7.248866262      1.769      2.868
REMARK  12 active torsions:
REMARK  status: ('A' for Active; 'I' for Inactive)
REMARK    1  A    between atoms: C2_2  and  C3_3 
REMARK    2  A    between atoms: C3_3  and  C4_4 
REMARK    3  A    between atoms: C4_4  and  C5_5 
REMARK    4  A    between atoms: C5_5  and  O1_6 
REMARK    5  A    between atoms: O1_6  and  C6_7 
REMARK       I    between atoms: C6_7  and  N1_9 
REMARK    6  A    between atoms: N1_9  and  C7_11 
REMARK    7  A    between atoms: C10_14  and  C11_15 
REMARK       I    between atoms: N2_18  and  C14_19 
REMARK    8  A    between atoms: C14_19  and  O4_21 
REMARK    9  A    between atoms: O4_21  and  C15_22 
REMARK   10  A    between atoms: C15_22  and  C16_23 
REMARK   11  A    between atoms: C19_27  and  S1_28 
REMARK   12  A    between atoms: S1_28  and  O5_29 
ROOT
HETATM    1  C7  UNL     1      50.232  26.290  31.856  1.00  0.00     0.038 A 
HETATM    2  C8  UNL     1      50.376  26.505  30.482  1.00  0.00     0.030 A 
HETATM    3  C9  UNL     1      49.343  26.360  29.621  1.00  0.00     0.015 A 
HETATM    4  C10 UNL     1      48.061  25.988  30.099  1.00  0.00    -0.015 A 
HETATM    5  C19 UNL     1      47.937  25.799  31.423  1.00  0.00     0.040 A 
HETATM    6  C20 UNL     1      49.011  25.943  32.331  1.00  0.00     0.051 A 
ENDROOT
BRANCH   4   7
HETATM    7  C11 UNL     1      46.960  25.868  29.144  1.00  0.00    -0.065 C 
HETATM    8  C12 UNL     1      45.868  26.887  29.578  1.00  0.00     0.055 C 
HETATM    9  C13 UNL     1      45.574  27.597  28.206  1.00  0.00     0.132 C 
HETATM   10  N2  UNL     1      44.845  26.509  27.507  1.00  0.00    -0.327 N 
HETATM   11  C14 UNL     1      43.471  26.716  27.318  1.00  0.00     0.362 C 
HETATM   12  C17 UNL     1      45.627  25.368  27.165  1.00  0.00     0.132 C 
HETATM   13  O3  UNL     1      42.943  27.786  27.713  1.00  0.00    -0.238 OA
HETATM   14  C18 UNL     1      47.070  25.605  27.741  1.00  0.00     0.055 C 
BRANCH  11  15
HETATM   15  O4  UNL     1      42.564  25.821  26.724  1.00  0.00    -0.303 OA
BRANCH  15  16
HETATM   16  C15 UNL     1      41.800  24.943  27.543  1.00  0.00     0.195 C 
BRANCH  16  17
HETATM   17  C16 UNL     1      40.759  24.200  26.781  1.00  0.00     0.141 C 
HETATM   18 CL1  UNL     1      41.084  24.269  25.010  1.00  0.00    -0.128 Cl
ENDBRANCH  16  17
ENDBRANCH  15  16
ENDBRANCH  11  15
ENDBRANCH   4   7
BRANCH   5  19
HETATM   19  S1  UNL     1      46.426  25.223  32.153  1.00  0.00     0.026 SA
BRANCH  19  20
HETATM   20  O5  UNL     1      46.703  24.331  33.342  1.00  0.00    -0.325 OA
ATOM     21  H5  UNL     1      46.868  24.846  34.123  1.00  0.00     0.228 HD
ENDBRANCH  19  20
ENDBRANCH   5  19
BRANCH   1  22
HETATM   22  N1  UNL     1      51.381  26.322  32.691  1.00  0.00    -0.303 N 
HETATM   23  C6  UNL     1      51.691  27.344  33.616  1.00  0.00     0.365 C 
HETATM   24  O2  UNL     1      50.846  28.273  33.746  1.00  0.00    -0.238 OA
ATOM     25  H1  UNL     1      52.035  25.543  32.617  1.00  0.00     0.171 HD
BRANCH  23  26
HETATM   26  O1  UNL     1      52.850  27.343  34.316  1.00  0.00    -0.304 OA
BRANCH  26  27
HETATM   27  C5  UNL     1      54.121  26.966  33.855  1.00  0.00     0.180 C 
BRANCH  27  28
HETATM   28  C4  UNL     1      54.485  27.935  32.758  1.00  0.00     0.027 C 
BRANCH  28  29
HETATM   29  C3  UNL     1      55.665  27.486  31.953  1.00  0.00     0.002 C 
BRANCH  29  30
HETATM   30  C2  UNL     1      55.269  27.564  30.450  1.00  0.00    -0.004 C 
HETATM   31  C1  UNL     1      53.843  28.041  30.393  1.00  0.00     0.005 C 
ENDBRANCH  29  30
ENDBRANCH  28  29
ENDBRANCH  27  28
ENDBRANCH  26  27
ENDBRANCH  23  26
ENDBRANCH   1  22
TORSDOF 12
ENDMDL
MODEL 3
REMARK VINA RESULT: -7.102337232      1.632      1.823
REMARK  12 active torsions:
REMARK  status: ('A' for Active; 'I' for Inactive)
REMARK    1  A    between atoms: C2_2  and  C3_3 
REMARK    2  A    between atoms: C3_3  and  C4_4 
REMARK    3  A    between atoms: C4_4  and  C5_5 
REMARK    4  A    between atoms: C5_5  and  O1_6 
REMARK    5  A    between atoms: O1_6  and  C6_7 
REMARK       I    between atoms: C6_7  and  N1_9 
REMARK    6  A    between atoms: N1_9  and  C7_11 
REMARK    7  A    between atoms: C10_14  and  C11_15 
REMARK       I    between atoms: N2_18  and  C14_19 
REMARK    8  A    between atoms: C14_19  and  O4_21 
REMARK    9  A    between atoms: O4_21  and  C15_22 
REMARK   10  A    between atoms: C15_22  and  C16_23 
REMARK   11  A    between atoms: C19_27  and  S1_28 
REMARK   12  A    between atoms: S1_28  and  O5_29 
ROOT
HETATM    1  C7  UNL     1      50.191  26.197  31.835  1.00  0.00     0.038 A 
HETATM    2  C8  UNL     1      50.339  26.453  30.469  1.00  0.00     0.030 A 
HETATM    3  C9  UNL     1      49.308  26.336  29.601  1.00  0.00     0.015 A 
HETATM    4  C10 UNL     1      48.024  25.952  30.065  1.00  0.00    -0.015 A 
HETATM    5  C19 UNL     1      47.897  25.723  31.383  1.00  0.00     0.040 A 
HETATM    6  C20 UNL     1      48.969  25.839  32.297  1.00  0.00     0.051 A 
ENDROOT
BRANCH   4   7
HETATM    7  C11 UNL     1      46.924  25.862  29.105  1.00  0.00    -0.065 C 
HETATM    8  C12 UNL     1      45.865  26.920  29.525  1.00  0.00     0.055 C 
HETATM    9  C13 UNL     1      45.602  27.630  28.148  1.00  0.00     0.132 C 
HETATM   10  N2  UNL     1      44.841  26.562  27.451  1.00  0.00    -0.327 N 
HETATM   11  C14 UNL     1      43.476  26.813  27.253  1.00  0.00     0.362 C 
HETATM   12  C17 UNL     1      45.587  25.393  27.122  1.00  0.00     0.132 C 
HETATM   13  O3  UNL     1      42.981  27.903  27.638  1.00  0.00    -0.238 OA
HETATM   14  C18 UNL     1      47.034  25.586  27.704  1.00  0.00     0.055 C 
BRANCH  11  15
HETATM   15  O4  UNL     1      42.543  25.945  26.660  1.00  0.00    -0.303 OA
BRANCH  15  16
HETATM   16  C15 UNL     1      41.863  24.986  27.462  1.00  0.00     0.195 C 
BRANCH  16  17
HETATM   17  C16 UNL     1      40.791  24.267  26.719  1.00  0.00     0.141 C 
HETATM   18 CL1  UNL     1      41.152  24.216  24.954  1.00  0.00    -0.128 Cl
ENDBRANCH  16  17
ENDBRANCH  15  16
ENDBRANCH  11  15
ENDBRANCH   4   7
BRANCH   5  19
HETATM   19  S1  UNL     1      46.383  25.129  32.092  1.00  0.00     0.026 SA
BRANCH  19  20
HETATM   20  O5  UNL     1      46.654  24.263  33.301  1.00  0.00    -0.325 OA
ATOM     21  H5  UNL     1      47.483  23.808  33.216  1.00  0.00     0.228 HD
ENDBRANCH  19  20
ENDBRANCH   5  19
BRANCH   1  22
HETATM   22  N1  UNL     1      51.338  26.203  32.673  1.00  0.00    -0.303 N 
HETATM   23  C6  UNL     1      51.723  27.261  33.528  1.00  0.00     0.365 C 
HETATM   24  O2  UNL     1      50.948  28.256  33.588  1.00  0.00    -0.238 OA
ATOM     25  H1  UNL     1      51.934  25.374  32.657  1.00  0.00     0.171 HD
BRANCH  23  26
HETATM   26  O1  UNL     1      52.877  27.223  34.233  1.00  0.00    -0.304 OA
BRANCH  26  27
HETATM   27  C5  UNL     1      53.849  26.210  34.219  1.00  0.00     0.180 C 
BRANCH  27  28
HETATM   28  C4  UNL     1      55.101  26.808  34.810  1.00  0.00     0.027 C 
BRANCH  28  29
HETATM   29  C3  UNL     1      54.952  27.156  36.258  1.00  0.00     0.002 C 
BRANCH  29  30
HETATM   30  C2  UNL     1      55.351  28.650  36.430  1.00  0.00    -0.004 C 
HETATM   31  C1  UNL     1      55.999  29.085  35.143  1.00  0.00     0.005 C 
ENDBRANCH  29  30
ENDBRANCH  28  29
ENDBRANCH  27  28
ENDBRANCH  26  27
ENDBRANCH  23  26
ENDBRANCH   1  22
TORSDOF 12
ENDMDL
MODEL 4
REMARK VINA RESULT: -6.961295440      3.534     10.013
REMARK  12 active torsions:
REMARK  status: ('A' for Active; 'I' for Inactive)
REMARK    1  A    between atoms: C2_2  and  C3_3 
REMARK    2  A    between atoms: C3_3  and  C4_4 
REMARK    3  A    between atoms: C4_4  and  C5_5 
REMARK    4  A    between atoms: C5_5  and  O1_6 
REMARK    5  A    between atoms: O1_6  and  C6_7 
REMARK       I    between atoms: C6_7  and  N1_9 
REMARK    6  A    between atoms: N1_9  and  C7_11 
REMARK    7  A    between atoms: C10_14  and  C11_15 
REMARK       I    between atoms: N2_18  and  C14_19 
REMARK    8  A    between atoms: C14_19  and  O4_21 
REMARK    9  A    between atoms: O4_21  and  C15_22 
REMARK   10  A    between atoms: C15_22  and  C16_23 
REMARK   11  A    between atoms: C19_27  and  S1_28 
REMARK   12  A    between atoms: S1_28  and  O5_29 
ROOT
HETATM    1  C7  UNL     1      47.831  25.529  29.000  1.00  0.00     0.038 A 
HETATM    2  C8  UNL     1      49.134  26.033  28.988  1.00  0.00     0.030 A 
HETATM    3  C9  UNL     1      49.760  26.432  30.118  1.00  0.00     0.015 A 
HETATM    4  C10 UNL     1      49.101  26.342  31.371  1.00  0.00    -0.015 A 
HETATM    5  C19 UNL     1      47.853  25.843  31.366  1.00  0.00     0.040 A 
HETATM    6  C20 UNL     1      47.189  25.427  30.189  1.00  0.00     0.051 A 
ENDROOT
BRANCH   4   7
HETATM    7  C11 UNL     1      49.816  26.756  32.577  1.00  0.00    -0.065 C 
HETATM    8  C12 UNL     1      51.268  26.215  32.453  1.00  0.00     0.055 C 
HETATM    9  C13 UNL     1      52.090  27.508  32.805  1.00  0.00     0.132 C 
HETATM   10  N2  UNL     1      51.822  27.592  34.263  1.00  0.00    -0.327 N 
HETATM   11  C14 UNL     1      52.905  27.301  35.103  1.00  0.00     0.362 C 
HETATM   12  C17 UNL     1      50.479  27.906  34.622  1.00  0.00     0.132 C 
HETATM   13  O3  UNL     1      54.023  27.016  34.602  1.00  0.00    -0.238 OA
HETATM   14  C18 UNL     1      49.649  27.987  33.289  1.00  0.00     0.055 C 
BRANCH  11  15
HETATM   15  O4  UNL     1      52.891  27.272  36.508  1.00  0.00    -0.303 OA
BRANCH  15  16
HETATM   16  C15 UNL     1      52.920  28.492  37.240  1.00  0.00     0.195 C 
BRANCH  16  17
HETATM   17  C16 UNL     1      51.765  28.639  38.168  1.00  0.00     0.141 C 
HETATM   18 CL1  UNL     1      50.662  29.955  37.623  1.00  0.00    -0.128 Cl
ENDBRANCH  16  17
ENDBRANCH  15  16
ENDBRANCH  11  15
ENDBRANCH   4   7
BRANCH   5  19
HETATM   19  S1  UNL     1      46.863  25.773  32.836  1.00  0.00     0.026 SA
BRANCH  19  20
HETATM   20  O5  UNL     1      46.587  24.342  33.237  1.00  0.00    -0.325 OA
ATOM     21  H5  UNL     1      45.892  24.296  33.883  1.00  0.00     0.228 HD
ENDBRANCH  19  20
ENDBRANCH   5  19
BRANCH   1  22
HETATM   22  N1  UNL     1      47.177  25.256  27.769  1.00  0.00    -0.303 N 
HETATM   23  C6  UNL     1      46.340  26.154  27.069  1.00  0.00     0.365 C 
HETATM   24  O2  UNL     1      46.213  27.313  27.555  1.00  0.00    -0.238 OA
ATOM     25  H1  UNL     1      47.324  24.334  27.356  1.00  0.00     0.171 HD
BRANCH  23  26
HETATM   26  O1  UNL     1      45.686  25.788  25.942  1.00  0.00    -0.304 OA
BRANCH  26  27
HETATM   27  C5  UNL     1      44.565  24.948  25.845  1.00  0.00     0.180 C 
BRANCH  27  28
HETATM   28  C4  UNL     1      43.355  25.819  26.070  1.00  0.00     0.027 C 
BRANCH  28  29
HETATM   29  C3  UNL     1      42.460  25.302  27.153  1.00  0.00     0.002 C 
BRANCH  29  30
HETATM   30  C2  UNL     1      43.028  25.798  28.514  1.00  0.00    -0.004 C 
HETATM   31  C1  UNL     1      43.044  27.302  28.465  1.00  0.00     0.005 C 
ENDBRANCH  29  30
ENDBRANCH  28  29
ENDBRANCH  27  28
ENDBRANCH  26  27
ENDBRANCH  23  26
ENDBRANCH   1  22
TORSDOF 12
ENDMDL
MODEL 5
REMARK VINA RESULT: -6.907139515      2.464      3.458
REMARK  12 active torsions:
REMARK  status: ('A' for Active; 'I' for Inactive)
REMARK    1  A    between atoms: C2_2  and  C3_3 
REMARK    2  A    between atoms: C3_3  and  C4_4 
REMARK    3  A    between atoms: C4_4  and  C5_5 
REMARK    4  A    between atoms: C5_5  and  O1_6 
REMARK    5  A    between atoms: O1_6  and  C6_7 
REMARK       I    between atoms: C6_7  and  N1_9 
REMARK    6  A    between atoms: N1_9  and  C7_11 
REMARK    7  A    between atoms: C10_14  and  C11_15 
REMARK       I    between atoms: N2_18  and  C14_19 
REMARK    8  A    between atoms: C14_19  and  O4_21 
REMARK    9  A    between atoms: O4_21  and  C15_22 
REMARK   10  A    between atoms: C15_22  and  C16_23 
REMARK   11  A    between atoms: C19_27  and  S1_28 
REMARK   12  A    between atoms: S1_28  and  O5_29 
ROOT
HETATM    1  C7  UNL     1      51.609  27.647  34.122  1.00  0.00     0.038 A 
HETATM    2  C8  UNL     1      51.877  26.655  33.175  1.00  0.00     0.030 A 
HETATM    3  C9  UNL     1      50.929  26.201  32.323  1.00  0.00     0.015 A 
HETATM    4  C10 UNL     1      49.616  26.736  32.364  1.00  0.00    -0.015 A 
HETATM    5  C19 UNL     1      49.381  27.698  33.271  1.00  0.00     0.040 A 
HETATM    6  C20 UNL     1      50.363  28.176  34.169  1.00  0.00     0.051 A 
ENDROOT
BRANCH   4   7
HETATM    7  C11 UNL     1      48.623  26.244  31.410  1.00  0.00    -0.065 C 
HETATM    8  C12 UNL     1      49.022  26.796  30.012  1.00  0.00     0.055 C 
HETATM    9  C13 UNL     1      48.942  25.484  29.150  1.00  0.00     0.132 C 
HETATM   10  N2  UNL     1      47.469  25.301  29.098  1.00  0.00    -0.327 N 
HETATM   11  C14 UNL     1      46.866  25.538  27.856  1.00  0.00     0.362 C 
HETATM   12  C17 UNL     1      46.851  24.961  30.336  1.00  0.00     0.132 C 
HETATM   13  O3  UNL     1      47.577  25.859  26.869  1.00  0.00    -0.238 OA
HETATM   14  C18 UNL     1      47.975  24.968  31.434  1.00  0.00     0.055 C 
BRANCH  11  15
HETATM   15  O4  UNL     1      45.492  25.472  27.566  1.00  0.00    -0.303 OA
BRANCH  15  16
HETATM   16  C15 UNL     1      44.704  26.657  27.607  1.00  0.00     0.195 C 
BRANCH  16  17
HETATM   17  C16 UNL     1      43.947  26.891  26.347  1.00  0.00     0.141 C 
HETATM   18 CL1  UNL     1      44.154  25.514  25.204  1.00  0.00    -0.128 Cl
ENDBRANCH  16  17
ENDBRANCH  15  16
ENDBRANCH  11  15
ENDBRANCH   4   7
BRANCH   5  19
HETATM   19  S1  UNL     1      47.762  28.383  33.516  1.00  0.00     0.026 SA
BRANCH  19  20
HETATM   20  O5  UNL     1      47.811  29.894  33.541  1.00  0.00    -0.325 OA
ATOM     21  H5  UNL     1      47.236  30.265  32.882  1.00  0.00     0.228 HD
ENDBRANCH  19  20
ENDBRANCH   5  19
BRANCH   1  22
HETATM   22  N1  UNL     1      52.604  27.984  35.079  1.00  0.00    -0.303 N 
HETATM   23  C6  UNL     1      52.427  27.975  36.481  1.00  0.00     0.365 C 
HETATM   24  O2  UNL     1      51.308  27.580  36.913  1.00  0.00    -0.238 OA
ATOM     25  H1  UNL     1      53.522  28.254  34.724  1.00  0.00     0.171 HD
BRANCH  23  26
HETATM   26  O1  UNL     1      53.400  28.391  37.324  1.00  0.00    -0.304 OA
BRANCH  26  27
HETATM   27  C5  UNL     1      53.532  28.084  38.688  1.00  0.00     0.180 C 
BRANCH  27  28
HETATM   28  C4  UNL     1      53.225  29.352  39.445  1.00  0.00     0.027 C 
BRANCH  28  29
HETATM   29  C3  UNL     1      51.816  29.402  39.948  1.00  0.00     0.002 C 
BRANCH  29  30
HETATM   30  C2  UNL     1      51.094  30.570  39.217  1.00  0.00    -0.004 C 
HETATM   31  C1  UNL     1      49.617  30.287  39.283  1.00  0.00     0.005 C 
ENDBRANCH  29  30
ENDBRANCH  28  29
ENDBRANCH  27  28
ENDBRANCH  26  27
ENDBRANCH  23  26
ENDBRANCH   1  22
TORSDOF 12
ENDMDL
