MODEL 1
REMARK VINA RESULT: -7.793332043      0.000      0.000
REMARK  9 active torsions:
REMARK  status: ('A' for Active; 'I' for Inactive)
REMARK    1  A    between atoms: C3_3  and  C4_4 
REMARK    2  A    between atoms: C4_4  and  C5_5 
REMARK    3  A    between atoms: C6_6  and  C7_7 
REMARK    4  A    between atoms: C7_7  and  C8_8 
REMARK    5  A    between atoms: C8_8  and  C9_9 
REMARK    6  A    between atoms: C9_9  and  C10_10 
REMARK    7  A    between atoms: C10_10  and  N1_11 
REMARK    8  A    between atoms: C11_12  and  N2_13 
REMARK    9  A    between atoms: C12_18  and  N4_19 
ROOT
HETATM    1  C1  UNL     1      46.079  28.392  32.372  1.00  0.00     0.012 C 
HETATM    2  C2  UNL     1      45.742  27.387  31.797  1.00  0.00    -0.117 C 
HETATM    3  C3  UNL     1      45.349  26.139  31.074  1.00  0.00     0.097 C 
ENDROOT
BRANCH   3   4
HETATM    4  C4  UNL     1      46.006  25.002  31.780  1.00  0.00     0.039 C 
BRANCH   4   5
HETATM    5  C5  UNL     1      47.198  24.425  31.171  1.00  0.00    -0.030 C 
HETATM    6  C6  UNL     1      48.288  25.076  30.491  1.00  0.00    -0.031 C 
BRANCH   6   7
HETATM    7  C7  UNL     1      49.141  26.175  30.920  1.00  0.00     0.027 C 
BRANCH   7   8
HETATM    8  C8  UNL     1      49.361  26.378  32.362  1.00  0.00     0.005 C 
BRANCH   8   9
HETATM    9  C9  UNL     1      50.827  26.258  32.763  1.00  0.00     0.021 C 
BRANCH   9  10
HETATM   10  C10 UNL     1      51.525  27.571  32.882  1.00  0.00     0.149 C 
BRANCH  10  11
HETATM   11  N1  UNL     1      51.829  27.859  34.284  1.00  0.00    -0.168 N 
HETATM   12  C11 UNL     1      52.805  27.276  34.979  1.00  0.00     0.681 A 
HETATM   13  N3  UNL     1      53.023  27.594  36.247  1.00  0.00    -0.176 N 
HETATM   14  C12 UNL     1      52.260  28.550  36.939  1.00  0.00     0.133 A 
ATOM     15  H3  UNL     1      53.780  27.122  36.743  1.00  0.00     0.186 HD
HETATM   16  C17 UNL     1      51.277  29.156  36.262  1.00  0.00     0.060 A 
HETATM   17  C18 UNL     1      50.476  30.106  36.859  1.00  0.00    -0.032 A 
HETATM   18  C26 UNL     1      51.059  28.802  34.917  1.00  0.00     0.138 A 
HETATM   19  C19 UNL     1      50.716  30.686  38.174  1.00  0.00     0.050 C 
HETATM   20  C20 UNL     1      49.438  30.689  36.105  1.00  0.00     0.001 A 
HETATM   21  C21 UNL     1      48.583  31.623  36.682  1.00  0.00     0.056 A 
HETATM   22  C25 UNL     1      49.291  30.283  34.805  1.00  0.00     0.044 A 
HETATM   23  C22 UNL     1      47.554  32.172  35.941  1.00  0.00     0.117 A 
HETATM   24  F1  UNL     1      46.705  33.087  36.481  1.00  0.00    -0.206 F 
HETATM   25  C23 UNL     1      47.395  31.777  34.634  1.00  0.00     0.044 A 
HETATM   26  C24 UNL     1      48.241  30.853  34.070  1.00  0.00     0.033 A 
HETATM   27  N5  UNL     1      50.071  29.374  34.226  1.00  0.00    -0.340 N 
ATOM     28  H5  UNL     1      49.913  29.113  33.252  1.00  0.00     0.167 HD
BRANCH  12  29
HETATM   29  N2  UNL     1      53.546  26.377  34.411  1.00  0.00    -0.234 N 
ATOM     30  H22 UNL     1      53.996  26.588  33.520  1.00  0.00     0.174 HD
ATOM     31  H21 UNL     1      53.679  25.473  34.864  1.00  0.00     0.174 HD
ENDBRANCH  12  29
BRANCH  14  32
HETATM   32  N4  UNL     1      52.573  28.605  38.285  1.00  0.00    -0.366 N 
HETATM   33  C13 UNL     1      51.905  27.933  39.351  1.00  0.00     0.124 C 
HETATM   34  C14 UNL     1      52.475  28.378  40.642  1.00  0.00     0.021 C 
HETATM   35  C15 UNL     1      53.567  29.316  40.300  1.00  0.00     0.021 C 
HETATM   36  C16 UNL     1      53.766  29.179  38.833  1.00  0.00     0.124 C 
ENDBRANCH  14  32
ENDBRANCH  10  11
ENDBRANCH   9  10
ENDBRANCH   8   9
ENDBRANCH   7   8
ENDBRANCH   6   7
ENDBRANCH   4   5
ENDBRANCH   3   4
TORSDOF 9
ENDMDL
MODEL 2
REMARK VINA RESULT: -7.567078406      2.515      4.677
REMARK  9 active torsions:
REMARK  status: ('A' for Active; 'I' for Inactive)
REMARK    1  A    between atoms: C3_3  and  C4_4 
REMARK    2  A    between atoms: C4_4  and  C5_5 
REMARK    3  A    between atoms: C6_6  and  C7_7 
REMARK    4  A    between atoms: C7_7  and  C8_8 
REMARK    5  A    between atoms: C8_8  and  C9_9 
REMARK    6  A    between atoms: C9_9  and  C10_10 
REMARK    7  A    between atoms: C10_10  and  N1_11 
REMARK    8  A    between atoms: C11_12  and  N2_13 
REMARK    9  A    between atoms: C12_18  and  N4_19 
ROOT
HETATM    1  C1  UNL     1      45.314  24.681  32.495  1.00  0.00     0.012 C 
HETATM    2  C2  UNL     1      46.294  24.646  31.793  1.00  0.00    -0.117 C 
HETATM    3  C3  UNL     1      47.498  24.621  30.907  1.00  0.00     0.097 C 
ENDROOT
BRANCH   3   4
HETATM    4  C4  UNL     1      48.213  25.914  31.107  1.00  0.00     0.039 C 
BRANCH   4   5
HETATM    5  C5  UNL     1      48.431  26.362  32.477  1.00  0.00    -0.030 C 
HETATM    6  C6  UNL     1      48.146  27.637  33.082  1.00  0.00    -0.031 C 
BRANCH   6   7
HETATM    7  C7  UNL     1      46.911  28.406  33.116  1.00  0.00     0.027 C 
BRANCH   7   8
HETATM    8  C8  UNL     1      46.996  29.875  33.192  1.00  0.00     0.005 C 
BRANCH   8   9
HETATM    9  C9  UNL     1      47.500  30.372  34.542  1.00  0.00     0.021 C 
BRANCH   9  10
HETATM   10  C10 UNL     1      48.843  31.019  34.479  1.00  0.00     0.149 C 
BRANCH  10  11
HETATM   11  N1  UNL     1      49.598  30.741  35.701  1.00  0.00    -0.168 N 
HETATM   12  C11 UNL     1      49.413  31.370  36.861  1.00  0.00     0.681 A 
HETATM   13  N3  UNL     1      50.134  31.058  37.929  1.00  0.00    -0.176 N 
HETATM   14  C12 UNL     1      51.125  30.062  37.920  1.00  0.00     0.133 A 
ATOM     15  H3  UNL     1      49.962  31.566  38.797  1.00  0.00     0.186 HD
HETATM   16  C17 UNL     1      51.326  29.409  36.768  1.00  0.00     0.060 A 
HETATM   17  C18 UNL     1      52.277  28.417  36.664  1.00  0.00    -0.032 A 
HETATM   18  C26 UNL     1      50.553  29.757  35.644  1.00  0.00     0.138 A 
HETATM   19  C19 UNL     1      53.006  27.844  37.788  1.00  0.00     0.050 C 
HETATM   20  C20 UNL     1      52.465  27.784  35.418  1.00  0.00     0.001 A 
HETATM   21  C21 UNL     1      53.441  26.805  35.261  1.00  0.00     0.056 A 
HETATM   22  C25 UNL     1      51.674  28.188  34.375  1.00  0.00     0.044 A 
HETATM   23  C22 UNL     1      53.633  26.208  34.030  1.00  0.00     0.117 A 
HETATM   24  F1  UNL     1      54.579  25.248  33.850  1.00  0.00    -0.206 F 
HETATM   25  C23 UNL     1      52.844  26.600  32.974  1.00  0.00     0.044 A 
HETATM   26  C24 UNL     1      51.884  27.568  33.134  1.00  0.00     0.033 A 
HETATM   27  N5  UNL     1      50.748  29.139  34.478  1.00  0.00    -0.340 N 
ATOM     28  H5  UNL     1      50.188  29.395  33.665  1.00  0.00     0.167 HD
BRANCH  12  29
HETATM   29  N2  UNL     1      48.523  32.309  36.946  1.00  0.00    -0.234 N 
ATOM     30  H22 UNL     1      48.642  33.163  36.402  1.00  0.00     0.174 HD
ATOM     31  H21 UNL     1      47.710  32.179  37.548  1.00  0.00     0.174 HD
ENDBRANCH  12  29
BRANCH  14  32
HETATM   32  N4  UNL     1      51.844  30.016  39.099  1.00  0.00    -0.366 N 
HETATM   33  C13 UNL     1      52.919  30.871  39.485  1.00  0.00     0.124 C 
HETATM   34  C14 UNL     1      53.493  30.389  40.761  1.00  0.00     0.021 C 
HETATM   35  C15 UNL     1      52.671  29.225  41.160  1.00  0.00     0.021 C 
HETATM   36  C16 UNL     1      51.494  29.237  40.250  1.00  0.00     0.124 C 
ENDBRANCH  14  32
ENDBRANCH  10  11
ENDBRANCH   9  10
ENDBRANCH   8   9
ENDBRANCH   7   8
ENDBRANCH   6   7
ENDBRANCH   4   5
ENDBRANCH   3   4
TORSDOF 9
ENDMDL
MODEL 3
REMARK VINA RESULT: -7.470563275      2.717      8.075
REMARK  9 active torsions:
REMARK  status: ('A' for Active; 'I' for Inactive)
REMARK    1  A    between atoms: C3_3  and  C4_4 
REMARK    2  A    between atoms: C4_4  and  C5_5 
REMARK    3  A    between atoms: C6_6  and  C7_7 
REMARK    4  A    between atoms: C7_7  and  C8_8 
REMARK    5  A    between atoms: C8_8  and  C9_9 
REMARK    6  A    between atoms: C9_9  and  C10_10 
REMARK    7  A    between atoms: C10_10  and  N1_11 
REMARK    8  A    between atoms: C11_12  and  N2_13 
REMARK    9  A    between atoms: C12_18  and  N4_19 
ROOT
HETATM    1  C1  UNL     1      52.276  27.244  38.591  1.00  0.00     0.012 C 
HETATM    2  C2  UNL     1      51.691  28.265  38.332  1.00  0.00    -0.117 C 
HETATM    3  C3  UNL     1      50.947  29.526  38.029  1.00  0.00     0.097 C 
ENDROOT
BRANCH   3   4
HETATM    4  C4  UNL     1      51.190  30.459  39.167  1.00  0.00     0.039 C 
BRANCH   4   5
HETATM    5  C5  UNL     1      50.091  31.322  39.580  1.00  0.00    -0.030 C 
HETATM    6  C6  UNL     1      49.627  32.556  39.002  1.00  0.00    -0.031 C 
BRANCH   6   7
HETATM    7  C7  UNL     1      49.246  32.869  37.632  1.00  0.00     0.027 C 
BRANCH   7   8
HETATM    8  C8  UNL     1      47.940  32.401  37.137  1.00  0.00     0.005 C 
BRANCH   8   9
HETATM    9  C9  UNL     1      48.021  31.053  36.429  1.00  0.00     0.021 C 
BRANCH   9  10
HETATM   10  C10 UNL     1      48.596  31.133  35.055  1.00  0.00     0.149 C 
BRANCH  10  11
HETATM   11  N1  UNL     1      48.222  29.950  34.279  1.00  0.00    -0.168 N 
HETATM   12  C11 UNL     1      46.994  29.702  33.827  1.00  0.00     0.681 A 
HETATM   13  N3  UNL     1      46.733  28.609  33.125  1.00  0.00    -0.176 N 
HETATM   14  C12 UNL     1      47.710  27.649  32.809  1.00  0.00     0.133 A 
ATOM     15  H3  UNL     1      45.778  28.457  32.798  1.00  0.00     0.186 HD
HETATM   16  C17 UNL     1      48.955  27.877  33.246  1.00  0.00     0.060 A 
HETATM   17  C18 UNL     1      49.979  26.991  32.987  1.00  0.00    -0.032 A 
HETATM   18  C26 UNL     1      49.212  29.043  33.994  1.00  0.00     0.138 A 
HETATM   19  C19 UNL     1      49.883  25.855  32.079  1.00  0.00     0.050 C 
HETATM   20  C20 UNL     1      51.263  27.269  33.498  1.00  0.00     0.001 A 
HETATM   21  C21 UNL     1      52.314  26.381  33.291  1.00  0.00     0.056 A 
HETATM   22  C25 UNL     1      51.424  28.421  34.219  1.00  0.00     0.044 A 
HETATM   23  C22 UNL     1      53.563  26.651  33.815  1.00  0.00     0.117 A 
HETATM   24  F1  UNL     1      54.607  25.800  33.628  1.00  0.00    -0.206 F 
HETATM   25  C23 UNL     1      53.742  27.806  34.539  1.00  0.00     0.044 A 
HETATM   26  C24 UNL     1      52.700  28.677  34.742  1.00  0.00     0.033 A 
HETATM   27  N5  UNL     1      50.438  29.282  34.461  1.00  0.00    -0.340 N 
ATOM     28  H5  UNL     1      50.620  30.127  35.004  1.00  0.00     0.167 HD
BRANCH  12  29
HETATM   29  N2  UNL     1      46.036  30.537  34.084  1.00  0.00    -0.234 N 
ATOM     30  H22 UNL     1      46.159  31.525  33.862  1.00  0.00     0.174 HD
ATOM     31  H21 UNL     1      45.169  30.197  34.498  1.00  0.00     0.174 HD
ENDBRANCH  12  29
BRANCH  14  32
HETATM   32  N4  UNL     1      47.177  26.528  32.202  1.00  0.00    -0.366 N 
HETATM   33  C13 UNL     1      46.726  25.335  32.842  1.00  0.00     0.124 C 
HETATM   34  C14 UNL     1      46.361  24.337  31.812  1.00  0.00     0.021 C 
HETATM   35  C15 UNL     1      46.561  25.008  30.509  1.00  0.00     0.021 C 
HETATM   36  C16 UNL     1      46.776  26.445  30.828  1.00  0.00     0.124 C 
ENDBRANCH  14  32
ENDBRANCH  10  11
ENDBRANCH   9  10
ENDBRANCH   8   9
ENDBRANCH   7   8
ENDBRANCH   6   7
ENDBRANCH   4   5
ENDBRANCH   3   4
TORSDOF 9
ENDMDL
MODEL 4
REMARK VINA RESULT: -7.436109076      2.494      4.701
REMARK  9 active torsions:
REMARK  status: ('A' for Active; 'I' for Inactive)
REMARK    1  A    between atoms: C3_3  and  C4_4 
REMARK    2  A    between atoms: C4_4  and  C5_5 
REMARK    3  A    between atoms: C6_6  and  C7_7 
REMARK    4  A    between atoms: C7_7  and  C8_8 
REMARK    5  A    between atoms: C8_8  and  C9_9 
REMARK    6  A    between atoms: C9_9  and  C10_10 
REMARK    7  A    between atoms: C10_10  and  N1_11 
REMARK    8  A    between atoms: C11_12  and  N2_13 
REMARK    9  A    between atoms: C12_18  and  N4_19 
ROOT
HETATM    1  C1  UNL     1      48.747  25.454  30.898  1.00  0.00     0.012 C 
HETATM    2  C2  UNL     1      47.854  25.246  31.680  1.00  0.00    -0.117 C 
HETATM    3  C3  UNL     1      46.744  25.015  32.654  1.00  0.00     0.097 C 
ENDROOT
BRANCH   3   4
HETATM    4  C4  UNL     1      45.493  25.516  32.016  1.00  0.00     0.039 C 
BRANCH   4   5
HETATM    5  C5  UNL     1      45.504  26.870  31.478  1.00  0.00    -0.030 C 
HETATM    6  C6  UNL     1      45.652  28.128  32.162  1.00  0.00    -0.031 C 
BRANCH   6   7
HETATM    7  C7  UNL     1      46.680  28.579  33.089  1.00  0.00     0.027 C 
BRANCH   7   8
HETATM    8  C8  UNL     1      46.936  30.025  33.210  1.00  0.00     0.005 C 
BRANCH   8   9
HETATM    9  C9  UNL     1      47.483  30.419  34.577  1.00  0.00     0.021 C 
BRANCH   9  10
HETATM   10  C10 UNL     1      48.818  31.082  34.520  1.00  0.00     0.149 C 
BRANCH  10  11
HETATM   11  N1  UNL     1      49.578  30.801  35.738  1.00  0.00    -0.168 N 
HETATM   12  C11 UNL     1      49.413  31.442  36.895  1.00  0.00     0.681 A 
HETATM   13  N3  UNL     1      50.137  31.126  37.959  1.00  0.00    -0.176 N 
HETATM   14  C12 UNL     1      51.111  30.113  37.950  1.00  0.00     0.133 A 
ATOM     15  H3  UNL     1      49.979  31.643  38.825  1.00  0.00     0.186 HD
HETATM   16  C17 UNL     1      51.293  29.448  36.802  1.00  0.00     0.060 A 
HETATM   17  C18 UNL     1      52.227  28.440  36.698  1.00  0.00    -0.032 A 
HETATM   18  C26 UNL     1      50.516  29.801  35.681  1.00  0.00     0.138 A 
HETATM   19  C19 UNL     1      52.954  27.864  37.821  1.00  0.00     0.050 C 
HETATM   20  C20 UNL     1      52.394  27.795  35.455  1.00  0.00     0.001 A 
HETATM   21  C21 UNL     1      53.353  26.800  35.298  1.00  0.00     0.056 A 
HETATM   22  C25 UNL     1      51.602  28.204  34.416  1.00  0.00     0.044 A 
HETATM   23  C22 UNL     1      53.525  26.190  34.071  1.00  0.00     0.117 A 
HETATM   24  F1  UNL     1      54.454  25.213  33.891  1.00  0.00    -0.206 F 
HETATM   25  C23 UNL     1      52.736  26.587  33.018  1.00  0.00     0.044 A 
HETATM   26  C24 UNL     1      51.792  27.572  33.178  1.00  0.00     0.033 A 
HETATM   27  N5  UNL     1      50.693  29.171  34.519  1.00  0.00    -0.340 N 
ATOM     28  H5  UNL     1      50.131  29.431  33.708  1.00  0.00     0.167 HD
BRANCH  12  29
HETATM   29  N2  UNL     1      48.538  32.395  36.979  1.00  0.00    -0.234 N 
ATOM     30  H22 UNL     1      48.494  33.101  36.245  1.00  0.00     0.174 HD
ATOM     31  H21 UNL     1      47.900  32.425  37.774  1.00  0.00     0.174 HD
ENDBRANCH  12  29
BRANCH  14  32
HETATM   32  N4  UNL     1      51.838  30.065  39.125  1.00  0.00    -0.366 N 
HETATM   33  C13 UNL     1      52.931  30.904  39.495  1.00  0.00     0.124 C 
HETATM   34  C14 UNL     1      53.506  30.421  40.770  1.00  0.00     0.021 C 
HETATM   35  C15 UNL     1      52.667  29.276  41.186  1.00  0.00     0.021 C 
HETATM   36  C16 UNL     1      51.483  29.302  40.285  1.00  0.00     0.124 C 
ENDBRANCH  14  32
ENDBRANCH  10  11
ENDBRANCH   9  10
ENDBRANCH   8   9
ENDBRANCH   7   8
ENDBRANCH   6   7
ENDBRANCH   4   5
ENDBRANCH   3   4
TORSDOF 9
ENDMDL
MODEL 5
REMARK VINA RESULT: -7.362049135      2.338      3.266
REMARK  9 active torsions:
REMARK  status: ('A' for Active; 'I' for Inactive)
REMARK    1  A    between atoms: C3_3  and  C4_4 
REMARK    2  A    between atoms: C4_4  and  C5_5 
REMARK    3  A    between atoms: C6_6  and  C7_7 
REMARK    4  A    between atoms: C7_7  and  C8_8 
REMARK    5  A    between atoms: C8_8  and  C9_9 
REMARK    6  A    between atoms: C9_9  and  C10_10 
REMARK    7  A    between atoms: C10_10  and  N1_11 
REMARK    8  A    between atoms: C11_12  and  N2_13 
REMARK    9  A    between atoms: C12_18  and  N4_19 
ROOT
HETATM    1  C1  UNL     1      46.151  30.054  33.529  1.00  0.00     0.012 C 
HETATM    2  C2  UNL     1      46.954  29.166  33.390  1.00  0.00    -0.117 C 
HETATM    3  C3  UNL     1      47.938  28.051  33.238  1.00  0.00     0.097 C 
ENDROOT
BRANCH   3   4
HETATM    4  C4  UNL     1      47.196  26.889  32.672  1.00  0.00     0.039 C 
BRANCH   4   5
HETATM    5  C5  UNL     1      47.974  25.735  32.238  1.00  0.00    -0.030 C 
HETATM    6  C6  UNL     1      48.840  25.589  31.097  1.00  0.00    -0.031 C 
BRANCH   6   7
HETATM    7  C7  UNL     1      49.961  26.405  30.656  1.00  0.00     0.027 C 
BRANCH   7   8
HETATM    8  C8  UNL     1      51.063  26.660  31.600  1.00  0.00     0.005 C 
BRANCH   8   9
HETATM    9  C9  UNL     1      52.310  27.217  30.922  1.00  0.00     0.021 C 
BRANCH   9  10
HETATM   10  C10 UNL     1      52.947  28.340  31.669  1.00  0.00     0.149 C 
BRANCH  10  11
HETATM   11  N1  UNL     1      53.617  27.836  32.869  1.00  0.00    -0.168 N 
HETATM   12  C11 UNL     1      54.696  27.054  32.858  1.00  0.00     0.681 A 
HETATM   13  N3  UNL     1      55.251  26.641  33.988  1.00  0.00    -0.176 N 
HETATM   14  C12 UNL     1      54.756  26.991  35.257  1.00  0.00     0.133 A 
ATOM     15  H3  UNL     1      56.075  26.042  33.935  1.00  0.00     0.186 HD
HETATM   16  C17 UNL     1      53.677  27.782  35.297  1.00  0.00     0.060 A 
HETATM   17  C18 UNL     1      53.121  28.176  36.495  1.00  0.00    -0.032 A 
HETATM   18  C26 UNL     1      53.100  28.207  34.084  1.00  0.00     0.138 A 
HETATM   19  C19 UNL     1      53.727  27.958  37.802  1.00  0.00     0.050 C 
HETATM   20  C20 UNL     1      51.967  28.986  36.474  1.00  0.00     0.001 A 
HETATM   21  C21 UNL     1      51.353  29.372  37.661  1.00  0.00     0.056 A 
HETATM   22  C25 UNL     1      51.467  29.348  35.252  1.00  0.00     0.044 A 
HETATM   23  C22 UNL     1      50.209  30.147  37.630  1.00  0.00     0.117 A 
HETATM   24  F1  UNL     1      49.590  30.539  38.776  1.00  0.00    -0.206 F 
HETATM   25  C23 UNL     1      49.697  30.522  36.411  1.00  0.00     0.044 A 
HETATM   26  C24 UNL     1      50.306  30.135  35.242  1.00  0.00     0.033 A 
HETATM   27  N5  UNL     1      52.010  28.977  34.095  1.00  0.00    -0.340 N 
ATOM     28  H5  UNL     1      51.592  29.281  33.215  1.00  0.00     0.167 HD
BRANCH  12  29
HETATM   29  N2  UNL     1      55.205  26.681  31.725  1.00  0.00    -0.234 N 
ATOM     30  H22 UNL     1      56.071  26.142  31.719  1.00  0.00     0.174 HD
ATOM     31  H21 UNL     1      54.731  26.923  30.856  1.00  0.00     0.174 HD
ENDBRANCH  12  29
BRANCH  14  32
HETATM   32  N4  UNL     1      55.404  26.326  36.281  1.00  0.00    -0.366 N 
HETATM   33  C13 UNL     1      55.080  25.042  36.813  1.00  0.00     0.124 C 
HETATM   34  C14 UNL     1      55.938  24.770  37.988  1.00  0.00     0.021 C 
HETATM   35  C15 UNL     1      56.842  25.935  38.107  1.00  0.00     0.021 C 
HETATM   36  C16 UNL     1      56.661  26.711  36.851  1.00  0.00     0.124 C 
ENDBRANCH  14  32
ENDBRANCH  10  11
ENDBRANCH   9  10
ENDBRANCH   8   9
ENDBRANCH   7   8
ENDBRANCH   6   7
ENDBRANCH   4   5
ENDBRANCH   3   4
TORSDOF 9
ENDMDL
