MODEL 1
REMARK VINA RESULT: -7.613054918      0.000      0.000
REMARK  4 active torsions:
REMARK  status: ('A' for Active; 'I' for Inactive)
REMARK    1  A    between atoms: C2_2  and  O1_3 
REMARK    2  A    between atoms: C2_2  and  C3_5 
REMARK    3  A    between atoms: C3_5  and  O2_6 
REMARK    4  A    between atoms: C3_5  and  C4_8 
ROOT
HETATM    1  C4  UNL     1      -4.828   2.359  14.638  1.00  0.00     0.264 C 
HETATM    2  O3  UNL     1      -3.746   1.951  13.854  1.00  0.00    -0.224 OA
HETATM    3  O4  UNL     1      -2.909   2.929  13.748  1.00  0.00    -0.220 OA
HETATM    4  C5  UNL     1      -3.637   4.111  13.610  1.00  0.00     0.167 C 
HETATM    5  C6  UNL     1      -2.895   5.256  14.293  1.00  0.00     0.059 C 
HETATM    6  C7  UNL     1      -2.885   6.490  13.418  1.00  0.00    -0.041 C 
HETATM    7  C8  UNL     1      -2.369   7.638  14.250  1.00  0.00     0.015 C 
HETATM    8  C9  UNL     1      -1.983   6.186  12.240  1.00  0.00     0.010 C 
HETATM    9  C10 UNL     1      -2.437   4.865  11.642  1.00  0.00     0.013 C 
HETATM   10  C11 UNL     1      -3.823   4.489  12.181  1.00  0.00    -0.002 C 
HETATM   11  C12 UNL     1      -4.389   3.400  11.321  1.00  0.00     0.019 C 
HETATM   12  C13 UNL     1      -4.759   5.672  12.083  1.00  0.00     0.013 C 
HETATM   13  C14 UNL     1      -4.244   6.824  12.875  1.00  0.00     0.010 C 
HETATM   14  C15 UNL     1      -4.866   3.815  14.353  1.00  0.00     0.199 C 
HETATM   15  O5  UNL     1      -5.767   4.542  14.698  1.00  0.00    -0.291 OA
ENDROOT
BRANCH   1  16
HETATM   16  C3  UNL     1      -4.448   2.085  16.082  1.00  0.00     0.186 C 
BRANCH  16  17
HETATM   17  C2  UNL     1      -5.216   0.864  16.583  1.00  0.00     0.145 C 
HETATM   18  C1  UNL     1      -6.671   1.254  16.748  1.00  0.00     0.042 C 
BRANCH  17  19
HETATM   19  O1  UNL     1      -5.079  -0.207  15.705  1.00  0.00    -0.393 OA
ATOM     20  H1  UNL     1      -5.918  -0.456  15.335  1.00  0.00     0.210 HD
ENDBRANCH  17  19
ENDBRANCH  16  17
BRANCH  16  21
HETATM   21  O2  UNL     1      -3.098   1.756  16.185  1.00  0.00    -0.390 OA
ATOM     22  H2  UNL     1      -2.874   1.863  17.101  1.00  0.00     0.210 HD
ENDBRANCH  16  21
ENDBRANCH   1  16
TORSDOF 4
ENDMDL
MODEL 2
REMARK VINA RESULT: -7.426348149      2.443      4.071
REMARK  4 active torsions:
REMARK  status: ('A' for Active; 'I' for Inactive)
REMARK    1  A    between atoms: C2_2  and  O1_3 
REMARK    2  A    between atoms: C2_2  and  C3_5 
REMARK    3  A    between atoms: C3_5  and  O2_6 
REMARK    4  A    between atoms: C3_5  and  C4_8 
ROOT
HETATM    1  C4  UNL     1      -3.836   1.441  12.375  1.00  0.00     0.264 C 
HETATM    2  O3  UNL     1      -5.212   1.455  12.616  1.00  0.00    -0.224 OA
HETATM    3  O4  UNL     1      -5.668   2.641  12.387  1.00  0.00    -0.220 OA
HETATM    4  C5  UNL     1      -4.732   3.564  12.856  1.00  0.00     0.167 C 
HETATM    5  C6  UNL     1      -4.731   4.798  11.959  1.00  0.00     0.059 C 
HETATM    6  C7  UNL     1      -4.714   6.065  12.785  1.00  0.00    -0.041 C 
HETATM    7  C8  UNL     1      -4.457   7.220  11.849  1.00  0.00     0.015 C 
HETATM    8  C9  UNL     1      -6.065   6.166  13.461  1.00  0.00     0.010 C 
HETATM    9  C10 UNL     1      -6.333   4.841  14.154  1.00  0.00     0.013 C 
HETATM   10  C11 UNL     1      -5.042   4.019  14.241  1.00  0.00    -0.002 C 
HETATM   11  C12 UNL     1      -5.249   2.909  15.226  1.00  0.00     0.019 C 
HETATM   12  C13 UNL     1      -3.911   4.877  14.761  1.00  0.00     0.013 C 
HETATM   13  C14 UNL     1      -3.668   6.039  13.861  1.00  0.00     0.010 C 
HETATM   14  C15 UNL     1      -3.466   2.842  12.694  1.00  0.00     0.199 C 
HETATM   15  O5  UNL     1      -2.326   3.230  12.784  1.00  0.00    -0.291 OA
ENDROOT
BRANCH   1  16
HETATM   16  C3  UNL     1      -3.654   1.140  10.899  1.00  0.00     0.186 C 
BRANCH  16  17
HETATM   17  C2  UNL     1      -3.107  -0.277  10.735  1.00  0.00     0.145 C 
HETATM   18  C1  UNL     1      -3.909  -1.200  11.631  1.00  0.00     0.042 C 
BRANCH  17  19
HETATM   19  O1  UNL     1      -3.171  -0.686   9.407  1.00  0.00    -0.393 OA
ATOM     20  H1  UNL     1      -3.716  -1.458   9.312  1.00  0.00     0.210 HD
ENDBRANCH  17  19
ENDBRANCH  16  17
BRANCH  16  21
HETATM   21  O2  UNL     1      -4.879   1.156  10.236  1.00  0.00    -0.390 OA
ATOM     22  H2  UNL     1      -5.044   2.065  10.017  1.00  0.00     0.210 HD
ENDBRANCH  16  21
ENDBRANCH   1  16
TORSDOF 4
ENDMDL
MODEL 3
REMARK VINA RESULT: -7.159158872      2.438      3.783
REMARK  4 active torsions:
REMARK  status: ('A' for Active; 'I' for Inactive)
REMARK    1  A    between atoms: C2_2  and  O1_3 
REMARK    2  A    between atoms: C2_2  and  C3_5 
REMARK    3  A    between atoms: C3_5  and  O2_6 
REMARK    4  A    between atoms: C3_5  and  C4_8 
ROOT
HETATM    1  C4  UNL     1      -3.222   2.056  11.105  1.00  0.00     0.264 C 
HETATM    2  O3  UNL     1      -2.462   2.078  12.277  1.00  0.00    -0.224 OA
HETATM    3  O4  UNL     1      -3.105   2.732  13.185  1.00  0.00    -0.220 OA
HETATM    4  C5  UNL     1      -3.727   3.823  12.577  1.00  0.00     0.167 C 
HETATM    5  C6  UNL     1      -5.059   4.108  13.266  1.00  0.00     0.059 C 
HETATM    6  C7  UNL     1      -5.232   5.589  13.515  1.00  0.00    -0.041 C 
HETATM    7  C8  UNL     1      -6.656   5.817  13.956  1.00  0.00     0.015 C 
HETATM    8  C9  UNL     1      -4.233   5.973  14.586  1.00  0.00     0.010 C 
HETATM    9  C10 UNL     1      -2.872   5.455  14.153  1.00  0.00     0.013 C 
HETATM   10  C11 UNL     1      -2.902   5.060  12.672  1.00  0.00    -0.002 C 
HETATM   11  C12 UNL     1      -1.492   4.904  12.192  1.00  0.00     0.019 C 
HETATM   12  C13 UNL     1      -3.538   6.161  11.852  1.00  0.00     0.013 C 
HETATM   13  C14 UNL     1      -4.935   6.418  12.299  1.00  0.00     0.010 C 
HETATM   14  C15 UNL     1      -3.976   3.329  11.219  1.00  0.00     0.199 C 
HETATM   15  O5  UNL     1      -4.639   3.798  10.325  1.00  0.00    -0.291 OA
ENDROOT
BRANCH   1  16
HETATM   16  C3  UNL     1      -4.143   0.854  11.205  1.00  0.00     0.186 C 
BRANCH  16  17
HETATM   17  C2  UNL     1      -3.384  -0.401  10.780  1.00  0.00     0.145 C 
HETATM   18  C1  UNL     1      -3.934  -1.575  11.566  1.00  0.00     0.042 C 
BRANCH  17  19
HETATM   19  O1  UNL     1      -3.500  -0.615   9.411  1.00  0.00    -0.393 OA
ATOM     20  H1  UNL     1      -2.731  -0.302   8.948  1.00  0.00     0.210 HD
ENDBRANCH  17  19
ENDBRANCH  16  17
BRANCH  16  21
HETATM   21  O2  UNL     1      -4.532   0.637  12.525  1.00  0.00    -0.390 OA
ATOM     22  H2  UNL     1      -5.108  -0.118  12.506  1.00  0.00     0.210 HD
ENDBRANCH  16  21
ENDBRANCH   1  16
TORSDOF 4
ENDMDL
MODEL 4
REMARK VINA RESULT: -7.116574965      2.173      3.832
REMARK  4 active torsions:
REMARK  status: ('A' for Active; 'I' for Inactive)
REMARK    1  A    between atoms: C2_2  and  O1_3 
REMARK    2  A    between atoms: C2_2  and  C3_5 
REMARK    3  A    between atoms: C3_5  and  O2_6 
REMARK    4  A    between atoms: C3_5  and  C4_8 
ROOT
HETATM    1  C4  UNL     1      -3.906   1.678  12.390  1.00  0.00     0.264 C 
HETATM    2  O3  UNL     1      -4.961   2.257  13.098  1.00  0.00    -0.224 OA
HETATM    3  O4  UNL     1      -5.013   3.518  12.822  1.00  0.00    -0.220 OA
HETATM    4  C5  UNL     1      -3.706   3.998  12.738  1.00  0.00     0.167 C 
HETATM    5  C6  UNL     1      -3.627   5.094  11.679  1.00  0.00     0.059 C 
HETATM    6  C7  UNL     1      -2.826   6.274  12.182  1.00  0.00    -0.041 C 
HETATM    7  C8  UNL     1      -2.576   7.191  11.011  1.00  0.00     0.015 C 
HETATM    8  C9  UNL     1      -3.653   6.937  13.263  1.00  0.00     0.010 C 
HETATM    9  C10 UNL     1      -4.072   5.860  14.249  1.00  0.00     0.013 C 
HETATM   10  C11 UNL     1      -3.244   4.588  14.026  1.00  0.00    -0.002 C 
HETATM   11  C12 UNL     1      -3.416   3.693  15.215  1.00  0.00     0.019 C 
HETATM   12  C13 UNL     1      -1.775   4.933  13.931  1.00  0.00     0.013 C 
HETATM   13  C14 UNL     1      -1.519   5.864  12.797  1.00  0.00     0.010 C 
HETATM   14  C15 UNL     1      -2.964   2.820  12.278  1.00  0.00     0.199 C 
HETATM   15  O5  UNL     1      -1.829   2.716  11.878  1.00  0.00    -0.291 OA
ENDROOT
BRANCH   1  16
HETATM   16  C3  UNL     1      -4.457   1.277  11.034  1.00  0.00     0.186 C 
BRANCH  16  17
HETATM   17  C2  UNL     1      -4.434  -0.244  10.908  1.00  0.00     0.145 C 
HETATM   18  C1  UNL     1      -3.153  -0.642  10.201  1.00  0.00     0.042 C 
BRANCH  17  19
HETATM   19  O1  UNL     1      -4.527  -0.850  12.157  1.00  0.00    -0.393 OA
ATOM     20  H1  UNL     1      -4.930  -0.268  12.791  1.00  0.00     0.210 HD
ENDBRANCH  17  19
ENDBRANCH  16  17
BRANCH  16  21
HETATM   21  O2  UNL     1      -5.794   1.650  10.914  1.00  0.00    -0.390 OA
ATOM     22  H2  UNL     1      -5.816   2.331  10.252  1.00  0.00     0.210 HD
ENDBRANCH  16  21
ENDBRANCH   1  16
TORSDOF 4
ENDMDL
MODEL 5
REMARK VINA RESULT: -7.058755006      1.426      2.766
REMARK  4 active torsions:
REMARK  status: ('A' for Active; 'I' for Inactive)
REMARK    1  A    between atoms: C2_2  and  O1_3 
REMARK    2  A    between atoms: C2_2  and  C3_5 
REMARK    3  A    between atoms: C3_5  and  O2_6 
REMARK    4  A    between atoms: C3_5  and  C4_8 
ROOT
HETATM    1  C4  UNL     1      -4.833   2.561  16.096  1.00  0.00     0.264 C 
HETATM    2  O3  UNL     1      -5.902   2.886  15.258  1.00  0.00    -0.224 OA
HETATM    3  O4  UNL     1      -5.508   2.827  14.030  1.00  0.00    -0.220 OA
HETATM    4  C5  UNL     1      -4.213   3.343  13.964  1.00  0.00     0.167 C 
HETATM    5  C6  UNL     1      -3.415   2.600  12.897  1.00  0.00     0.059 C 
HETATM    6  C7  UNL     1      -2.630   3.566  12.039  1.00  0.00    -0.041 C 
HETATM    7  C8  UNL     1      -1.682   2.758  11.188  1.00  0.00     0.015 C 
HETATM    8  C9  UNL     1      -3.637   4.331  11.206  1.00  0.00     0.010 C 
HETATM    9  C10 UNL     1      -4.694   4.878  12.149  1.00  0.00     0.013 C 
HETATM   10  C11 UNL     1      -4.206   4.788  13.600  1.00  0.00    -0.002 C 
HETATM   11  C12 UNL     1      -5.089   5.647  14.454  1.00  0.00     0.019 C 
HETATM   12  C13 UNL     1      -2.801   5.336  13.712  1.00  0.00     0.013 C 
HETATM   13  C14 UNL     1      -1.860   4.566  12.852  1.00  0.00     0.010 C 
HETATM   14  C15 UNL     1      -3.675   3.020  15.289  1.00  0.00     0.199 C 
HETATM   15  O5  UNL     1      -2.546   3.085  15.713  1.00  0.00    -0.291 OA
ENDROOT
BRANCH   1  16
HETATM   16  C3  UNL     1      -4.840   1.052  16.250  1.00  0.00     0.186 C 
BRANCH  16  17
HETATM   17  C2  UNL     1      -5.929   0.650  17.242  1.00  0.00     0.145 C 
HETATM   18  C1  UNL     1      -6.052   1.747  18.281  1.00  0.00     0.042 C 
BRANCH  17  19
HETATM   19  O1  UNL     1      -7.141   0.435  16.593  1.00  0.00    -0.393 OA
ATOM     20  H1  UNL     1      -7.012  -0.016  15.766  1.00  0.00     0.210 HD
ENDBRANCH  17  19
ENDBRANCH  16  17
BRANCH  16  21
HETATM   21  O2  UNL     1      -5.173   0.434  15.046  1.00  0.00    -0.390 OA
ATOM     22  H2  UNL     1      -5.525   1.119  14.491  1.00  0.00     0.210 HD
ENDBRANCH  16  21
ENDBRANCH   1  16
TORSDOF 4
ENDMDL
