MODEL 1
REMARK VINA RESULT: -7.746361566      0.000      0.000
REMARK  11 active torsions:
REMARK  status: ('A' for Active; 'I' for Inactive)
REMARK    1  A    between atoms: C2_2  and  C4_4 
REMARK    2  A    between atoms: C4_4  and  N1_5 
REMARK    3  A    between atoms: N1_5  and  C6_7 
REMARK    4  A    between atoms: C6_7  and  C7_8 
REMARK    5  A    between atoms: C7_8  and  C8_9 
REMARK    6  A    between atoms: C8_9  and  N2_10 
REMARK    7  A    between atoms: N2_10  and  C9_12 
REMARK    8  A    between atoms: C9_12  and  N3_14 
REMARK    9  A    between atoms: N3_14  and  C10_16 
REMARK   10  A    between atoms: C10_16  and  C11_17 
REMARK   11  A    between atoms: C11_17  and  C12_18 
ROOT
HETATM    1  C9  UNL     1      32.225  84.181   0.829  1.00  0.00     0.171 C 
HETATM    2  S1  UNL     1      33.478  84.799   1.841  1.00  0.00    -0.041 SA
ENDROOT
BRANCH   1   3
HETATM    3  N2  UNL     1      32.676  83.205  -0.041  1.00  0.00    -0.367 N 
ATOM      4  H2  UNL     1      31.951  82.544  -0.318  1.00  0.00     0.161 HD
BRANCH   3   5
HETATM    5  C8  UNL     1      33.932  82.933  -0.624  1.00  0.00     0.123 C 
BRANCH   5   6
HETATM    6  C7  UNL     1      34.229  81.399  -0.409  1.00  0.00     0.050 C 
BRANCH   6   7
HETATM    7  C6  UNL     1      34.763  80.980  -1.725  1.00  0.00     0.274 C 
BRANCH   7   8
HETATM    8  N1  UNL     1      34.695  79.602  -2.102  1.00  0.00     0.088 N 
HETATM    9  C5  UNL     1      34.220  78.742  -1.063  1.00  0.00     0.310 C 
BRANCH   8  10
HETATM   10  C4  UNL     1      35.986  79.237  -2.650  1.00  0.00     0.305 C 
BRANCH  10  11
HETATM   11  C2  UNL     1      35.960  78.356  -3.810  1.00  0.00    -0.065 C 
HETATM   12  C1  UNL     1      37.041  77.628  -4.072  1.00  0.00     0.015 C 
HETATM   13  C3  UNL     1      34.771  78.174  -4.683  1.00  0.00     0.044 C 
ENDBRANCH  10  11
ENDBRANCH   8  10
ENDBRANCH   7   8
ENDBRANCH   6   7
ENDBRANCH   5   6
ENDBRANCH   3   5
ENDBRANCH   1   3
BRANCH   1  14
HETATM   14  N3  UNL     1      30.986  84.725   1.027  1.00  0.00    -0.347 N 
ATOM     15  H3  UNL     1      30.226  84.139   0.683  1.00  0.00     0.167 HD
BRANCH  14  16
HETATM   16  C10 UNL     1      30.545  85.928   1.607  1.00  0.00     0.068 C 
BRANCH  16  17
HETATM   17  C11 UNL     1      29.057  85.763   1.897  1.00  0.00     0.090 C 
BRANCH  17  18
HETATM   18  C12 UNL     1      28.245  86.354   0.791  1.00  0.00    -0.011 A 
HETATM   19  C13 UNL     1      28.743  87.132  -0.209  1.00  0.00     0.017 A 
HETATM   20  C14 UNL     1      27.872  87.573  -1.139  1.00  0.00     0.028 A 
HETATM   21  C15 UNL     1      26.563  87.197  -0.995  1.00  0.00     0.051 A 
HETATM   22 BR1  UNL     1      25.092  87.659  -2.155  1.00  0.00    -0.043 Br
HETATM   23  S2  UNL     1      26.581  86.250   0.420  1.00  0.00    -0.087 SA
ENDBRANCH  17  18
ENDBRANCH  16  17
ENDBRANCH  14  16
ENDBRANCH   1  14
TORSDOF 11
ENDMDL
MODEL 2
REMARK VINA RESULT: -7.727310080      0.877      1.036
REMARK  11 active torsions:
REMARK  status: ('A' for Active; 'I' for Inactive)
REMARK    1  A    between atoms: C2_2  and  C4_4 
REMARK    2  A    between atoms: C4_4  and  N1_5 
REMARK    3  A    between atoms: N1_5  and  C6_7 
REMARK    4  A    between atoms: C6_7  and  C7_8 
REMARK    5  A    between atoms: C7_8  and  C8_9 
REMARK    6  A    between atoms: C8_9  and  N2_10 
REMARK    7  A    between atoms: N2_10  and  C9_12 
REMARK    8  A    between atoms: C9_12  and  N3_14 
REMARK    9  A    between atoms: N3_14  and  C10_16 
REMARK   10  A    between atoms: C10_16  and  C11_17 
REMARK   11  A    between atoms: C11_17  and  C12_18 
ROOT
HETATM    1  C9  UNL     1      32.322  84.037   0.748  1.00  0.00     0.171 C 
HETATM    2  S1  UNL     1      33.558  84.717   1.742  1.00  0.00    -0.041 SA
ENDROOT
BRANCH   1   3
HETATM    3  N2  UNL     1      32.784  82.998  -0.039  1.00  0.00    -0.367 N 
ATOM      4  H2  UNL     1      32.038  82.406  -0.405  1.00  0.00     0.161 HD
BRANCH   3   5
HETATM    5  C8  UNL     1      34.072  82.586  -0.441  1.00  0.00     0.123 C 
BRANCH   5   6
HETATM    6  C7  UNL     1      34.082  81.009  -0.444  1.00  0.00     0.050 C 
BRANCH   6   7
HETATM    7  C6  UNL     1      35.283  80.689  -1.250  1.00  0.00     0.274 C 
BRANCH   7   8
HETATM    8  N1  UNL     1      35.446  79.367  -1.770  1.00  0.00     0.088 N 
HETATM    9  C5  UNL     1      36.675  78.743  -1.389  1.00  0.00     0.310 C 
BRANCH   8  10
HETATM   10  C4  UNL     1      35.215  79.432  -3.199  1.00  0.00     0.305 C 
BRANCH  10  11
HETATM   11  C2  UNL     1      34.418  78.351  -3.766  1.00  0.00    -0.065 C 
HETATM   12  C1  UNL     1      34.760  77.875  -4.958  1.00  0.00     0.015 C 
HETATM   13  C3  UNL     1      33.281  77.706  -3.060  1.00  0.00     0.044 C 
ENDBRANCH  10  11
ENDBRANCH   8  10
ENDBRANCH   7   8
ENDBRANCH   6   7
ENDBRANCH   5   6
ENDBRANCH   3   5
ENDBRANCH   1   3
BRANCH   1  14
HETATM   14  N3  UNL     1      31.084  84.605   0.877  1.00  0.00    -0.347 N 
ATOM     15  H3  UNL     1      30.338  84.048   0.461  1.00  0.00     0.167 HD
BRANCH  14  16
HETATM   16  C10 UNL     1      30.629  85.799   1.465  1.00  0.00     0.068 C 
BRANCH  16  17
HETATM   17  C11 UNL     1      29.149  85.605   1.775  1.00  0.00     0.090 C 
BRANCH  17  18
HETATM   18  C12 UNL     1      28.310  86.251   0.721  1.00  0.00    -0.011 A 
HETATM   19  C13 UNL     1      28.784  87.083  -0.248  1.00  0.00     0.017 A 
HETATM   20  C14 UNL     1      27.891  87.569  -1.134  1.00  0.00     0.028 A 
HETATM   21  C15 UNL     1      26.586  87.181  -0.979  1.00  0.00     0.051 A 
HETATM   22 BR1  UNL     1      25.088  87.699  -2.079  1.00  0.00    -0.043 Br
HETATM   23  S2  UNL     1      26.639  86.162   0.383  1.00  0.00    -0.087 SA
ENDBRANCH  17  18
ENDBRANCH  16  17
ENDBRANCH  14  16
ENDBRANCH   1  14
TORSDOF 11
ENDMDL
MODEL 3
REMARK VINA RESULT: -7.667850413      1.094      1.794
REMARK  11 active torsions:
REMARK  status: ('A' for Active; 'I' for Inactive)
REMARK    1  A    between atoms: C2_2  and  C4_4 
REMARK    2  A    between atoms: C4_4  and  N1_5 
REMARK    3  A    between atoms: N1_5  and  C6_7 
REMARK    4  A    between atoms: C6_7  and  C7_8 
REMARK    5  A    between atoms: C7_8  and  C8_9 
REMARK    6  A    between atoms: C8_9  and  N2_10 
REMARK    7  A    between atoms: N2_10  and  C9_12 
REMARK    8  A    between atoms: C9_12  and  N3_14 
REMARK    9  A    between atoms: N3_14  and  C10_16 
REMARK   10  A    between atoms: C10_16  and  C11_17 
REMARK   11  A    between atoms: C11_17  and  C12_18 
ROOT
HETATM    1  C9  UNL     1      32.215  84.189   0.800  1.00  0.00     0.171 C 
HETATM    2  S1  UNL     1      33.485  84.829   1.778  1.00  0.00    -0.041 SA
ENDROOT
BRANCH   1   3
HETATM    3  N2  UNL     1      32.660  83.224  -0.085  1.00  0.00    -0.367 N 
ATOM      4  H2  UNL     1      31.904  82.717  -0.544  1.00  0.00     0.161 HD
BRANCH   3   5
HETATM    5  C8  UNL     1      33.944  82.795  -0.484  1.00  0.00     0.123 C 
BRANCH   5   6
HETATM    6  C7  UNL     1      34.071  81.270  -0.100  1.00  0.00     0.050 C 
BRANCH   6   7
HETATM    7  C6  UNL     1      35.037  80.759  -1.098  1.00  0.00     0.274 C 
BRANCH   7   8
HETATM    8  N1  UNL     1      35.135  79.349  -1.320  1.00  0.00     0.088 N 
HETATM    9  C5  UNL     1      36.469  78.894  -1.563  1.00  0.00     0.310 C 
BRANCH   8  10
HETATM   10  C4  UNL     1      34.178  79.004  -2.352  1.00  0.00     0.305 C 
BRANCH  10  11
HETATM   11  C2  UNL     1      33.087  78.128  -1.943  1.00  0.00    -0.065 C 
HETATM   12  C1  UNL     1      32.216  77.735  -2.865  1.00  0.00     0.015 C 
HETATM   13  C3  UNL     1      32.929  77.595  -0.565  1.00  0.00     0.044 C 
ENDBRANCH  10  11
ENDBRANCH   8  10
ENDBRANCH   7   8
ENDBRANCH   6   7
ENDBRANCH   5   6
ENDBRANCH   3   5
ENDBRANCH   1   3
BRANCH   1  14
HETATM   14  N3  UNL     1      30.973  84.710   1.034  1.00  0.00    -0.347 N 
ATOM     15  H3  UNL     1      30.214  84.100   0.730  1.00  0.00     0.167 HD
BRANCH  14  16
HETATM   16  C10 UNL     1      30.526  85.914   1.608  1.00  0.00     0.068 C 
BRANCH  16  17
HETATM   17  C11 UNL     1      29.035  85.750   1.881  1.00  0.00     0.090 C 
BRANCH  17  18
HETATM   18  C12 UNL     1      28.236  86.352   0.772  1.00  0.00    -0.011 A 
HETATM   19  C13 UNL     1      28.745  87.139  -0.215  1.00  0.00     0.017 A 
HETATM   20  C14 UNL     1      27.885  87.588  -1.152  1.00  0.00     0.028 A 
HETATM   21  C15 UNL     1      26.574  87.211  -1.025  1.00  0.00     0.051 A 
HETATM   22 BR1  UNL     1      25.117  87.684  -2.198  1.00  0.00    -0.043 Br
HETATM   23  S2  UNL     1      26.576  86.252   0.381  1.00  0.00    -0.087 SA
ENDBRANCH  17  18
ENDBRANCH  16  17
ENDBRANCH  14  16
ENDBRANCH   1  14
TORSDOF 11
ENDMDL
MODEL 4
REMARK VINA RESULT: -7.631507202      1.697      2.569
REMARK  11 active torsions:
REMARK  status: ('A' for Active; 'I' for Inactive)
REMARK    1  A    between atoms: C2_2  and  C4_4 
REMARK    2  A    between atoms: C4_4  and  N1_5 
REMARK    3  A    between atoms: N1_5  and  C6_7 
REMARK    4  A    between atoms: C6_7  and  C7_8 
REMARK    5  A    between atoms: C7_8  and  C8_9 
REMARK    6  A    between atoms: C8_9  and  N2_10 
REMARK    7  A    between atoms: N2_10  and  C9_12 
REMARK    8  A    between atoms: C9_12  and  N3_14 
REMARK    9  A    between atoms: N3_14  and  C10_16 
REMARK   10  A    between atoms: C10_16  and  C11_17 
REMARK   11  A    between atoms: C11_17  and  C12_18 
ROOT
HETATM    1  C9  UNL     1      30.577  85.492   0.385  1.00  0.00     0.171 C 
HETATM    2  S1  UNL     1      30.579  85.825   2.079  1.00  0.00    -0.041 SA
ENDROOT
BRANCH   1   3
HETATM    3  N2  UNL     1      31.698  84.790  -0.020  1.00  0.00    -0.367 N 
ATOM      4  H2  UNL     1      32.069  85.105  -0.916  1.00  0.00     0.161 HD
BRANCH   3   5
HETATM    5  C8  UNL     1      32.434  83.730   0.549  1.00  0.00     0.123 C 
BRANCH   5   6
HETATM    6  C7  UNL     1      33.774  83.593  -0.273  1.00  0.00     0.050 C 
BRANCH   6   7
HETATM    7  C6  UNL     1      33.996  82.129  -0.299  1.00  0.00     0.274 C 
BRANCH   7   8
HETATM    8  N1  UNL     1      34.940  81.580  -1.223  1.00  0.00     0.088 N 
HETATM    9  C5  UNL     1      35.237  82.441  -2.325  1.00  0.00     0.310 C 
BRANCH   8  10
HETATM   10  C4  UNL     1      34.468  80.261  -1.593  1.00  0.00     0.305 C 
BRANCH  10  11
HETATM   11  C2  UNL     1      35.439  79.399  -2.256  1.00  0.00    -0.065 C 
HETATM   12  C1  UNL     1      36.489  78.980  -1.559  1.00  0.00     0.015 C 
HETATM   13  C3  UNL     1      35.290  78.908  -3.651  1.00  0.00     0.044 C 
ENDBRANCH  10  11
ENDBRANCH   8  10
ENDBRANCH   7   8
ENDBRANCH   6   7
ENDBRANCH   5   6
ENDBRANCH   3   5
ENDBRANCH   1   3
BRANCH   1  14
HETATM   14  N3  UNL     1      29.491  85.955  -0.304  1.00  0.00    -0.347 N 
ATOM     15  H3  UNL     1      29.193  85.332  -1.055  1.00  0.00     0.167 HD
BRANCH  14  16
HETATM   16  C10 UNL     1      28.699  87.112  -0.191  1.00  0.00     0.068 C 
BRANCH  16  17
HETATM   17  C11 UNL     1      27.340  86.671   0.339  1.00  0.00     0.090 C 
BRANCH  17  18
HETATM   18  C12 UNL     1      26.322  86.702  -0.754  1.00  0.00    -0.011 A 
HETATM   19  C13 UNL     1      25.959  87.817  -1.445  1.00  0.00     0.017 A 
HETATM   20  C14 UNL     1      25.033  87.667  -2.415  1.00  0.00     0.028 A 
HETATM   21  C15 UNL     1      24.543  86.404  -2.617  1.00  0.00     0.051 A 
HETATM   22 BR1  UNL     1      23.225  85.872  -3.922  1.00  0.00    -0.043 Br
HETATM   23  S2  UNL     1      25.375  85.471  -1.462  1.00  0.00    -0.087 SA
ENDBRANCH  17  18
ENDBRANCH  16  17
ENDBRANCH  14  16
ENDBRANCH   1  14
TORSDOF 11
ENDMDL
MODEL 5
REMARK VINA RESULT: -7.610135304      4.793      9.559
REMARK  11 active torsions:
REMARK  status: ('A' for Active; 'I' for Inactive)
REMARK    1  A    between atoms: C2_2  and  C4_4 
REMARK    2  A    between atoms: C4_4  and  N1_5 
REMARK    3  A    between atoms: N1_5  and  C6_7 
REMARK    4  A    between atoms: C6_7  and  C7_8 
REMARK    5  A    between atoms: C7_8  and  C8_9 
REMARK    6  A    between atoms: C8_9  and  N2_10 
REMARK    7  A    between atoms: N2_10  and  C9_12 
REMARK    8  A    between atoms: C9_12  and  N3_14 
REMARK    9  A    between atoms: N3_14  and  C10_16 
REMARK   10  A    between atoms: C10_16  and  C11_17 
REMARK   11  A    between atoms: C11_17  and  C12_18 
ROOT
HETATM    1  C9  UNL     1      27.835  86.648  -0.142  1.00  0.00     0.171 C 
HETATM    2  S1  UNL     1      26.838  86.323   1.228  1.00  0.00    -0.041 SA
ENDROOT
BRANCH   1   3
HETATM    3  N2  UNL     1      27.131  87.212  -1.191  1.00  0.00    -0.367 N 
ATOM      4  H2  UNL     1      27.435  86.880  -2.106  1.00  0.00     0.161 HD
BRANCH   3   5
HETATM    5  C8  UNL     1      26.080  88.150  -1.258  1.00  0.00     0.123 C 
BRANCH   5   6
HETATM    6  C7  UNL     1      25.089  87.668  -2.387  1.00  0.00     0.050 C 
BRANCH   6   7
HETATM    7  C6  UNL     1      24.298  86.618  -1.705  1.00  0.00     0.274 C 
BRANCH   7   8
HETATM    8  N1  UNL     1      23.966  85.420  -2.413  1.00  0.00     0.088 N 
HETATM    9  C5  UNL     1      24.967  84.403  -2.328  1.00  0.00     0.310 C 
BRANCH   8  10
HETATM   10  C4  UNL     1      23.600  85.802  -3.762  1.00  0.00     0.305 C 
BRANCH  10  11
HETATM   11  C2  UNL     1      22.954  84.769  -4.563  1.00  0.00    -0.065 C 
HETATM   12  C1  UNL     1      23.266  84.686  -5.852  1.00  0.00     0.015 C 
HETATM   13  C3  UNL     1      22.014  83.760  -4.008  1.00  0.00     0.044 C 
ENDBRANCH  10  11
ENDBRANCH   8  10
ENDBRANCH   7   8
ENDBRANCH   6   7
ENDBRANCH   5   6
ENDBRANCH   3   5
ENDBRANCH   1   3
BRANCH   1  14
HETATM   14  N3  UNL     1      29.154  86.315  -0.003  1.00  0.00    -0.347 N 
ATOM     15  H3  UNL     1      29.568  85.935  -0.854  1.00  0.00     0.167 HD
BRANCH  14  16
HETATM   16  C10 UNL     1      30.057  86.389   1.073  1.00  0.00     0.068 C 
BRANCH  16  17
HETATM   17  C11 UNL     1      30.439  84.958   1.432  1.00  0.00     0.090 C 
BRANCH  17  18
HETATM   18  C12 UNL     1      31.744  84.596   0.802  1.00  0.00    -0.011 A 
HETATM   19  C13 UNL     1      32.920  84.460   1.475  1.00  0.00     0.017 A 
HETATM   20  C14 UNL     1      34.006  84.112   0.754  1.00  0.00     0.028 A 
HETATM   21  C15 UNL     1      33.827  83.926  -0.591  1.00  0.00     0.051 A 
HETATM   22 BR1  UNL     1      35.174  83.425  -1.878  1.00  0.00    -0.043 Br
HETATM   23  S2  UNL     1      32.169  84.239  -0.813  1.00  0.00    -0.087 SA
ENDBRANCH  17  18
ENDBRANCH  16  17
ENDBRANCH  14  16
ENDBRANCH   1  14
TORSDOF 11
ENDMDL
