MODEL 1
REMARK VINA RESULT: -7.510075371      0.000      0.000
REMARK  9 active torsions:
REMARK  status: ('A' for Active; 'I' for Inactive)
REMARK    1  A    between atoms: C2_2  and  N1_4 
REMARK       I    between atoms: N1_4  and  C4_6 
REMARK    2  A    between atoms: C4_6  and  C5_8 
REMARK    3  A    between atoms: C5_8  and  C7_10 
REMARK    4  A    between atoms: C5_8  and  N2_18 
REMARK    5  A    between atoms: C7_10  and  C8_11 
REMARK    6  A    between atoms: C8_11  and  C9_12 
REMARK       I    between atoms: N2_18  and  C15_20 
REMARK    7  A    between atoms: C15_20  and  C16_22 
REMARK    8  A    between atoms: C16_22  and  C17_23 
REMARK    9  A    between atoms: C16_22  and  N3_26 
ROOT
HETATM    1  C5  UNL     1      34.604  80.242  -1.519  1.00  0.00     0.110 C 
HETATM    2  C6  UNL     1      34.556  81.247  -2.685  1.00  0.00     0.049 C 
ENDROOT
BRANCH   1   3
HETATM    3  C4  UNL     1      35.732  79.326  -1.845  1.00  0.00     0.246 C 
HETATM    4  N1  UNL     1      35.733  78.457  -2.943  1.00  0.00    -0.355 N 
ATOM      5  H1  UNL     1      34.925  78.435  -3.566  1.00  0.00     0.162 HD
HETATM    6  O1  UNL     1      36.728  79.348  -1.083  1.00  0.00    -0.271 OA
BRANCH   4   7
HETATM    7  C2  UNL     1      36.854  77.597  -3.207  1.00  0.00     0.076 C 
HETATM    8  C1  UNL     1      37.013  77.468  -4.723  1.00  0.00     0.032 C 
HETATM    9  C3  UNL     1      36.658  76.207  -2.640  1.00  0.00     0.032 C 
ENDBRANCH   4   7
ENDBRANCH   1   3
BRANCH   1  10
HETATM   10  C7  UNL     1      34.905  81.050  -0.278  1.00  0.00     0.041 C 
BRANCH  10  11
HETATM   11  C8  UNL     1      33.808  82.018  -0.053  1.00  0.00     0.007 C 
BRANCH  11  12
HETATM   12  C9  UNL     1      34.177  83.456  -0.002  1.00  0.00    -0.014 C 
HETATM   13  C10 UNL     1      34.079  83.950   1.422  1.00  0.00     0.004 C 
HETATM   14  C11 UNL     1      33.030  85.030   1.597  1.00  0.00     0.000 C 
HETATM   15  C12 UNL     1      31.750  84.538   0.972  1.00  0.00     0.000 C 
HETATM   16  C13 UNL     1      31.883  84.340  -0.510  1.00  0.00     0.000 C 
HETATM   17  C14 UNL     1      33.342  84.346  -0.881  1.00  0.00     0.004 C 
ENDBRANCH  11  12
ENDBRANCH  10  11
ENDBRANCH   1  10
BRANCH   1  18
HETATM   18  N2  UNL     1      33.339  79.545  -1.474  1.00  0.00    -0.339 N 
HETATM   19  C15 UNL     1      33.120  78.297  -0.837  1.00  0.00     0.261 C 
HETATM   20  O2  UNL     1      34.083  77.747  -0.252  1.00  0.00    -0.267 OA
ATOM     21  H2  UNL     1      32.543  79.985  -1.936  1.00  0.00     0.164 HD
BRANCH  19  22
HETATM   22  C16 UNL     1      31.830  77.610  -0.829  1.00  0.00     0.073 C 
BRANCH  22  23
HETATM   23  C17 UNL     1      31.478  76.855   0.400  1.00  0.00     0.128 C 
HETATM   24  C18 UNL     1      30.123  76.206   0.334  1.00  0.00     0.033 C 
HETATM   25 CL1  UNL     1      31.383  78.076   1.726  1.00  0.00    -0.119 Cl
ENDBRANCH  22  23
BRANCH  22  26
HETATM   26  N3  UNL     1      31.501  76.874  -1.996  1.00  0.00    -0.289 NA
HETATM   27  C19 UNL     1      30.630  77.628  -2.899  1.00  0.00     0.116 C 
HETATM   28  C20 UNL     1      32.539  76.206  -2.692  1.00  0.00     0.116 C 
ENDBRANCH  22  26
ENDBRANCH  19  22
ENDBRANCH   1  18
TORSDOF 9
ENDMDL
MODEL 2
REMARK VINA RESULT: -7.247013831      2.200      6.645
REMARK  9 active torsions:
REMARK  status: ('A' for Active; 'I' for Inactive)
REMARK    1  A    between atoms: C2_2  and  N1_4 
REMARK       I    between atoms: N1_4  and  C4_6 
REMARK    2  A    between atoms: C4_6  and  C5_8 
REMARK    3  A    between atoms: C5_8  and  C7_10 
REMARK    4  A    between atoms: C5_8  and  N2_18 
REMARK    5  A    between atoms: C7_10  and  C8_11 
REMARK    6  A    between atoms: C8_11  and  C9_12 
REMARK       I    between atoms: N2_18  and  C15_20 
REMARK    7  A    between atoms: C15_20  and  C16_22 
REMARK    8  A    between atoms: C16_22  and  C17_23 
REMARK    9  A    between atoms: C16_22  and  N3_26 
ROOT
HETATM    1  C5  UNL     1      33.325  78.449  -0.433  1.00  0.00     0.110 C 
HETATM    2  C6  UNL     1      32.519  77.874  -1.612  1.00  0.00     0.049 C 
ENDROOT
BRANCH   1   3
HETATM    3  C4  UNL     1      32.593  78.007   0.786  1.00  0.00     0.246 C 
HETATM    4  N1  UNL     1      31.222  77.723   0.807  1.00  0.00    -0.355 N 
ATOM      5  H1  UNL     1      30.677  77.818  -0.049  1.00  0.00     0.162 HD
HETATM    6  O1  UNL     1      33.259  77.888   1.843  1.00  0.00    -0.271 OA
BRANCH   4   7
HETATM    7  C2  UNL     1      30.572  77.299   2.018  1.00  0.00     0.076 C 
HETATM    8  C1  UNL     1      29.269  76.593   1.639  1.00  0.00     0.032 C 
HETATM    9  C3  UNL     1      30.225  78.461   2.922  1.00  0.00     0.032 C 
ENDBRANCH   4   7
ENDBRANCH   1   3
BRANCH   1  10
HETATM   10  C7  UNL     1      34.692  77.809  -0.505  1.00  0.00     0.041 C 
BRANCH  10  11
HETATM   11  C8  UNL     1      34.642  76.663  -1.441  1.00  0.00     0.007 C 
BRANCH  11  12
HETATM   12  C9  UNL     1      35.795  76.491  -2.360  1.00  0.00    -0.014 C 
HETATM   13  C10 UNL     1      36.657  77.731  -2.323  1.00  0.00     0.004 C 
HETATM   14  C11 UNL     1      36.716  78.444  -3.659  1.00  0.00     0.000 C 
HETATM   15  C12 UNL     1      35.303  78.627  -4.151  1.00  0.00     0.000 C 
HETATM   16  C13 UNL     1      34.623  77.316  -4.421  1.00  0.00     0.000 C 
HETATM   17  C14 UNL     1      35.419  76.206  -3.788  1.00  0.00     0.004 C 
ENDBRANCH  11  12
ENDBRANCH  10  11
ENDBRANCH   1  10
BRANCH   1  18
HETATM   18  N2  UNL     1      33.342  79.888  -0.560  1.00  0.00    -0.339 N 
HETATM   19  C15 UNL     1      34.409  80.728  -0.150  1.00  0.00     0.261 C 
HETATM   20  O2  UNL     1      35.429  80.198   0.351  1.00  0.00    -0.267 OA
ATOM     21  H2  UNL     1      32.525  80.334  -0.977  1.00  0.00     0.164 HD
BRANCH  19  22
HETATM   22  C16 UNL     1      34.384  82.184  -0.276  1.00  0.00     0.073 C 
BRANCH  22  23
HETATM   23  C17 UNL     1      33.269  82.898   0.398  1.00  0.00     0.128 C 
HETATM   24  C18 UNL     1      32.443  83.732  -0.541  1.00  0.00     0.033 C 
HETATM   25 CL1  UNL     1      34.041  84.056   1.547  1.00  0.00    -0.119 Cl
ENDBRANCH  22  23
BRANCH  22  26
HETATM   26  N3  UNL     1      34.620  82.708  -1.572  1.00  0.00    -0.289 NA
HETATM   27  C19 UNL     1      35.476  83.895  -1.542  1.00  0.00     0.116 C 
HETATM   28  C20 UNL     1      34.987  81.814  -2.609  1.00  0.00     0.116 C 
ENDBRANCH  22  26
ENDBRANCH  19  22
ENDBRANCH   1  18
TORSDOF 9
ENDMDL
MODEL 3
REMARK VINA RESULT: -7.138135971      2.151      7.043
REMARK  9 active torsions:
REMARK  status: ('A' for Active; 'I' for Inactive)
REMARK    1  A    between atoms: C2_2  and  N1_4 
REMARK       I    between atoms: N1_4  and  C4_6 
REMARK    2  A    between atoms: C4_6  and  C5_8 
REMARK    3  A    between atoms: C5_8  and  C7_10 
REMARK    4  A    between atoms: C5_8  and  N2_18 
REMARK    5  A    between atoms: C7_10  and  C8_11 
REMARK    6  A    between atoms: C8_11  and  C9_12 
REMARK       I    between atoms: N2_18  and  C15_20 
REMARK    7  A    between atoms: C15_20  and  C16_22 
REMARK    8  A    between atoms: C16_22  and  C17_23 
REMARK    9  A    between atoms: C16_22  and  N3_26 
ROOT
HETATM    1  C5  UNL     1      33.582  78.831  -0.800  1.00  0.00     0.110 C 
HETATM    2  C6  UNL     1      32.979  78.110  -2.020  1.00  0.00     0.049 C 
ENDROOT
BRANCH   1   3
HETATM    3  C4  UNL     1      32.907  78.222   0.379  1.00  0.00     0.246 C 
HETATM    4  N1  UNL     1      31.567  77.815   0.382  1.00  0.00    -0.355 N 
ATOM      5  H1  UNL     1      31.005  77.934  -0.460  1.00  0.00     0.162 HD
HETATM    6  O1  UNL     1      33.593  78.073   1.418  1.00  0.00    -0.271 OA
BRANCH   4   7
HETATM    7  C2  UNL     1      30.972  77.231   1.554  1.00  0.00     0.076 C 
HETATM    8  C1  UNL     1      29.698  76.500   1.131  1.00  0.00     0.032 C 
HETATM    9  C3  UNL     1      30.590  78.272   2.584  1.00  0.00     0.032 C 
ENDBRANCH   4   7
ENDBRANCH   1   3
BRANCH   1  10
HETATM   10  C7  UNL     1      35.057  78.508  -0.806  1.00  0.00     0.041 C 
BRANCH  10  11
HETATM   11  C8  UNL     1      35.561  78.567  -2.197  1.00  0.00     0.007 C 
BRANCH  11  12
HETATM   12  C9  UNL     1      36.594  77.573  -2.583  1.00  0.00    -0.014 C 
HETATM   13  C10 UNL     1      37.364  78.085  -3.777  1.00  0.00     0.004 C 
HETATM   14  C11 UNL     1      37.198  77.208  -5.002  1.00  0.00     0.000 C 
HETATM   15  C12 UNL     1      35.724  76.974  -5.209  1.00  0.00     0.000 C 
HETATM   16  C13 UNL     1      35.108  76.206  -4.075  1.00  0.00     0.000 C 
HETATM   17  C14 UNL     1      36.056  76.206  -2.906  1.00  0.00     0.004 C 
ENDBRANCH  11  12
ENDBRANCH  10  11
ENDBRANCH   1  10
BRANCH   1  18
HETATM   18  N2  UNL     1      33.288  80.240  -0.922  1.00  0.00    -0.339 N 
HETATM   19  C15 UNL     1      34.017  81.281  -0.291  1.00  0.00     0.261 C 
HETATM   20  O2  UNL     1      35.003  80.973   0.420  1.00  0.00    -0.267 OA
ATOM     21  H2  UNL     1      32.496  80.507  -1.506  1.00  0.00     0.164 HD
BRANCH  19  22
HETATM   22  C16 UNL     1      33.679  82.697  -0.420  1.00  0.00     0.073 C 
BRANCH  22  23
HETATM   23  C17 UNL     1      34.624  83.546  -1.188  1.00  0.00     0.128 C 
HETATM   24  C18 UNL     1      33.939  84.563  -2.058  1.00  0.00     0.033 C 
HETATM   25 CL1  UNL     1      35.494  82.433  -2.312  1.00  0.00    -0.119 Cl
ENDBRANCH  22  23
BRANCH  22  26
HETATM   26  N3  UNL     1      33.245  83.351   0.762  1.00  0.00    -0.289 NA
HETATM   27  C19 UNL     1      34.323  84.104   1.404  1.00  0.00     0.116 C 
HETATM   28  C20 UNL     1      32.032  84.083   0.726  1.00  0.00     0.116 C 
ENDBRANCH  22  26
ENDBRANCH  19  22
ENDBRANCH   1  18
TORSDOF 9
ENDMDL
MODEL 4
REMARK VINA RESULT: -7.112780873      1.963      5.928
REMARK  9 active torsions:
REMARK  status: ('A' for Active; 'I' for Inactive)
REMARK    1  A    between atoms: C2_2  and  N1_4 
REMARK       I    between atoms: N1_4  and  C4_6 
REMARK    2  A    between atoms: C4_6  and  C5_8 
REMARK    3  A    between atoms: C5_8  and  C7_10 
REMARK    4  A    between atoms: C5_8  and  N2_18 
REMARK    5  A    between atoms: C7_10  and  C8_11 
REMARK    6  A    between atoms: C8_11  and  C9_12 
REMARK       I    between atoms: N2_18  and  C15_20 
REMARK    7  A    between atoms: C15_20  and  C16_22 
REMARK    8  A    between atoms: C16_22  and  C17_23 
REMARK    9  A    between atoms: C16_22  and  N3_26 
ROOT
HETATM    1  C5  UNL     1      34.493  80.479  -1.308  1.00  0.00     0.110 C 
HETATM    2  C6  UNL     1      35.800  80.161  -0.558  1.00  0.00     0.049 C 
ENDROOT
BRANCH   1   3
HETATM    3  C4  UNL     1      34.295  81.944  -1.133  1.00  0.00     0.246 C 
HETATM    4  N1  UNL     1      33.567  82.508  -0.078  1.00  0.00    -0.355 N 
ATOM      5  H1  UNL     1      33.140  81.898   0.619  1.00  0.00     0.162 HD
HETATM    6  O1  UNL     1      34.818  82.700  -1.986  1.00  0.00    -0.271 OA
BRANCH   4   7
HETATM    7  C2  UNL     1      33.412  83.933   0.038  1.00  0.00     0.076 C 
HETATM    8  C1  UNL     1      33.986  84.369   1.387  1.00  0.00     0.032 C 
HETATM    9  C3  UNL     1      31.961  84.359  -0.008  1.00  0.00     0.032 C 
ENDBRANCH   4   7
ENDBRANCH   1   3
BRANCH   1  10
HETATM   10  C7  UNL     1      34.745  80.137  -2.758  1.00  0.00     0.041 C 
BRANCH  10  11
HETATM   11  C8  UNL     1      35.959  79.295  -2.852  1.00  0.00     0.007 C 
BRANCH  11  12
HETATM   12  C9  UNL     1      36.065  78.394  -4.029  1.00  0.00    -0.014 C 
HETATM   13  C10 UNL     1      34.688  78.136  -4.591  1.00  0.00     0.004 C 
HETATM   14  C11 UNL     1      34.285  76.678  -4.509  1.00  0.00     0.000 C 
HETATM   15  C12 UNL     1      34.529  76.207  -3.099  1.00  0.00     0.000 C 
HETATM   16  C13 UNL     1      35.984  76.246  -2.733  1.00  0.00     0.000 C 
HETATM   17  C14 UNL     1      36.727  77.074  -3.747  1.00  0.00     0.004 C 
ENDBRANCH  11  12
ENDBRANCH  10  11
ENDBRANCH   1  10
BRANCH   1  18
HETATM   18  N2  UNL     1      33.429  79.715  -0.700  1.00  0.00    -0.339 N 
HETATM   19  C15 UNL     1      33.588  78.451  -0.077  1.00  0.00     0.261 C 
HETATM   20  O2  UNL     1      34.736  77.949  -0.028  1.00  0.00    -0.267 OA
ATOM     21  H2  UNL     1      32.490  80.115  -0.721  1.00  0.00     0.164 HD
BRANCH  19  22
HETATM   22  C16 UNL     1      32.483  77.695   0.511  1.00  0.00     0.073 C 
BRANCH  22  23
HETATM   23  C17 UNL     1      31.243  77.580  -0.297  1.00  0.00     0.128 C 
HETATM   24  C18 UNL     1      30.630  76.207  -0.255  1.00  0.00     0.033 C 
HETATM   25 CL1  UNL     1      31.738  77.853  -2.011  1.00  0.00    -0.119 Cl
ENDBRANCH  22  23
BRANCH  22  26
HETATM   26  N3  UNL     1      32.186  77.970   1.870  1.00  0.00    -0.289 NA
HETATM   27  C19 UNL     1      30.758  77.838   2.163  1.00  0.00     0.116 C 
HETATM   28  C20 UNL     1      32.992  77.376   2.874  1.00  0.00     0.116 C 
ENDBRANCH  22  26
ENDBRANCH  19  22
ENDBRANCH   1  18
TORSDOF 9
ENDMDL
MODEL 5
REMARK VINA RESULT: -7.077053906      1.294      1.811
REMARK  9 active torsions:
REMARK  status: ('A' for Active; 'I' for Inactive)
REMARK    1  A    between atoms: C2_2  and  N1_4 
REMARK       I    between atoms: N1_4  and  C4_6 
REMARK    2  A    between atoms: C4_6  and  C5_8 
REMARK    3  A    between atoms: C5_8  and  C7_10 
REMARK    4  A    between atoms: C5_8  and  N2_18 
REMARK    5  A    between atoms: C7_10  and  C8_11 
REMARK    6  A    between atoms: C8_11  and  C9_12 
REMARK       I    between atoms: N2_18  and  C15_20 
REMARK    7  A    between atoms: C15_20  and  C16_22 
REMARK    8  A    between atoms: C16_22  and  C17_23 
REMARK    9  A    between atoms: C16_22  and  N3_26 
ROOT
HETATM    1  C5  UNL     1      34.692  80.202  -1.579  1.00  0.00     0.110 C 
HETATM    2  C6  UNL     1      34.720  81.263  -2.694  1.00  0.00     0.049 C 
ENDROOT
BRANCH   1   3
HETATM    3  C4  UNL     1      35.799  79.264  -1.912  1.00  0.00     0.246 C 
HETATM    4  N1  UNL     1      35.807  78.445  -3.048  1.00  0.00    -0.355 N 
ATOM      5  H1  UNL     1      35.020  78.478  -3.696  1.00  0.00     0.162 HD
HETATM    6  O1  UNL     1      36.770  79.219  -1.120  1.00  0.00    -0.271 OA
BRANCH   4   7
HETATM    7  C2  UNL     1      36.908  77.560  -3.316  1.00  0.00     0.076 C 
HETATM    8  C1  UNL     1      36.992  77.344  -4.828  1.00  0.00     0.032 C 
HETATM    9  C3  UNL     1      36.730  76.206  -2.662  1.00  0.00     0.032 C 
ENDBRANCH   4   7
ENDBRANCH   1   3
BRANCH   1  10
HETATM   10  C7  UNL     1      34.975  80.937  -0.290  1.00  0.00     0.041 C 
BRANCH  10  11
HETATM   11  C8  UNL     1      33.897  81.922  -0.048  1.00  0.00     0.007 C 
BRANCH  11  12
HETATM   12  C9  UNL     1      34.290  83.353   0.005  1.00  0.00    -0.014 C 
HETATM   13  C10 UNL     1      34.193  83.849   1.429  1.00  0.00     0.004 C 
HETATM   14  C11 UNL     1      33.162  84.947   1.599  1.00  0.00     0.000 C 
HETATM   15  C12 UNL     1      31.877  84.478   0.967  1.00  0.00     0.000 C 
HETATM   16  C13 UNL     1      32.015  84.278  -0.515  1.00  0.00     0.000 C 
HETATM   17  C14 UNL     1      33.475  84.258  -0.878  1.00  0.00     0.004 C 
ENDBRANCH  11  12
ENDBRANCH  10  11
ENDBRANCH   1  10
BRANCH   1  18
HETATM   18  N2  UNL     1      33.404  79.549  -1.613  1.00  0.00    -0.339 N 
HETATM   19  C15 UNL     1      33.157  78.213  -1.205  1.00  0.00     0.261 C 
HETATM   20  O2  UNL     1      34.117  77.536  -0.766  1.00  0.00    -0.267 OA
ATOM     21  H2  UNL     1      32.610  80.090  -1.956  1.00  0.00     0.164 HD
BRANCH  19  22
HETATM   22  C16 UNL     1      31.843  77.577  -1.271  1.00  0.00     0.073 C 
BRANCH  22  23
HETATM   23  C17 UNL     1      30.971  77.955  -2.412  1.00  0.00     0.128 C 
HETATM   24  C18 UNL     1      29.516  77.664  -2.171  1.00  0.00     0.033 C 
HETATM   25 CL1  UNL     1      31.469  76.901  -3.791  1.00  0.00    -0.119 Cl
ENDBRANCH  22  23
BRANCH  22  26
HETATM   26  N3  UNL     1      31.108  77.523  -0.060  1.00  0.00    -0.289 NA
HETATM   27  C19 UNL     1      30.509  76.206   0.166  1.00  0.00     0.116 C 
HETATM   28  C20 UNL     1      31.700  78.047   1.117  1.00  0.00     0.116 C 
ENDBRANCH  22  26
ENDBRANCH  19  22
ENDBRANCH   1  18
TORSDOF 9
ENDMDL
