MODEL 1
REMARK VINA RESULT: -7.643694568      0.000      0.000
REMARK  6 active torsions:
REMARK  status: ('A' for Active; 'I' for Inactive)
REMARK    1  A    between atoms: N3_4  and  C2_6 
REMARK    2  A    between atoms: C2_6  and  C3_7 
REMARK    3  A    between atoms: C3_7  and  C4_8 
REMARK    4  A    between atoms: C4_8  and  C5_9 
REMARK    5  A    between atoms: N6_19  and  S1_20 
REMARK    6  A    between atoms: S1_20  and  N7_21 
ROOT
HETATM    1  C5  UNL     1      -9.086  15.966  20.740  1.00  0.00     0.205 C 
HETATM    2  N4  UNL     1      -9.291  17.358  20.593  1.00  0.00    -0.320 N 
ATOM      3  H4  UNL     1      -8.702  17.822  19.903  1.00  0.00     0.166 HD
HETATM    4  C6  UNL     1     -10.209  18.191  21.280  1.00  0.00     0.324 C 
HETATM    5  O1  UNL     1     -10.017  19.451  21.271  1.00  0.00    -0.247 OA
HETATM    6  N5  UNL     1     -11.357  17.734  21.995  1.00  0.00    -0.275 N 
ATOM      7  H5  UNL     1     -12.122  18.404  22.069  1.00  0.00     0.173 HD
HETATM    8  C7  UNL     1     -11.582  16.472  22.621  1.00  0.00     0.265 C 
HETATM    9  O2  UNL     1     -12.548  16.402  23.419  1.00  0.00    -0.267 OA
HETATM   10  C8  UNL     1     -10.751  15.267  22.378  1.00  0.00     0.181 C 
HETATM   11  N6  UNL     1     -10.151  15.153  21.133  1.00  0.00    -0.242 N 
ENDROOT
BRANCH   1  12
HETATM   12  C4  UNL     1      -7.950  15.773  21.756  1.00  0.00     0.050 C 
BRANCH  12  13
HETATM   13  C3  UNL     1      -6.680  16.220  21.078  1.00  0.00     0.023 C 
BRANCH  13  14
HETATM   14  C2  UNL     1      -6.885  16.298  19.569  1.00  0.00     0.122 C 
BRANCH  14  15
HETATM   15  N3  UNL     1      -5.615  16.216  18.879  1.00  0.00    -0.367 N 
HETATM   16  C1  UNL     1      -5.229  15.160  18.254  1.00  0.00     0.196 C 
HETATM   17  N1  UNL     1      -3.974  15.153  17.602  1.00  0.00    -0.067 NA
HETATM   18  N2  UNL     1      -6.059  14.031  18.228  1.00  0.00    -0.067 NA
ATOM     19  H3  UNL     1      -5.000  17.031  18.889  1.00  0.00     0.161 HD
ENDBRANCH  14  15
ENDBRANCH  13  14
ENDBRANCH  12  13
ENDBRANCH   1  12
BRANCH  11  20
HETATM   20  S1  UNL     1     -10.132  13.551  20.561  1.00  0.00     0.320 S 
HETATM   21  O3  UNL     1     -11.119  13.428  19.419  1.00  0.00    -0.182 OA
HETATM   22  O4  UNL     1     -10.540  12.542  21.596  1.00  0.00    -0.182 OA
BRANCH  20  23
HETATM   23  N7  UNL     1      -8.591  13.079  19.944  1.00  0.00    -0.311 N 
ATOM     24  H72 UNL     1      -7.819  13.736  19.829  1.00  0.00     0.170 HD
ATOM     25  H71 UNL     1      -8.544  12.087  19.713  1.00  0.00     0.170 HD
ENDBRANCH  20  23
ENDBRANCH  11  20
TORSDOF 6
ENDMDL
MODEL 2
REMARK VINA RESULT: -7.443764345      3.752      5.513
REMARK  6 active torsions:
REMARK  status: ('A' for Active; 'I' for Inactive)
REMARK    1  A    between atoms: N3_4  and  C2_6 
REMARK    2  A    between atoms: C2_6  and  C3_7 
REMARK    3  A    between atoms: C3_7  and  C4_8 
REMARK    4  A    between atoms: C4_8  and  C5_9 
REMARK    5  A    between atoms: N6_19  and  S1_20 
REMARK    6  A    between atoms: S1_20  and  N7_21 
ROOT
HETATM    1  C5  UNL     1      -8.410  15.848  21.148  1.00  0.00     0.205 C 
HETATM    2  N4  UNL     1      -9.712  15.514  21.588  1.00  0.00    -0.320 N 
ATOM      3  H4  UNL     1     -10.262  16.283  21.968  1.00  0.00     0.166 HD
HETATM    4  C6  UNL     1     -10.351  14.249  21.568  1.00  0.00     0.324 C 
HETATM    5  O1  UNL     1     -11.371  14.068  22.311  1.00  0.00    -0.247 OA
HETATM    6  N5  UNL     1      -9.946  13.136  20.773  1.00  0.00    -0.275 N 
ATOM      7  H5  UNL     1     -10.686  12.477  20.532  1.00  0.00     0.173 HD
HETATM    8  C7  UNL     1      -8.651  12.817  20.266  1.00  0.00     0.265 C 
HETATM    9  O2  UNL     1      -8.487  11.652  19.829  1.00  0.00    -0.267 OA
HETATM   10  C8  UNL     1      -7.516  13.773  20.231  1.00  0.00     0.181 C 
HETATM   11  N6  UNL     1      -7.829  15.119  20.109  1.00  0.00    -0.242 N 
ENDROOT
BRANCH   1  12
HETATM   12  C4  UNL     1      -7.476  15.758  22.363  1.00  0.00     0.050 C 
BRANCH  12  13
HETATM   13  C3  UNL     1      -8.144  14.845  23.359  1.00  0.00     0.023 C 
BRANCH  13  14
HETATM   14  C2  UNL     1      -7.652  15.149  24.770  1.00  0.00     0.122 C 
BRANCH  14  15
HETATM   15  N3  UNL     1      -7.231  13.934  25.434  1.00  0.00    -0.367 N 
HETATM   16  C1  UNL     1      -6.134  13.850  26.102  1.00  0.00     0.196 C 
HETATM   17  N1  UNL     1      -5.787  12.629  26.726  1.00  0.00    -0.067 NA
HETATM   18  N2  UNL     1      -5.299  14.971  26.202  1.00  0.00    -0.067 NA
ATOM     19  H3  UNL     1      -7.829  13.110  25.371  1.00  0.00     0.161 HD
ENDBRANCH  14  15
ENDBRANCH  13  14
ENDBRANCH  12  13
ENDBRANCH   1  12
BRANCH  11  20
HETATM   20  S1  UNL     1      -6.726  15.957  19.119  1.00  0.00     0.320 S 
HETATM   21  O3  UNL     1      -5.559  16.416  19.969  1.00  0.00    -0.182 OA
HETATM   22  O4  UNL     1      -7.309  17.187  18.484  1.00  0.00    -0.182 OA
BRANCH  20  23
HETATM   23  N7  UNL     1      -6.074  14.973  17.862  1.00  0.00    -0.311 N 
ATOM     24  H72 UNL     1      -6.394  14.020  17.684  1.00  0.00     0.170 HD
ATOM     25  H71 UNL     1      -5.345  15.446  17.327  1.00  0.00     0.170 HD
ENDBRANCH  20  23
ENDBRANCH  11  20
TORSDOF 6
ENDMDL
MODEL 3
REMARK VINA RESULT: -6.452744299      3.914      6.273
REMARK  6 active torsions:
REMARK  status: ('A' for Active; 'I' for Inactive)
REMARK    1  A    between atoms: N3_4  and  C2_6 
REMARK    2  A    between atoms: C2_6  and  C3_7 
REMARK    3  A    between atoms: C3_7  and  C4_8 
REMARK    4  A    between atoms: C4_8  and  C5_9 
REMARK    5  A    between atoms: N6_19  and  S1_20 
REMARK    6  A    between atoms: S1_20  and  N7_21 
ROOT
HETATM    1  C5  UNL     1      -8.300  15.083  21.430  1.00  0.00     0.205 C 
HETATM    2  N4  UNL     1      -8.651  13.743  21.142  1.00  0.00    -0.320 N 
ATOM      3  H4  UNL     1      -9.450  13.373  21.657  1.00  0.00     0.166 HD
HETATM    4  C6  UNL     1      -8.037  12.848  20.231  1.00  0.00     0.324 C 
HETATM    5  O1  UNL     1      -8.261  11.599  20.356  1.00  0.00    -0.247 OA
HETATM    6  N5  UNL     1      -7.172  13.228  19.162  1.00  0.00    -0.275 N 
ATOM      7  H5  UNL     1      -7.146  12.587  18.369  1.00  0.00     0.173 HD
HETATM    8  C7  UNL     1      -6.338  14.380  19.048  1.00  0.00     0.265 C 
HETATM    9  O2  UNL     1      -5.466  14.358  18.145  1.00  0.00    -0.267 OA
HETATM   10  C8  UNL     1      -6.448  15.574  19.923  1.00  0.00     0.181 C 
HETATM   11  N6  UNL     1      -7.702  15.863  20.439  1.00  0.00    -0.242 N 
ENDROOT
BRANCH   1  12
HETATM   12  C4  UNL     1      -7.358  15.061  22.643  1.00  0.00     0.050 C 
BRANCH  12  13
HETATM   13  C3  UNL     1      -8.197  14.692  23.839  1.00  0.00     0.023 C 
BRANCH  13  14
HETATM   14  C2  UNL     1      -7.424  14.953  25.128  1.00  0.00     0.122 C 
BRANCH  14  15
HETATM   15  N3  UNL     1      -7.037  13.705  25.750  1.00  0.00    -0.367 N 
HETATM   16  C1  UNL     1      -5.958  13.576  26.438  1.00  0.00     0.196 C 
HETATM   17  N1  UNL     1      -5.643  12.324  27.017  1.00  0.00    -0.067 NA
HETATM   18  N2  UNL     1      -5.108  14.678  26.604  1.00  0.00    -0.067 NA
ATOM     19  H3  UNL     1      -7.646  12.893  25.638  1.00  0.00     0.161 HD
ENDBRANCH  14  15
ENDBRANCH  13  14
ENDBRANCH  12  13
ENDBRANCH   1  12
BRANCH  11  20
HETATM   20  S1  UNL     1      -8.011  17.536  20.504  1.00  0.00     0.320 S 
HETATM   21  O3  UNL     1      -7.505  18.175  19.227  1.00  0.00    -0.182 OA
HETATM   22  O4  UNL     1      -7.316  18.228  21.640  1.00  0.00    -0.182 OA
BRANCH  20  23
HETATM   23  N7  UNL     1      -9.694  17.901  20.615  1.00  0.00    -0.311 N 
ATOM     24  H72 UNL     1     -10.336  17.784  19.831  1.00  0.00     0.170 HD
ATOM     25  H71 UNL     1      -9.965  18.242  21.537  1.00  0.00     0.170 HD
ENDBRANCH  20  23
ENDBRANCH  11  20
TORSDOF 6
ENDMDL
MODEL 4
REMARK VINA RESULT: -6.435533796      1.684      1.910
REMARK  6 active torsions:
REMARK  status: ('A' for Active; 'I' for Inactive)
REMARK    1  A    between atoms: N3_4  and  C2_6 
REMARK    2  A    between atoms: C2_6  and  C3_7 
REMARK    3  A    between atoms: C3_7  and  C4_8 
REMARK    4  A    between atoms: C4_8  and  C5_9 
REMARK    5  A    between atoms: N6_19  and  S1_20 
REMARK    6  A    between atoms: S1_20  and  N7_21 
ROOT
HETATM    1  C5  UNL     1      -8.601  14.830  20.124  1.00  0.00     0.205 C 
HETATM    2  N4  UNL     1      -9.283  16.060  19.966  1.00  0.00    -0.320 N 
ATOM      3  H4  UNL     1      -8.845  16.732  19.338  1.00  0.00     0.166 HD
HETATM    4  C6  UNL     1     -10.497  16.478  20.566  1.00  0.00     0.324 C 
HETATM    5  O1  UNL     1     -10.774  17.721  20.583  1.00  0.00    -0.247 OA
HETATM    6  N5  UNL     1     -11.458  15.610  21.166  1.00  0.00    -0.275 N 
ATOM      7  H5  UNL     1     -12.418  15.955  21.171  1.00  0.00     0.173 HD
HETATM    8  C7  UNL     1     -11.264  14.328  21.760  1.00  0.00     0.265 C 
HETATM    9  O2  UNL     1     -12.205  13.883  22.463  1.00  0.00    -0.267 OA
HETATM   10  C8  UNL     1     -10.035  13.514  21.592  1.00  0.00     0.181 C 
HETATM   11  N6  UNL     1      -9.329  13.674  20.408  1.00  0.00    -0.242 N 
ENDROOT
BRANCH   1  12
HETATM   12  C4  UNL     1      -7.565  15.020  21.242  1.00  0.00     0.050 C 
BRANCH  12  13
HETATM   13  C3  UNL     1      -7.090  16.447  21.158  1.00  0.00     0.023 C 
BRANCH  13  14
HETATM   14  C2  UNL     1      -5.891  16.552  20.221  1.00  0.00     0.122 C 
BRANCH  14  15
HETATM   15  N3  UNL     1      -5.843  15.414  19.329  1.00  0.00    -0.367 N 
HETATM   16  C1  UNL     1      -4.944  15.283  18.417  1.00  0.00     0.196 C 
HETATM   17  N1  UNL     1      -4.959  14.143  17.580  1.00  0.00    -0.067 NA
HETATM   18  N2  UNL     1      -3.962  16.272  18.267  1.00  0.00    -0.067 NA
ATOM     19  H3  UNL     1      -6.551  14.685  19.426  1.00  0.00     0.161 HD
ENDBRANCH  14  15
ENDBRANCH  13  14
ENDBRANCH  12  13
ENDBRANCH   1  12
BRANCH  11  20
HETATM   20  S1  UNL     1      -8.680  12.210  19.832  1.00  0.00     0.320 S 
HETATM   21  O3  UNL     1      -9.724  11.514  18.983  1.00  0.00    -0.182 OA
HETATM   22  O4  UNL     1      -8.304  11.252  20.926  1.00  0.00    -0.182 OA
BRANCH  20  23
HETATM   23  N7  UNL     1      -7.293  12.440  18.833  1.00  0.00    -0.311 N 
ATOM     24  H72 UNL     1      -7.305  13.029  17.999  1.00  0.00     0.170 HD
ATOM     25  H71 UNL     1      -6.476  11.929  19.166  1.00  0.00     0.170 HD
ENDBRANCH  20  23
ENDBRANCH  11  20
TORSDOF 6
ENDMDL
MODEL 5
REMARK VINA RESULT: -6.288076964      3.673      5.783
REMARK  6 active torsions:
REMARK  status: ('A' for Active; 'I' for Inactive)
REMARK    1  A    between atoms: N3_4  and  C2_6 
REMARK    2  A    between atoms: C2_6  and  C3_7 
REMARK    3  A    between atoms: C3_7  and  C4_8 
REMARK    4  A    between atoms: C4_8  and  C5_9 
REMARK    5  A    between atoms: N6_19  and  S1_20 
REMARK    6  A    between atoms: S1_20  and  N7_21 
ROOT
HETATM    1  C5  UNL     1      -9.119  15.306  21.501  1.00  0.00     0.205 C 
HETATM    2  N4  UNL     1      -8.542  14.114  21.003  1.00  0.00    -0.320 N 
ATOM      3  H4  UNL     1      -8.881  13.249  21.424  1.00  0.00     0.166 HD
HETATM    4  C6  UNL     1      -7.556  13.965  19.997  1.00  0.00     0.324 C 
HETATM    5  O1  UNL     1      -6.915  12.866  19.926  1.00  0.00    -0.247 OA
HETATM    6  N5  UNL     1      -7.210  14.959  19.032  1.00  0.00    -0.275 N 
ATOM      7  H5  UNL     1      -6.829  14.605  18.155  1.00  0.00     0.173 HD
HETATM    8  C7  UNL     1      -7.322  16.378  19.124  1.00  0.00     0.265 C 
HETATM    9  O2  UNL     1      -6.702  17.050  18.265  1.00  0.00    -0.267 OA
HETATM   10  C8  UNL     1      -8.119  17.081  20.161  1.00  0.00     0.181 C 
HETATM   11  N6  UNL     1      -9.229  16.417  20.662  1.00  0.00    -0.242 N 
ENDROOT
BRANCH   1  12
HETATM   12  C4  UNL     1      -8.309  15.729  22.735  1.00  0.00     0.050 C 
BRANCH  12  13
HETATM   13  C3  UNL     1      -8.140  14.498  23.587  1.00  0.00     0.023 C 
BRANCH  13  14
HETATM   14  C2  UNL     1      -7.619  14.879  24.969  1.00  0.00     0.122 C 
BRANCH  14  15
HETATM   15  N3  UNL     1      -7.137  13.709  25.671  1.00  0.00    -0.367 N 
HETATM   16  C1  UNL     1      -6.016  13.689  26.303  1.00  0.00     0.196 C 
HETATM   17  N1  UNL     1      -5.608  12.509  26.966  1.00  0.00    -0.067 NA
HETATM   18  N2  UNL     1      -5.215  14.839  26.324  1.00  0.00    -0.067 NA
ATOM     19  H3  UNL     1      -7.709  12.864  25.664  1.00  0.00     0.161 HD
ENDBRANCH  14  15
ENDBRANCH  13  14
ENDBRANCH  12  13
ENDBRANCH   1  12
BRANCH  11  20
HETATM   20  S1  UNL     1     -10.537  17.464  20.960  1.00  0.00     0.320 S 
HETATM   21  O3  UNL     1     -11.292  17.682  19.665  1.00  0.00    -0.182 OA
HETATM   22  O4  UNL     1     -10.117  18.820  21.450  1.00  0.00    -0.182 OA
BRANCH  20  23
HETATM   23  N7  UNL     1     -11.665  16.819  22.095  1.00  0.00    -0.311 N 
ATOM     24  H72 UNL     1     -11.991  17.344  22.907  1.00  0.00     0.170 HD
ATOM     25  H71 UNL     1     -11.962  15.872  21.863  1.00  0.00     0.170 HD
ENDBRANCH  20  23
ENDBRANCH  11  20
TORSDOF 6
ENDMDL
