MODEL 1
REMARK VINA RESULT: -6.233128517      0.000      0.000
REMARK  6 active torsions:
REMARK  status: ('A' for Active; 'I' for Inactive)
REMARK    1  A    between atoms: C2_2  and  C3_3 
REMARK    2  A    between atoms: C3_3  and  C4_4 
REMARK    3  A    between atoms: C4_4  and  C5_5 
REMARK    4  A    between atoms: C5_5  and  N1_6 
REMARK    5  A    between atoms: N1_6  and  C6_9 
REMARK    6  A    between atoms: N2_12  and  C9_13 
ROOT
HETATM    1  C6  UNL     1     -23.707   2.559  -6.205  1.00  0.00     0.189 C 
HETATM    2  C7  UNL     1     -24.592   2.853  -7.409  1.00  0.00     0.052 C 
HETATM    3  C8  UNL     1     -24.657   1.522  -8.162  1.00  0.00     0.119 C 
HETATM    4  N2  UNL     1     -25.382   0.602  -7.351  1.00  0.00    -0.405 N 
HETATM    5  C12 UNL     1     -24.827   0.315  -6.078  1.00  0.00     0.119 C 
HETATM    6  C13 UNL     1     -24.315   1.512  -5.325  1.00  0.00     0.052 C 
ENDROOT
BRANCH   1   7
HETATM    7  N1  UNL     1     -22.341   2.272  -6.567  1.00  0.00    -0.071 N 
ATOM      8  H12 UNL     1     -22.310   1.552  -7.290  1.00  0.00     0.277 HD
ATOM      9  H11 UNL     1     -21.871   1.779  -5.807  1.00  0.00     0.277 HD
BRANCH   7  10
HETATM   10  C5  UNL     1     -21.581   3.404  -6.965  1.00  0.00     0.232 C 
BRANCH  10  11
HETATM   11  C4  UNL     1     -21.323   3.436  -8.466  1.00  0.00     0.027 C 
BRANCH  11  12
HETATM   12  C3  UNL     1     -19.846   3.570  -8.756  1.00  0.00     0.001 C 
BRANCH  12  13
HETATM   13  C2  UNL     1     -19.433   2.680  -9.911  1.00  0.00    -0.005 C 
HETATM   14  C1  UNL     1     -20.588   1.772 -10.279  1.00  0.00     0.005 C 
ENDBRANCH  12  13
ENDBRANCH  11  12
ENDBRANCH  10  11
ENDBRANCH   7  10
ENDBRANCH   1   7
BRANCH   4  15
HETATM   15  C9  UNL     1     -26.784   0.793  -7.359  1.00  0.00     0.130 C 
HETATM   16  C10 UNL     1     -27.458  -0.066  -8.443  1.00  0.00     0.258 C 
HETATM   17  N3  UNL     1     -28.615  -0.100  -7.569  1.00  0.00    -0.071 N 
HETATM   18  C11 UNL     1     -27.638  -0.069  -6.457  1.00  0.00     0.258 C 
ATOM     19  H32 UNL     1     -29.368   0.585  -7.643  1.00  0.00     0.277 HD
ATOM     20  H31 UNL     1     -29.325  -0.829  -7.642  1.00  0.00     0.277 HD
ENDBRANCH   4  15
TORSDOF 6
ENDMDL
MODEL 2
REMARK VINA RESULT: -6.086101815      2.372      6.459
REMARK  6 active torsions:
REMARK  status: ('A' for Active; 'I' for Inactive)
REMARK    1  A    between atoms: C2_2  and  C3_3 
REMARK    2  A    between atoms: C3_3  and  C4_4 
REMARK    3  A    between atoms: C4_4  and  C5_5 
REMARK    4  A    between atoms: C5_5  and  N1_6 
REMARK    5  A    between atoms: N1_6  and  C6_9 
REMARK    6  A    between atoms: N2_12  and  C9_13 
ROOT
HETATM    1  C6  UNL     1     -23.403   1.442  -8.582  1.00  0.00     0.189 C 
HETATM    2  C7  UNL     1     -22.816   0.311  -9.416  1.00  0.00     0.052 C 
HETATM    3  C8  UNL     1     -22.527   0.955 -10.774  1.00  0.00     0.119 C 
HETATM    4  N2  UNL     1     -21.476   1.901 -10.589  1.00  0.00    -0.405 N 
HETATM    5  C12 UNL     1     -21.741   2.964  -9.689  1.00  0.00     0.119 C 
HETATM    6  C13 UNL     1     -22.421   2.559  -8.411  1.00  0.00     0.052 C 
ENDROOT
BRANCH   1   7
HETATM    7  N1  UNL     1     -24.689   1.887  -9.062  1.00  0.00    -0.071 N 
ATOM      8  H12 UNL     1     -24.806   1.635 -10.044  1.00  0.00     0.277 HD
ATOM      9  H11 UNL     1     -24.705   2.904  -9.137  1.00  0.00     0.277 HD
BRANCH   7  10
HETATM   10  C5  UNL     1     -25.798   1.430  -8.300  1.00  0.00     0.232 C 
BRANCH  10  11
HETATM   11  C4  UNL     1     -25.716   1.852  -6.838  1.00  0.00     0.027 C 
BRANCH  11  12
HETATM   12  C3  UNL     1     -26.186   0.739  -5.930  1.00  0.00     0.001 C 
BRANCH  12  13
HETATM   13  C2  UNL     1     -25.035   0.166  -5.128  1.00  0.00    -0.005 C 
HETATM   14  C1  UNL     1     -24.019   1.257  -4.865  1.00  0.00     0.005 C 
ENDBRANCH  12  13
ENDBRANCH  11  12
ENDBRANCH  10  11
ENDBRANCH   7  10
ENDBRANCH   1   7
BRANCH   4  15
HETATM   15  C9  UNL     1     -20.188   1.327 -10.471  1.00  0.00     0.130 C 
HETATM   16  C10 UNL     1     -19.555   1.087 -11.853  1.00  0.00     0.258 C 
HETATM   17  N3  UNL     1     -18.275   1.293 -11.201  1.00  0.00    -0.071 N 
HETATM   18  C11 UNL     1     -18.996   2.247 -10.329  1.00  0.00     0.258 C 
ATOM     19  H32 UNL     1     -17.734   0.517 -10.819  1.00  0.00     0.277 HD
ATOM     20  H31 UNL     1     -17.442   1.564 -11.723  1.00  0.00     0.277 HD
ENDBRANCH   4  15
TORSDOF 6
ENDMDL
MODEL 3
REMARK VINA RESULT: -6.043963387      1.054      1.212
REMARK  6 active torsions:
REMARK  status: ('A' for Active; 'I' for Inactive)
REMARK    1  A    between atoms: C2_2  and  C3_3 
REMARK    2  A    between atoms: C3_3  and  C4_4 
REMARK    3  A    between atoms: C4_4  and  C5_5 
REMARK    4  A    between atoms: C5_5  and  N1_6 
REMARK    5  A    between atoms: N1_6  and  C6_9 
REMARK    6  A    between atoms: N2_12  and  C9_13 
ROOT
HETATM    1  C6  UNL     1     -22.939   2.747  -6.778  1.00  0.00     0.189 C 
HETATM    2  C7  UNL     1     -24.238   3.173  -7.452  1.00  0.00     0.052 C 
HETATM    3  C8  UNL     1     -24.651   1.951  -8.276  1.00  0.00     0.119 C 
HETATM    4  N2  UNL     1     -24.998   0.912  -7.363  1.00  0.00    -0.405 N 
HETATM    5  C12 UNL     1     -23.971   0.476  -6.489  1.00  0.00     0.119 C 
HETATM    6  C13 UNL     1     -23.155   1.578  -5.869  1.00  0.00     0.052 C 
ENDROOT
BRANCH   1   7
HETATM    7  N1  UNL     1     -21.859   2.547  -7.712  1.00  0.00    -0.071 N 
ATOM      8  H12 UNL     1     -22.228   2.327  -8.638  1.00  0.00     0.277 HD
ATOM      9  H11 UNL     1     -21.369   1.677  -7.505  1.00  0.00     0.277 HD
BRANCH   7  10
HETATM   10  C5  UNL     1     -20.936   3.625  -7.794  1.00  0.00     0.232 C 
BRANCH  10  11
HETATM   11  C4  UNL     1     -19.921   3.442  -8.915  1.00  0.00     0.027 C 
BRANCH  11  12
HETATM   12  C3  UNL     1     -20.389   2.397  -9.900  1.00  0.00     0.001 C 
BRANCH  12  13
HETATM   13  C2  UNL     1     -19.221   1.797 -10.656  1.00  0.00    -0.005 C 
HETATM   14  C1  UNL     1     -19.527   0.350 -10.979  1.00  0.00     0.005 C 
ENDBRANCH  12  13
ENDBRANCH  11  12
ENDBRANCH  10  11
ENDBRANCH   7  10
ENDBRANCH   1   7
BRANCH   4  15
HETATM   15  C9  UNL     1     -26.269   1.064  -6.759  1.00  0.00     0.130 C 
HETATM   16  C10 UNL     1     -27.312   0.141  -7.413  1.00  0.00     0.258 C 
HETATM   17  N3  UNL     1     -27.966   0.114  -6.118  1.00  0.00    -0.071 N 
HETATM   18  C11 UNL     1     -26.602   0.220  -5.550  1.00  0.00     0.258 C 
ATOM     19  H32 UNL     1     -28.704   0.774  -5.872  1.00  0.00     0.277 HD
ATOM     20  H31 UNL     1     -28.603  -0.637  -5.851  1.00  0.00     0.277 HD
ENDBRANCH   4  15
TORSDOF 6
ENDMDL
MODEL 4
REMARK VINA RESULT: -5.871135021      0.959      1.768
REMARK  6 active torsions:
REMARK  status: ('A' for Active; 'I' for Inactive)
REMARK    1  A    between atoms: C2_2  and  C3_3 
REMARK    2  A    between atoms: C3_3  and  C4_4 
REMARK    3  A    between atoms: C4_4  and  C5_5 
REMARK    4  A    between atoms: C5_5  and  N1_6 
REMARK    5  A    between atoms: N1_6  and  C6_9 
REMARK    6  A    between atoms: N2_12  and  C9_13 
ROOT
HETATM    1  C6  UNL     1     -23.059   1.403  -7.266  1.00  0.00     0.189 C 
HETATM    2  C7  UNL     1     -23.639   0.617  -6.097  1.00  0.00     0.052 C 
HETATM    3  C8  UNL     1     -24.751   1.518  -5.554  1.00  0.00     0.119 C 
HETATM    4  N2  UNL     1     -25.777   1.580  -6.541  1.00  0.00    -0.405 N 
HETATM    5  C12 UNL     1     -25.406   2.117  -7.799  1.00  0.00     0.119 C 
HETATM    6  C13 UNL     1     -24.086   1.633  -8.331  1.00  0.00     0.052 C 
ENDROOT
BRANCH   1   7
HETATM    7  N1  UNL     1     -22.388   2.612  -6.855  1.00  0.00    -0.071 N 
ATOM      8  H12 UNL     1     -21.617   2.391  -6.224  1.00  0.00     0.277 HD
ATOM      9  H11 UNL     1     -22.983   3.149  -6.225  1.00  0.00     0.277 HD
BRANCH   7  10
HETATM   10  C5  UNL     1     -21.933   3.432  -7.922  1.00  0.00     0.232 C 
BRANCH  10  11
HETATM   11  C4  UNL     1     -20.459   3.796  -7.793  1.00  0.00     0.027 C 
BRANCH  11  12
HETATM   12  C3  UNL     1     -19.707   3.455  -9.058  1.00  0.00     0.001 C 
BRANCH  12  13
HETATM   13  C2  UNL     1     -20.441   2.402  -9.863  1.00  0.00    -0.005 C 
HETATM   14  C1  UNL     1     -19.434   1.556 -10.614  1.00  0.00     0.005 C 
ENDBRANCH  12  13
ENDBRANCH  11  12
ENDBRANCH  10  11
ENDBRANCH   7  10
ENDBRANCH   1   7
BRANCH   4  15
HETATM   15  C9  UNL     1     -26.599   0.429  -6.603  1.00  0.00     0.130 C 
HETATM   16  C10 UNL     1     -27.998   0.710  -6.027  1.00  0.00     0.258 C 
HETATM   17  N3  UNL     1     -28.482  -0.291  -6.959  1.00  0.00    -0.071 N 
HETATM   18  C11 UNL     1     -27.406   0.183  -7.858  1.00  0.00     0.258 C 
ATOM     19  H32 UNL     1     -28.572  -1.273  -6.697  1.00  0.00     0.277 HD
ATOM     20  H31 UNL     1     -29.458  -0.323  -7.257  1.00  0.00     0.277 HD
ENDBRANCH   4  15
TORSDOF 6
ENDMDL
MODEL 5
REMARK VINA RESULT: -5.755262989      1.124      1.380
REMARK  6 active torsions:
REMARK  status: ('A' for Active; 'I' for Inactive)
REMARK    1  A    between atoms: C2_2  and  C3_3 
REMARK    2  A    between atoms: C3_3  and  C4_4 
REMARK    3  A    between atoms: C4_4  and  C5_5 
REMARK    4  A    between atoms: C5_5  and  N1_6 
REMARK    5  A    between atoms: N1_6  and  C6_9 
REMARK    6  A    between atoms: N2_12  and  C9_13 
ROOT
HETATM    1  C6  UNL     1     -23.058   2.618  -6.773  1.00  0.00     0.189 C 
HETATM    2  C7  UNL     1     -24.399   3.063  -7.340  1.00  0.00     0.052 C 
HETATM    3  C8  UNL     1     -24.904   1.843  -8.115  1.00  0.00     0.119 C 
HETATM    4  N2  UNL     1     -25.192   0.819  -7.166  1.00  0.00    -0.405 N 
HETATM    5  C12 UNL     1     -24.103   0.370  -6.377  1.00  0.00     0.119 C 
HETATM    6  C13 UNL     1     -23.218   1.459  -5.838  1.00  0.00     0.052 C 
ENDROOT
BRANCH   1   7
HETATM    7  N1  UNL     1     -22.063   2.389  -7.793  1.00  0.00    -0.071 N 
ATOM      8  H12 UNL     1     -22.390   1.684  -8.454  1.00  0.00     0.277 HD
ATOM      9  H11 UNL     1     -21.258   1.902  -7.398  1.00  0.00     0.277 HD
BRANCH   7  10
HETATM   10  C5  UNL     1     -21.643   3.556  -8.485  1.00  0.00     0.232 C 
BRANCH  10  11
HETATM   11  C4  UNL     1     -20.139   3.782  -8.393  1.00  0.00     0.027 C 
BRANCH  11  12
HETATM   12  C3  UNL     1     -19.419   3.081  -9.521  1.00  0.00     0.001 C 
BRANCH  12  13
HETATM   13  C2  UNL     1     -18.970   4.068 -10.579  1.00  0.00    -0.005 C 
HETATM   14  C1  UNL     1     -18.297   3.316 -11.708  1.00  0.00     0.005 C 
ENDBRANCH  12  13
ENDBRANCH  11  12
ENDBRANCH  10  11
ENDBRANCH   7  10
ENDBRANCH   1   7
BRANCH   4  15
HETATM   15  C9  UNL     1     -26.405   1.000  -6.459  1.00  0.00     0.130 C 
HETATM   16  C10 UNL     1     -27.555   0.213  -7.112  1.00  0.00     0.258 C 
HETATM   17  N3  UNL     1     -28.120   0.112  -5.779  1.00  0.00    -0.071 N 
HETATM   18  C11 UNL     1     -26.717   0.073  -5.307  1.00  0.00     0.258 C 
ATOM     19  H32 UNL     1     -28.789   0.795  -5.424  1.00  0.00     0.277 HD
ATOM     20  H31 UNL     1     -28.791  -0.615  -5.532  1.00  0.00     0.277 HD
ENDBRANCH   4  15
TORSDOF 6
ENDMDL
