MODEL 1
REMARK VINA RESULT: -6.368926915      0.000      0.000
REMARK  7 active torsions:
REMARK  status: ('A' for Active; 'I' for Inactive)
REMARK    1  A    between atoms: C2_2  and  C3_3 
REMARK    2  A    between atoms: C3_3  and  O1_4 
REMARK    3  A    between atoms: O1_4  and  C4_5 
REMARK    4  A    between atoms: C6_8  and  N1_9 
REMARK       I    between atoms: N1_9  and  C7_11 
REMARK       I    between atoms: C7_11  and  N2_12 
REMARK    5  A    between atoms: C8_16  and  O3_17 
REMARK    6  A    between atoms: C10_19  and  N4_20 
REMARK    7  A    between atoms: N4_20  and  N5_22 
ROOT
HETATM    1  C4  UNL     1     -21.263   1.775 -11.948  1.00  0.00     0.286 C 
HETATM    2  O2  UNL     1     -22.617   1.902 -12.229  1.00  0.00    -0.357 OA
HETATM    3  C5  UNL     1     -23.373   0.832 -11.768  1.00  0.00     0.199 C 
HETATM    4  C6  UNL     1     -23.382   0.747 -10.256  1.00  0.00     0.139 C 
HETATM    5  C8  UNL     1     -22.171   1.436  -9.689  1.00  0.00     0.174 C 
HETATM    6  C10 UNL     1     -21.009   1.127 -10.611  1.00  0.00     0.186 C 
ENDROOT
BRANCH   4   7
HETATM    7  N1  UNL     1     -24.612   1.207  -9.685  1.00  0.00    -0.356 N 
HETATM    8  C7  UNL     1     -25.262   0.442  -8.692  1.00  0.00     0.182 C 
HETATM    9  N2  UNL     1     -24.756   0.376  -7.486  1.00  0.00    -0.374 N 
HETATM   10  N3  UNL     1     -26.456  -0.282  -8.921  1.00  0.00    -0.064 NA
ATOM     11  H22 UNL     1     -23.895   0.897  -7.321  1.00  0.00     0.158 HD
ATOM     12  H21 UNL     1     -25.225  -0.176  -6.768  1.00  0.00     0.158 HD
ATOM     13  H1  UNL     1     -25.019   2.089  -9.997  1.00  0.00     0.162 HD
ENDBRANCH   4   7
BRANCH   5  14
HETATM   14  O3  UNL     1     -22.339   2.779  -9.469  1.00  0.00    -0.386 OA
HETATM   15  C9  UNL     1     -22.259   3.088  -8.092  1.00  0.00     0.202 C 
ENDBRANCH   5  14
BRANCH   6  16
HETATM   16  N4  UNL     1     -19.810   1.592  -9.971  1.00  0.00    -0.310 N 
ATOM     17  H4  UNL     1     -19.858   2.163  -9.127  1.00  0.00     0.182 HD
BRANCH  16  18
HETATM   18  N5  UNL     1     -18.720   1.284 -10.465  1.00  0.00    -0.253 N 
HETATM   19  N6  UNL     1     -17.769   1.419 -11.259  1.00  0.00    -0.331 N 
ATOM     20  H62 UNL     1     -18.078   2.241 -11.778  1.00  0.00     0.178 HD
ATOM     21  H61 UNL     1     -16.869   1.166 -11.667  1.00  0.00     0.178 HD
ATOM     22  H5  UNL     1     -18.449   0.465  -9.922  1.00  0.00     0.207 HD
ENDBRANCH  16  18
ENDBRANCH   6  16
BRANCH   1  23
HETATM   23  O1  UNL     1     -20.605   1.128 -12.984  1.00  0.00    -0.359 OA
BRANCH  23  24
HETATM   24  C3  UNL     1     -20.457   2.018 -14.041  1.00  0.00     0.170 C 
BRANCH  24  25
HETATM   25  C2  UNL     1     -19.620   3.214 -13.657  1.00  0.00     0.022 C 
HETATM   26  C1  UNL     1     -18.292   3.207 -14.406  1.00  0.00     0.007 C 
ENDBRANCH  24  25
ENDBRANCH  23  24
ENDBRANCH   1  23
TORSDOF 7
ENDMDL
MODEL 2
REMARK VINA RESULT: -6.104362170      2.391      2.999
REMARK  7 active torsions:
REMARK  status: ('A' for Active; 'I' for Inactive)
REMARK    1  A    between atoms: C2_2  and  C3_3 
REMARK    2  A    between atoms: C3_3  and  O1_4 
REMARK    3  A    between atoms: O1_4  and  C4_5 
REMARK    4  A    between atoms: C6_8  and  N1_9 
REMARK       I    between atoms: N1_9  and  C7_11 
REMARK       I    between atoms: C7_11  and  N2_12 
REMARK    5  A    between atoms: C8_16  and  O3_17 
REMARK    6  A    between atoms: C10_19  and  N4_20 
REMARK    7  A    between atoms: N4_20  and  N5_22 
ROOT
HETATM    1  C4  UNL     1     -23.991   1.250 -10.667  1.00  0.00     0.286 C 
HETATM    2  O2  UNL     1     -25.229   1.568 -10.120  1.00  0.00    -0.357 OA
HETATM    3  C5  UNL     1     -25.637   0.674  -9.139  1.00  0.00     0.199 C 
HETATM    4  C6  UNL     1     -24.744   0.718  -7.917  1.00  0.00     0.139 C 
HETATM    5  C8  UNL     1     -23.386   1.251  -8.284  1.00  0.00     0.174 C 
HETATM    6  C10 UNL     1     -23.038   0.685  -9.646  1.00  0.00     0.186 C 
ENDROOT
BRANCH   4   7
HETATM    7  N1  UNL     1     -25.345   1.415  -6.820  1.00  0.00    -0.356 N 
HETATM    8  C7  UNL     1     -25.981   0.693  -5.786  1.00  0.00     0.182 C 
HETATM    9  N2  UNL     1     -25.261   0.015  -4.928  1.00  0.00    -0.374 N 
HETATM   10  N3  UNL     1     -27.385   0.652  -5.612  1.00  0.00    -0.064 NA
ATOM     11  H22 UNL     1     -24.250   0.045  -5.053  1.00  0.00     0.158 HD
ATOM     12  H21 UNL     1     -25.720  -0.507  -4.180  1.00  0.00     0.158 HD
ATOM     13  H1  UNL     1     -25.314   2.434  -6.785  1.00  0.00     0.162 HD
ENDBRANCH   4   7
BRANCH   5  14
HETATM   14  O3  UNL     1     -23.284   2.617  -8.230  1.00  0.00    -0.386 OA
HETATM   15  C9  UNL     1     -22.337   3.023  -7.261  1.00  0.00     0.202 C 
ENDBRANCH   5  14
BRANCH   6  16
HETATM   16  N4  UNL     1     -21.663   1.005  -9.911  1.00  0.00    -0.310 N 
ATOM     17  H4  UNL     1     -21.344   1.973  -9.911  1.00  0.00     0.182 HD
BRANCH  16  18
HETATM   18  N5  UNL     1     -20.876   0.080 -10.139  1.00  0.00    -0.253 N 
HETATM   19  N6  UNL     1     -19.750  -0.407 -10.359  1.00  0.00    -0.331 N 
ATOM     20  H62 UNL     1     -19.175   0.435 -10.333  1.00  0.00     0.178 HD
ATOM     21  H61 UNL     1     -19.099  -1.170 -10.548  1.00  0.00     0.178 HD
ATOM     22  H5  UNL     1     -21.485  -0.737 -10.158  1.00  0.00     0.207 HD
ENDBRANCH  16  18
ENDBRANCH   6  16
BRANCH   1  23
HETATM   23  O1  UNL     1     -24.139   0.422 -11.769  1.00  0.00    -0.359 OA
BRANCH  23  24
HETATM   24  C3  UNL     1     -24.156   1.207 -12.916  1.00  0.00     0.170 C 
BRANCH  24  25
HETATM   25  C2  UNL     1     -22.775   1.692 -13.287  1.00  0.00     0.022 C 
HETATM   26  C1  UNL     1     -22.526   1.524 -14.782  1.00  0.00     0.007 C 
ENDBRANCH  24  25
ENDBRANCH  23  24
ENDBRANCH   1  23
TORSDOF 7
ENDMDL
MODEL 3
REMARK VINA RESULT: -6.063152978      4.443      6.226
REMARK  7 active torsions:
REMARK  status: ('A' for Active; 'I' for Inactive)
REMARK    1  A    between atoms: C2_2  and  C3_3 
REMARK    2  A    between atoms: C3_3  and  O1_4 
REMARK    3  A    between atoms: O1_4  and  C4_5 
REMARK    4  A    between atoms: C6_8  and  N1_9 
REMARK       I    between atoms: N1_9  and  C7_11 
REMARK       I    between atoms: C7_11  and  N2_12 
REMARK    5  A    between atoms: C8_16  and  O3_17 
REMARK    6  A    between atoms: C10_19  and  N4_20 
REMARK    7  A    between atoms: N4_20  and  N5_22 
ROOT
HETATM    1  C4  UNL     1     -24.082   0.491  -7.015  1.00  0.00     0.286 C 
HETATM    2  O2  UNL     1     -24.503  -0.423  -6.057  1.00  0.00    -0.357 OA
HETATM    3  C5  UNL     1     -25.304   0.146  -5.075  1.00  0.00     0.199 C 
HETATM    4  C6  UNL     1     -26.625   0.637  -5.628  1.00  0.00     0.139 C 
HETATM    5  C8  UNL     1     -26.503   0.908  -7.103  1.00  0.00     0.174 C 
HETATM    6  C10 UNL     1     -25.136   1.520  -7.333  1.00  0.00     0.186 C 
ENDROOT
BRANCH   4   7
HETATM    7  N1  UNL     1     -27.717  -0.232  -5.302  1.00  0.00    -0.356 N 
HETATM    8  C7  UNL     1     -28.642   0.139  -4.302  1.00  0.00     0.182 C 
HETATM    9  N2  UNL     1     -29.506   1.095  -4.536  1.00  0.00    -0.374 N 
HETATM   10  N3  UNL     1     -28.698  -0.471  -3.026  1.00  0.00    -0.064 NA
ATOM     11  H22 UNL     1     -29.465   1.534  -5.455  1.00  0.00     0.158 HD
ATOM     12  H21 UNL     1     -30.175   1.362  -3.814  1.00  0.00     0.158 HD
ATOM     13  H1  UNL     1     -27.825  -1.119  -5.794  1.00  0.00     0.162 HD
ENDBRANCH   4   7
BRANCH   5  14
HETATM   14  O3  UNL     1     -26.742  -0.184  -7.897  1.00  0.00    -0.386 OA
HETATM   15  C9  UNL     1     -27.932  -0.024  -8.645  1.00  0.00     0.202 C 
ENDBRANCH   5  14
BRANCH   6  16
HETATM   16  N4  UNL     1     -25.090   1.983  -8.691  1.00  0.00    -0.310 N 
ATOM     17  H4  UNL     1     -25.517   2.871  -8.954  1.00  0.00     0.182 HD
BRANCH  16  18
HETATM   18  N5  UNL     1     -24.522   1.282  -9.534  1.00  0.00    -0.253 N 
HETATM   19  N6  UNL     1     -24.002   1.061 -10.646  1.00  0.00    -0.331 N 
ATOM     20  H62 UNL     1     -24.119   1.973 -11.088  1.00  0.00     0.178 HD
ATOM     21  H61 UNL     1     -23.533   0.482 -11.342  1.00  0.00     0.178 HD
ATOM     22  H5  UNL     1     -24.424   0.387  -9.056  1.00  0.00     0.207 HD
ENDBRANCH  16  18
ENDBRANCH   6  16
BRANCH   1  23
HETATM   23  O1  UNL     1     -22.874   1.066  -6.649  1.00  0.00    -0.359 OA
BRANCH  23  24
HETATM   24  C3  UNL     1     -23.073   2.426  -6.444  1.00  0.00     0.170 C 
BRANCH  24  25
HETATM   25  C2  UNL     1     -21.866   3.238  -6.847  1.00  0.00     0.022 C 
HETATM   26  C1  UNL     1     -21.889   3.534  -8.343  1.00  0.00     0.007 C 
ENDBRANCH  24  25
ENDBRANCH  23  24
ENDBRANCH   1  23
TORSDOF 7
ENDMDL
MODEL 4
REMARK VINA RESULT: -5.949159790      1.633      2.055
REMARK  7 active torsions:
REMARK  status: ('A' for Active; 'I' for Inactive)
REMARK    1  A    between atoms: C2_2  and  C3_3 
REMARK    2  A    between atoms: C3_3  and  O1_4 
REMARK    3  A    between atoms: O1_4  and  C4_5 
REMARK    4  A    between atoms: C6_8  and  N1_9 
REMARK       I    between atoms: N1_9  and  C7_11 
REMARK       I    between atoms: C7_11  and  N2_12 
REMARK    5  A    between atoms: C8_16  and  O3_17 
REMARK    6  A    between atoms: C10_19  and  N4_20 
REMARK    7  A    between atoms: N4_20  and  N5_22 
ROOT
HETATM    1  C4  UNL     1     -19.906   2.289 -12.861  1.00  0.00     0.286 C 
HETATM    2  O2  UNL     1     -21.261   2.576 -12.759  1.00  0.00    -0.357 OA
HETATM    3  C5  UNL     1     -21.991   1.558 -12.160  1.00  0.00     0.199 C 
HETATM    4  C6  UNL     1     -21.613   1.361 -10.707  1.00  0.00     0.139 C 
HETATM    5  C8  UNL     1     -20.222   1.878 -10.458  1.00  0.00     0.174 C 
HETATM    6  C10 UNL     1     -19.389   1.520 -11.672  1.00  0.00     0.186 C 
ENDROOT
BRANCH   4   7
HETATM    7  N1  UNL     1     -22.585   1.902  -9.806  1.00  0.00    -0.356 N 
HETATM    8  C7  UNL     1     -23.659   1.101  -9.358  1.00  0.00     0.182 C 
HETATM    9  N2  UNL     1     -23.438   0.136  -8.501  1.00  0.00    -0.374 N 
HETATM   10  N3  UNL     1     -24.996   1.275  -9.789  1.00  0.00    -0.064 NA
ATOM     11  H22 UNL     1     -22.475   0.010  -8.191  1.00  0.00     0.158 HD
ATOM     12  H21 UNL     1     -24.213  -0.443  -8.178  1.00  0.00     0.158 HD
ATOM     13  H1  UNL     1     -22.502   2.867  -9.487  1.00  0.00     0.162 HD
ENDBRANCH   4   7
BRANCH   5  14
HETATM   14  O3  UNL     1     -20.165   3.210 -10.141  1.00  0.00    -0.386 OA
HETATM   15  C9  UNL     1     -19.811   3.402  -8.786  1.00  0.00     0.202 C 
ENDBRANCH   5  14
BRANCH   6  16
HETATM   16  N4  UNL     1     -18.017   1.810 -11.358  1.00  0.00    -0.310 N 
ATOM     17  H4  UNL     1     -17.420   1.103 -10.929  1.00  0.00     0.182 HD
BRANCH  16  18
HETATM   18  N5  UNL     1     -17.577   2.934 -11.620  1.00  0.00    -0.253 N 
HETATM   19  N6  UNL     1     -17.261   4.108 -11.345  1.00  0.00    -0.331 N 
ATOM     20  H62 UNL     1     -17.511   4.140 -10.357  1.00  0.00     0.178 HD
ATOM     21  H61 UNL     1     -16.898   5.036 -11.561  1.00  0.00     0.178 HD
ATOM     22  H5  UNL     1     -17.341   2.860 -12.609  1.00  0.00     0.207 HD
ENDBRANCH  16  18
ENDBRANCH   6  16
BRANCH   1  23
HETATM   23  O1  UNL     1     -19.626   1.657 -14.063  1.00  0.00    -0.359 OA
BRANCH  23  24
HETATM   24  C3  UNL     1     -19.492   2.623 -15.053  1.00  0.00     0.170 C 
BRANCH  24  25
HETATM   25  C2  UNL     1     -18.112   3.236 -15.058  1.00  0.00     0.022 C 
HETATM   26  C1  UNL     1     -17.555   3.299 -16.475  1.00  0.00     0.007 C 
ENDBRANCH  24  25
ENDBRANCH  23  24
ENDBRANCH   1  23
TORSDOF 7
ENDMDL
MODEL 5
REMARK VINA RESULT: -5.918963891      2.531      3.129
REMARK  7 active torsions:
REMARK  status: ('A' for Active; 'I' for Inactive)
REMARK    1  A    between atoms: C2_2  and  C3_3 
REMARK    2  A    between atoms: C3_3  and  O1_4 
REMARK    3  A    between atoms: O1_4  and  C4_5 
REMARK    4  A    between atoms: C6_8  and  N1_9 
REMARK       I    between atoms: N1_9  and  C7_11 
REMARK       I    between atoms: C7_11  and  N2_12 
REMARK    5  A    between atoms: C8_16  and  O3_17 
REMARK    6  A    between atoms: C10_19  and  N4_20 
REMARK    7  A    between atoms: N4_20  and  N5_22 
ROOT
HETATM    1  C4  UNL     1     -23.950   1.276 -10.722  1.00  0.00     0.286 C 
HETATM    2  O2  UNL     1     -25.229   1.406 -10.196  1.00  0.00    -0.357 OA
HETATM    3  C5  UNL     1     -25.541   0.419  -9.271  1.00  0.00     0.199 C 
HETATM    4  C6  UNL     1     -24.688   0.513  -8.024  1.00  0.00     0.139 C 
HETATM    5  C8  UNL     1     -23.402   1.232  -8.326  1.00  0.00     0.174 C 
HETATM    6  C10 UNL     1     -22.954   0.785  -9.703  1.00  0.00     0.186 C 
ENDROOT
BRANCH   4   7
HETATM    7  N1  UNL     1     -25.398   1.070  -6.911  1.00  0.00    -0.356 N 
HETATM    8  C7  UNL     1     -25.420   0.391  -5.673  1.00  0.00     0.182 C 
HETATM    9  N2  UNL     1     -24.340   0.352  -4.933  1.00  0.00    -0.374 N 
HETATM   10  N3  UNL     1     -26.563  -0.271  -5.166  1.00  0.00    -0.064 NA
ATOM     11  H22 UNL     1     -23.516   0.829  -5.298  1.00  0.00     0.158 HD
ATOM     12  H21 UNL     1     -24.356  -0.138  -4.038  1.00  0.00     0.158 HD
ATOM     13  H1  UNL     1     -25.888   1.960  -7.014  1.00  0.00     0.162 HD
ENDBRANCH   4   7
BRANCH   5  14
HETATM   14  O3  UNL     1     -23.476   2.595  -8.203  1.00  0.00    -0.386 OA
HETATM   15  C9  UNL     1     -22.694   3.057  -7.119  1.00  0.00     0.202 C 
ENDBRANCH   5  14
BRANCH   6  16
HETATM   16  N4  UNL     1     -21.626   1.290  -9.914  1.00  0.00    -0.310 N 
ATOM     17  H4  UNL     1     -20.811   0.751  -9.621  1.00  0.00     0.182 HD
BRANCH  16  18
HETATM   18  N5  UNL     1     -21.493   2.391 -10.457  1.00  0.00    -0.253 N 
HETATM   19  N6  UNL     1     -21.388   3.633 -10.467  1.00  0.00    -0.331 N 
ATOM     20  H62 UNL     1     -21.445   3.831  -9.468  1.00  0.00     0.178 HD
ATOM     21  H61 UNL     1     -21.278   4.543 -10.915  1.00  0.00     0.178 HD
ATOM     22  H5  UNL     1     -21.440   2.151 -11.447  1.00  0.00     0.207 HD
ENDBRANCH  16  18
ENDBRANCH   6  16
BRANCH   1  23
HETATM   23  O1  UNL     1     -23.966   0.494 -11.867  1.00  0.00    -0.359 OA
BRANCH  23  24
HETATM   24  C3  UNL     1     -24.172   1.319 -12.967  1.00  0.00     0.170 C 
BRANCH  24  25
HETATM   25  C2  UNL     1     -22.874   1.696 -13.638  1.00  0.00     0.022 C 
HETATM   26  C1  UNL     1     -22.963   1.483 -15.145  1.00  0.00     0.007 C 
ENDBRANCH  24  25
ENDBRANCH  23  24
ENDBRANCH   1  23
TORSDOF 7
ENDMDL
