MODEL 1
REMARK VINA RESULT: -8.706276066      0.000      0.000
REMARK  6 active torsions:
REMARK  status: ('A' for Active; 'I' for Inactive)
REMARK    1  A    between atoms: C2_2  and  N1_4 
REMARK    2  A    between atoms: C2_2  and  C4_8 
REMARK       I    between atoms: C4_8  and  N2_10 
REMARK    3  A    between atoms: N2_10  and  C5_12 
REMARK    4  A    between atoms: C5_12  and  C6_13 
REMARK    5  A    between atoms: C5_12  and  C7_20 
REMARK       I    between atoms: C6_13  and  N3_15 
REMARK    6  A    between atoms: N3_15  and  N4_17 
ROOT
HETATM    1  C5  UNL     1      23.435  -1.980  10.400  1.00  0.00     0.248 C 
ENDROOT
BRANCH   1   2
HETATM    2  N2  UNL     1      24.182  -2.142   9.176  1.00  0.00    -0.339 N 
HETATM    3  C4  UNL     1      24.659  -1.044   8.426  1.00  0.00     0.254 C 
HETATM    4  O1  UNL     1      24.421   0.108   8.846  1.00  0.00    -0.271 OA
ATOM      5  H2  UNL     1      24.373  -3.086   8.840  1.00  0.00     0.163 HD
BRANCH   3   6
HETATM    6  C2  UNL     1      25.421  -1.229   7.177  1.00  0.00     0.196 C 
HETATM    7  C1  UNL     1      26.758  -1.896   7.414  1.00  0.00     0.056 C 
HETATM    8  C3  UNL     1      24.635  -2.109   6.219  1.00  0.00     0.056 C 
BRANCH   6   9
HETATM    9  N1  UNL     1      25.698   0.067   6.570  1.00  0.00    -0.062 N 
ATOM     10  H13 UNL     1      26.604   0.451   6.838  1.00  0.00     0.275 HD
ATOM     11  H12 UNL     1      25.875   0.012   5.566  1.00  0.00     0.275 HD
ATOM     12  H11 UNL     1      24.916   0.677   6.807  1.00  0.00     0.275 HD
ENDBRANCH   6   9
ENDBRANCH   3   6
ENDBRANCH   1   2
BRANCH   1  13
HETATM   13  C6  UNL     1      22.990  -3.323  10.851  1.00  0.00     0.266 C 
HETATM   14  O2  UNL     1      22.724  -4.246  10.022  1.00  0.00    -0.269 OA
HETATM   15  N3  UNL     1      22.837  -3.656  12.223  1.00  0.00    -0.275 N 
ATOM     16  H3  UNL     1      23.044  -2.937  12.916  1.00  0.00     0.189 HD
BRANCH  15  17
HETATM   17  N4  UNL     1      22.423  -4.906  12.678  1.00  0.00    -0.343 N 
ATOM     18  H42 UNL     1      23.016  -5.702  12.447  1.00  0.00     0.176 HD
ATOM     19  H41 UNL     1      21.573  -5.061  13.220  1.00  0.00     0.176 HD
ENDBRANCH  15  17
ENDBRANCH   1  13
BRANCH   1  20
HETATM   20  C7  UNL     1      22.195  -1.224  10.041  1.00  0.00     0.132 A 
HETATM   21  N5  UNL     1      21.430  -1.559   8.985  1.00  0.00    -0.322 N 
HETATM   22  C8  UNL     1      20.403  -0.711   8.919  1.00  0.00     0.215 A 
ATOM     23  H5  UNL     1      21.606  -2.333   8.344  1.00  0.00     0.169 HD
HETATM   24  C9  UNL     1      19.362  -0.652   8.018  1.00  0.00     0.295 A 
HETATM   25  N9  UNL     1      20.517   0.164   9.935  1.00  0.00    -0.170 N 
HETATM   26  O3  UNL     1      19.271  -1.482   7.071  1.00  0.00    -0.264 OA
HETATM   27  N6  UNL     1      18.438   0.331   8.188  1.00  0.00    -0.293 N 
HETATM   28  C10 UNL     1      18.551   1.208   9.204  1.00  0.00     0.211 A 
ATOM     29  H6  UNL     1      17.654   0.405   7.541  1.00  0.00     0.172 HD
HETATM   30  N7  UNL     1      17.587   2.244   9.390  1.00  0.00    -0.062 NA
HETATM   31  N8  UNL     1      19.597   1.091  10.050  1.00  0.00    -0.250 N 
ATOM     32  H8  UNL     1      19.676   1.758  10.817  1.00  0.00     0.192 HD
HETATM   33  N10 UNL     1      21.624  -0.172  10.608  1.00  0.00    -0.263 N 
ATOM     34  H10 UNL     1      21.975   0.310  11.435  1.00  0.00     0.190 HD
ENDBRANCH   1  20
TORSDOF 6
ENDMDL
MODEL 2
REMARK VINA RESULT: -8.550123539      1.528      1.787
REMARK  6 active torsions:
REMARK  status: ('A' for Active; 'I' for Inactive)
REMARK    1  A    between atoms: C2_2  and  N1_4 
REMARK    2  A    between atoms: C2_2  and  C4_8 
REMARK       I    between atoms: C4_8  and  N2_10 
REMARK    3  A    between atoms: N2_10  and  C5_12 
REMARK    4  A    between atoms: C5_12  and  C6_13 
REMARK    5  A    between atoms: C5_12  and  C7_20 
REMARK       I    between atoms: C6_13  and  N3_15 
REMARK    6  A    between atoms: N3_15  and  N4_17 
ROOT
HETATM    1  C5  UNL     1      23.698  -2.293  10.397  1.00  0.00     0.248 C 
ENDROOT
BRANCH   1   2
HETATM    2  N2  UNL     1      24.388  -2.371   9.133  1.00  0.00    -0.339 N 
HETATM    3  C4  UNL     1      24.818  -1.224   8.429  1.00  0.00     0.254 C 
HETATM    4  O1  UNL     1      24.588  -0.102   8.929  1.00  0.00    -0.271 OA
ATOM      5  H2  UNL     1      24.572  -3.290   8.731  1.00  0.00     0.163 HD
BRANCH   3   6
HETATM    6  C2  UNL     1      25.521  -1.323   7.137  1.00  0.00     0.196 C 
HETATM    7  C1  UNL     1      26.922  -1.876   7.287  1.00  0.00     0.056 C 
HETATM    8  C3  UNL     1      24.761  -2.251   6.205  1.00  0.00     0.056 C 
BRANCH   6   9
HETATM    9  N1  UNL     1      25.653   0.002   6.542  1.00  0.00    -0.062 N 
ATOM     10  H13 UNL     1      26.618   0.331   6.503  1.00  0.00     0.275 HD
ATOM     11  H12 UNL     1      25.473   0.012   5.538  1.00  0.00     0.275 HD
ATOM     12  H11 UNL     1      25.037   0.623   7.067  1.00  0.00     0.275 HD
ENDBRANCH   6   9
ENDBRANCH   3   6
ENDBRANCH   1   2
BRANCH   1  13
HETATM   13  C6  UNL     1      23.452  -3.678  10.876  1.00  0.00     0.266 C 
HETATM   14  O2  UNL     1      22.770  -4.502  10.193  1.00  0.00    -0.269 OA
HETATM   15  N3  UNL     1      23.957  -4.160  12.111  1.00  0.00    -0.275 N 
ATOM     16  H3  UNL     1      24.509  -3.522  12.685  1.00  0.00     0.189 HD
BRANCH  15  17
HETATM   17  N4  UNL     1      23.744  -5.452  12.587  1.00  0.00    -0.343 N 
ATOM     18  H42 UNL     1      23.265  -5.541  13.483  1.00  0.00     0.176 HD
ATOM     19  H41 UNL     1      24.038  -6.296  12.096  1.00  0.00     0.176 HD
ENDBRANCH  15  17
ENDBRANCH   1  13
BRANCH   1  20
HETATM   20  C7  UNL     1      22.354  -1.701  10.111  1.00  0.00     0.132 A 
HETATM   21  N5  UNL     1      21.523  -1.301  11.091  1.00  0.00    -0.322 N 
HETATM   22  C8  UNL     1      20.411  -0.820  10.533  1.00  0.00     0.215 A 
ATOM     23  H5  UNL     1      21.712  -1.356  12.091  1.00  0.00     0.169 HD
HETATM   24  C9  UNL     1      19.280  -0.298  11.124  1.00  0.00     0.295 A 
HETATM   25  N9  UNL     1      20.538  -0.916   9.197  1.00  0.00    -0.170 N 
HETATM   26  O3  UNL     1      19.178  -0.216  12.380  1.00  0.00    -0.264 OA
HETATM   27  N6  UNL     1      18.281   0.125  10.304  1.00  0.00    -0.293 N 
HETATM   28  C10 UNL     1      18.406   0.029   8.967  1.00  0.00     0.211 A 
ATOM     29  H6  UNL     1      17.430   0.518  10.706  1.00  0.00     0.172 HD
HETATM   30  N7  UNL     1      17.363   0.470   8.098  1.00  0.00    -0.062 NA
HETATM   31  N8  UNL     1      19.542  -0.492   8.456  1.00  0.00    -0.250 N 
ATOM     32  H8  UNL     1      19.631  -0.561   7.442  1.00  0.00     0.192 HD
HETATM   33  N10 UNL     1      21.738  -1.459   8.964  1.00  0.00    -0.263 N 
ATOM     34  H10 UNL     1      22.122  -1.656   8.040  1.00  0.00     0.190 HD
ENDBRANCH   1  20
TORSDOF 6
ENDMDL
MODEL 3
REMARK VINA RESULT: -8.425175895      2.269      6.209
REMARK  6 active torsions:
REMARK  status: ('A' for Active; 'I' for Inactive)
REMARK    1  A    between atoms: C2_2  and  N1_4 
REMARK    2  A    between atoms: C2_2  and  C4_8 
REMARK       I    between atoms: C4_8  and  N2_10 
REMARK    3  A    between atoms: N2_10  and  C5_12 
REMARK    4  A    between atoms: C5_12  and  C6_13 
REMARK    5  A    between atoms: C5_12  and  C7_20 
REMARK       I    between atoms: C6_13  and  N3_15 
REMARK    6  A    between atoms: N3_15  and  N4_17 
ROOT
HETATM    1  C5  UNL     1      19.422  -0.426  10.639  1.00  0.00     0.248 C 
ENDROOT
BRANCH   1   2
HETATM    2  N2  UNL     1      18.924   0.877  10.271  1.00  0.00    -0.339 N 
HETATM    3  C4  UNL     1      17.924   1.059   9.290  1.00  0.00     0.254 C 
HETATM    4  O1  UNL     1      17.457   0.047   8.725  1.00  0.00    -0.271 OA
ATOM      5  H2  UNL     1      19.309   1.698  10.737  1.00  0.00     0.163 HD
BRANCH   3   6
HETATM    6  C2  UNL     1      17.427   2.399   8.927  1.00  0.00     0.196 C 
HETATM    7  C1  UNL     1      18.516   3.448   8.978  1.00  0.00     0.056 C 
HETATM    8  C3  UNL     1      16.877   2.379   7.511  1.00  0.00     0.056 C 
BRANCH   6   9
HETATM    9  N1  UNL     1      16.396   2.817   9.869  1.00  0.00    -0.062 N 
ATOM     10  H13 UNL     1      16.218   2.130  10.602  1.00  0.00     0.275 HD
ATOM     11  H12 UNL     1      16.693   3.580  10.478  1.00  0.00     0.275 HD
ATOM     12  H11 UNL     1      15.567   3.042   9.318  1.00  0.00     0.275 HD
ENDBRANCH   6   9
ENDBRANCH   3   6
ENDBRANCH   1   2
BRANCH   1  13
HETATM   13  C6  UNL     1      19.720  -0.413  12.094  1.00  0.00     0.266 C 
HETATM   14  O2  UNL     1      20.913  -0.381  12.525  1.00  0.00    -0.269 OA
HETATM   15  N3  UNL     1      18.701  -0.435  13.082  1.00  0.00    -0.275 N 
ATOM     16  H3  UNL     1      17.731  -0.461  12.769  1.00  0.00     0.189 HD
BRANCH  15  17
HETATM   17  N4  UNL     1      18.948  -0.423  14.453  1.00  0.00    -0.343 N 
ATOM     18  H42 UNL     1      19.822  -0.000  14.762  1.00  0.00     0.176 HD
ATOM     19  H41 UNL     1      18.310  -0.809  15.150  1.00  0.00     0.176 HD
ENDBRANCH  15  17
ENDBRANCH   1  13
BRANCH   1  20
HETATM   20  C7  UNL     1      20.736  -0.589   9.942  1.00  0.00     0.132 A 
HETATM   21  N5  UNL     1      21.463  -1.718  10.035  1.00  0.00    -0.322 N 
HETATM   22  C8  UNL     1      22.574  -1.568   9.313  1.00  0.00     0.215 A 
ATOM     23  H5  UNL     1      21.206  -2.549  10.568  1.00  0.00     0.169 HD
HETATM   24  C9  UNL     1      23.617  -2.444   9.104  1.00  0.00     0.295 A 
HETATM   25  N9  UNL     1      22.552  -0.342   8.761  1.00  0.00    -0.170 N 
HETATM   26  O3  UNL     1      23.621  -3.592   9.631  1.00  0.00    -0.264 OA
HETATM   27  N6  UNL     1      24.639  -2.026   8.310  1.00  0.00    -0.293 N 
HETATM   28  C10 UNL     1      24.619  -0.800   7.757  1.00  0.00     0.211 A 
ATOM     29  H6  UNL     1      25.428  -2.648   8.132  1.00  0.00     0.172 HD
HETATM   30  N7  UNL     1      25.687  -0.352   6.923  1.00  0.00    -0.062 NA
HETATM   31  N8  UNL     1      23.564   0.008   8.005  1.00  0.00    -0.250 N 
ATOM     32  H8  UNL     1      23.555   0.936   7.582  1.00  0.00     0.192 HD
HETATM   33  N10 UNL     1      21.414   0.239   9.161  1.00  0.00    -0.263 N 
ATOM     34  H10 UNL     1      21.114   1.179   8.904  1.00  0.00     0.190 HD
ENDBRANCH   1  20
TORSDOF 6
ENDMDL
MODEL 4
REMARK VINA RESULT: -8.223410459      2.237      6.179
REMARK  6 active torsions:
REMARK  status: ('A' for Active; 'I' for Inactive)
REMARK    1  A    between atoms: C2_2  and  N1_4 
REMARK    2  A    between atoms: C2_2  and  C4_8 
REMARK       I    between atoms: C4_8  and  N2_10 
REMARK    3  A    between atoms: N2_10  and  C5_12 
REMARK    4  A    between atoms: C5_12  and  C6_13 
REMARK    5  A    between atoms: C5_12  and  C7_20 
REMARK       I    between atoms: C6_13  and  N3_15 
REMARK    6  A    between atoms: N3_15  and  N4_17 
ROOT
HETATM    1  C5  UNL     1      19.391  -0.830  10.791  1.00  0.00     0.248 C 
ENDROOT
BRANCH   1   2
HETATM    2  N2  UNL     1      19.065   0.522  10.405  1.00  0.00    -0.339 N 
HETATM    3  C4  UNL     1      18.077   0.820   9.440  1.00  0.00     0.254 C 
HETATM    4  O1  UNL     1      17.467  -0.130   8.906  1.00  0.00    -0.271 OA
ATOM      5  H2  UNL     1      19.568   1.292  10.846  1.00  0.00     0.163 HD
BRANCH   3   6
HETATM    6  C2  UNL     1      17.758   2.208   9.058  1.00  0.00     0.196 C 
HETATM    7  C1  UNL     1      18.952   3.128   9.189  1.00  0.00     0.056 C 
HETATM    8  C3  UNL     1      17.303   2.252   7.609  1.00  0.00     0.056 C 
BRANCH   6   9
HETATM    9  N1  UNL     1      16.721   2.737   9.935  1.00  0.00    -0.062 N 
ATOM     10  H13 UNL     1      16.032   3.307   9.445  1.00  0.00     0.275 HD
ATOM     11  H12 UNL     1      16.077   2.021  10.274  1.00  0.00     0.275 HD
ATOM     12  H11 UNL     1      17.197   3.237  10.687  1.00  0.00     0.275 HD
ENDBRANCH   6   9
ENDBRANCH   3   6
ENDBRANCH   1   2
BRANCH   1  13
HETATM   13  C6  UNL     1      19.569  -0.859  12.265  1.00  0.00     0.266 C 
HETATM   14  O2  UNL     1      20.500  -1.530  12.806  1.00  0.00    -0.269 OA
HETATM   15  N3  UNL     1      18.719  -0.147  13.152  1.00  0.00    -0.275 N 
ATOM     16  H3  UNL     1      17.960   0.402  12.750  1.00  0.00     0.189 HD
BRANCH  15  17
HETATM   17  N4  UNL     1      18.860  -0.154  14.537  1.00  0.00    -0.343 N 
ATOM     18  H42 UNL     1      18.224  -0.752  15.064  1.00  0.00     0.176 HD
ATOM     19  H41 UNL     1      19.553   0.398  15.042  1.00  0.00     0.176 HD
ENDBRANCH  15  17
ENDBRANCH   1  13
BRANCH   1  20
HETATM   20  C7  UNL     1      20.732  -1.127  10.199  1.00  0.00     0.132 A 
HETATM   21  N5  UNL     1      21.368  -0.258   9.391  1.00  0.00    -0.322 N 
HETATM   22  C8  UNL     1      22.532  -0.795   9.023  1.00  0.00     0.215 A 
ATOM     23  H5  UNL     1      21.019   0.658   9.108  1.00  0.00     0.169 HD
HETATM   24  C9  UNL     1      23.521  -0.289   8.206  1.00  0.00     0.295 A 
HETATM   25  N9  UNL     1      22.634  -2.007   9.598  1.00  0.00    -0.170 N 
HETATM   26  O3  UNL     1      23.408   0.851   7.675  1.00  0.00    -0.264 OA
HETATM   27  N6  UNL     1      24.620  -1.061   7.998  1.00  0.00    -0.293 N 
HETATM   28  C10 UNL     1      24.724  -2.274   8.572  1.00  0.00     0.211 A 
ATOM     29  H6  UNL     1      25.372  -0.719   7.400  1.00  0.00     0.172 HD
HETATM   30  N7  UNL     1      25.873  -3.093   8.359  1.00  0.00    -0.062 NA
HETATM   31  N8  UNL     1      23.716  -2.708   9.361  1.00  0.00    -0.250 N 
ATOM     32  H8  UNL     1      23.802  -3.627   9.794  1.00  0.00     0.192 HD
HETATM   33  N10 UNL     1      21.518  -2.187  10.315  1.00  0.00    -0.263 N 
ATOM     34  H10 UNL     1      21.304  -3.016  10.867  1.00  0.00     0.190 HD
ENDBRANCH   1  20
TORSDOF 6
ENDMDL
MODEL 5
REMARK VINA RESULT: -8.129573770      1.095      1.131
REMARK  6 active torsions:
REMARK  status: ('A' for Active; 'I' for Inactive)
REMARK    1  A    between atoms: C2_2  and  N1_4 
REMARK    2  A    between atoms: C2_2  and  C4_8 
REMARK       I    between atoms: C4_8  and  N2_10 
REMARK    3  A    between atoms: N2_10  and  C5_12 
REMARK    4  A    between atoms: C5_12  and  C6_13 
REMARK    5  A    between atoms: C5_12  and  C7_20 
REMARK       I    between atoms: C6_13  and  N3_15 
REMARK    6  A    between atoms: N3_15  and  N4_17 
ROOT
HETATM    1  C5  UNL     1      22.919  -1.149   9.828  1.00  0.00     0.248 C 
ENDROOT
BRANCH   1   2
HETATM    2  N2  UNL     1      23.684  -1.024   8.612  1.00  0.00    -0.339 N 
HETATM    3  C4  UNL     1      24.880  -1.742   8.388  1.00  0.00     0.254 C 
HETATM    4  O1  UNL     1      25.283  -2.513   9.284  1.00  0.00    -0.271 OA
ATOM      5  H2  UNL     1      23.348  -0.393   7.884  1.00  0.00     0.163 HD
BRANCH   3   6
HETATM    6  C2  UNL     1      25.648  -1.602   7.138  1.00  0.00     0.196 C 
HETATM    7  C1  UNL     1      27.083  -2.057   7.292  1.00  0.00     0.056 C 
HETATM    8  C3  UNL     1      25.016  -2.448   6.046  1.00  0.00     0.056 C 
BRANCH   6   9
HETATM    9  N1  UNL     1      25.692  -0.200   6.738  1.00  0.00    -0.062 N 
ATOM     10  H13 UNL     1      26.481   0.020   6.130  1.00  0.00     0.275 HD
ATOM     11  H12 UNL     1      24.951   0.055   6.084  1.00  0.00     0.275 HD
ATOM     12  H11 UNL     1      25.678   0.352   7.596  1.00  0.00     0.275 HD
ENDBRANCH   6   9
ENDBRANCH   3   6
ENDBRANCH   1   2
BRANCH   1  13
HETATM   13  C6  UNL     1      22.596  -2.585  10.027  1.00  0.00     0.266 C 
HETATM   14  O2  UNL     1      22.198  -3.312   9.066  1.00  0.00    -0.269 OA
HETATM   15  N3  UNL     1      22.711  -3.226  11.288  1.00  0.00    -0.275 N 
ATOM     16  H3  UNL     1      23.029  -2.669  12.081  1.00  0.00     0.189 HD
BRANCH  15  17
HETATM   17  N4  UNL     1      22.417  -4.570  11.506  1.00  0.00    -0.343 N 
ATOM     18  H42 UNL     1      23.152  -5.245  11.295  1.00  0.00     0.176 HD
ATOM     19  H41 UNL     1      21.521  -4.907  11.859  1.00  0.00     0.176 HD
ENDBRANCH  15  17
ENDBRANCH   1  13
BRANCH   1  20
HETATM   20  C7  UNL     1      21.617  -0.454   9.582  1.00  0.00     0.132 A 
HETATM   21  N5  UNL     1      20.722  -0.905   8.683  1.00  0.00    -0.322 N 
HETATM   22  C8  UNL     1      19.669  -0.086   8.686  1.00  0.00     0.215 A 
ATOM     23  H5  UNL     1      20.830  -1.734   8.100  1.00  0.00     0.169 HD
HETATM   24  C9  UNL     1      18.510  -0.135   7.942  1.00  0.00     0.295 A 
HETATM   25  N9  UNL     1      19.897   0.886   9.587  1.00  0.00    -0.170 N 
HETATM   26  O3  UNL     1      18.313  -1.055   7.100  1.00  0.00    -0.264 OA
HETATM   27  N6  UNL     1      17.588   0.843   8.149  1.00  0.00    -0.293 N 
HETATM   28  C10 UNL     1      17.815   1.817   9.051  1.00  0.00     0.211 A 
ATOM     29  H6  UNL     1      16.718   0.839   7.618  1.00  0.00     0.172 HD
HETATM   30  N7  UNL     1      16.854   2.848   9.275  1.00  0.00    -0.062 NA
HETATM   31  N8  UNL     1      18.974   1.803   9.745  1.00  0.00    -0.250 N 
ATOM     32  H8  UNL     1      19.139   2.543  10.427  1.00  0.00     0.192 HD
HETATM   33  N10 UNL     1      21.098   0.638  10.123  1.00  0.00    -0.263 N 
ATOM     34  H10 UNL     1      21.547   1.205  10.842  1.00  0.00     0.190 HD
ENDBRANCH   1  20
TORSDOF 6
ENDMDL
