MODEL 1
REMARK VINA RESULT: -6.037299973      0.000      0.000
REMARK  7 active torsions:
REMARK  status: ('A' for Active; 'I' for Inactive)
REMARK    1  A    between atoms: C2_2  and  C4_4 
REMARK    2  A    between atoms: C4_4  and  O1_5 
REMARK    3  A    between atoms: O1_5  and  C5_6 
REMARK    4  A    between atoms: C5_6  and  O3_8 
REMARK    5  A    between atoms: O3_8  and  C6_9 
REMARK    6  A    between atoms: C6_9  and  C7_11 
REMARK    7  A    between atoms: C8_12  and  N1_13 
ROOT
HETATM    1  O3  UNL     1      -0.993  52.561  11.377  1.00  0.00    -0.210 OA
ENDROOT
BRANCH   1   2
HETATM    2  C5  UNL     1      -1.744  53.299  12.309  1.00  0.00     0.415 C 
HETATM    3  O2  UNL     1      -1.302  53.475  13.467  1.00  0.00    -0.229 OA
BRANCH   2   4
HETATM    4  O1  UNL     1      -2.960  53.834  11.975  1.00  0.00    -0.293 OA
BRANCH   4   5
HETATM    5  C4  UNL     1      -3.900  54.344  12.901  1.00  0.00     0.214 C 
BRANCH   5   6
HETATM    6  C2  UNL     1      -4.822  53.229  13.244  1.00  0.00    -0.069 C 
HETATM    7  C1  UNL     1      -5.355  53.144  14.441  1.00  0.00     0.016 C 
HETATM    8  C3  UNL     1      -5.115  52.222  12.186  1.00  0.00     0.044 C 
ENDBRANCH   5   6
ENDBRANCH   4   5
ENDBRANCH   2   4
ENDBRANCH   1   2
BRANCH   1   9
HETATM    9  C6  UNL     1      -0.870  52.952  10.053  1.00  0.00     0.349 C 
HETATM   10  O4  UNL     1      -1.844  52.730   9.282  1.00  0.00    -0.249 OA
BRANCH   9  11
HETATM   11  C7  UNL     1       0.340  53.591   9.582  1.00  0.00     0.025 C 
HETATM   12  C8  UNL     1       1.359  54.121   9.207  1.00  0.00     0.014 C 
BRANCH  12  13
HETATM   13  N1  UNL     1       2.557  54.746   8.791  1.00  0.00    -0.359 N 
ATOM     14  H12 UNL     1       2.221  54.112   9.515  1.00  0.00     0.166 HD
ATOM     15  H11 UNL     1       3.413  55.206   8.478  1.00  0.00     0.166 HD
ENDBRANCH  12  13
ENDBRANCH   9  11
ENDBRANCH   1   9
TORSDOF 7
ENDMDL
MODEL 2
REMARK VINA RESULT: -5.939940187      1.034      1.178
REMARK  7 active torsions:
REMARK  status: ('A' for Active; 'I' for Inactive)
REMARK    1  A    between atoms: C2_2  and  C4_4 
REMARK    2  A    between atoms: C4_4  and  O1_5 
REMARK    3  A    between atoms: O1_5  and  C5_6 
REMARK    4  A    between atoms: C5_6  and  O3_8 
REMARK    5  A    between atoms: O3_8  and  C6_9 
REMARK    6  A    between atoms: C6_9  and  C7_11 
REMARK    7  A    between atoms: C8_12  and  N1_13 
ROOT
HETATM    1  O3  UNL     1      -2.038  53.711  11.337  1.00  0.00    -0.210 OA
ENDROOT
BRANCH   1   2
HETATM    2  C5  UNL     1      -2.154  53.350  12.692  1.00  0.00     0.415 C 
HETATM    3  O2  UNL     1      -1.128  53.266  13.404  1.00  0.00    -0.229 OA
BRANCH   2   4
HETATM    4  O1  UNL     1      -3.375  53.085  13.253  1.00  0.00    -0.293 OA
BRANCH   4   5
HETATM    5  C4  UNL     1      -4.120  51.902  13.044  1.00  0.00     0.214 C 
BRANCH   5   6
HETATM    6  C2  UNL     1      -5.556  52.289  13.029  1.00  0.00    -0.069 C 
HETATM    7  C1  UNL     1      -6.040  53.101  13.940  1.00  0.00     0.016 C 
HETATM    8  C3  UNL     1      -6.414  51.723  11.951  1.00  0.00     0.044 C 
ENDBRANCH   5   6
ENDBRANCH   4   5
ENDBRANCH   2   4
ENDBRANCH   1   2
BRANCH   1   9
HETATM    9  C6  UNL     1      -1.291  52.969  10.436  1.00  0.00     0.349 C 
HETATM   10  O4  UNL     1      -1.711  51.817  10.134  1.00  0.00    -0.249 OA
BRANCH   9  11
HETATM   11  C7  UNL     1      -0.074  53.505   9.869  1.00  0.00     0.025 C 
HETATM   12  C8  UNL     1       0.953  53.953   9.414  1.00  0.00     0.014 C 
BRANCH  12  13
HETATM   13  N1  UNL     1       2.159  54.486   8.902  1.00  0.00    -0.359 N 
ATOM     14  H12 UNL     1       1.373  54.762   9.491  1.00  0.00     0.166 HD
ATOM     15  H11 UNL     1       3.031  54.856   8.524  1.00  0.00     0.166 HD
ENDBRANCH  12  13
ENDBRANCH   9  11
ENDBRANCH   1   9
TORSDOF 7
ENDMDL
MODEL 3
REMARK VINA RESULT: -5.852363467      1.477      2.435
REMARK  7 active torsions:
REMARK  status: ('A' for Active; 'I' for Inactive)
REMARK    1  A    between atoms: C2_2  and  C4_4 
REMARK    2  A    between atoms: C4_4  and  O1_5 
REMARK    3  A    between atoms: O1_5  and  C5_6 
REMARK    4  A    between atoms: C5_6  and  O3_8 
REMARK    5  A    between atoms: O3_8  and  C6_9 
REMARK    6  A    between atoms: C6_9  and  C7_11 
REMARK    7  A    between atoms: C8_12  and  N1_13 
ROOT
HETATM    1  O3  UNL     1      -3.073  53.792  11.984  1.00  0.00    -0.210 OA
ENDROOT
BRANCH   1   2
HETATM    2  C5  UNL     1      -3.762  54.259  13.119  1.00  0.00     0.415 C 
HETATM    3  O2  UNL     1      -3.947  55.487  13.275  1.00  0.00    -0.229 OA
BRANCH   2   4
HETATM    4  O1  UNL     1      -4.237  53.391  14.067  1.00  0.00    -0.293 OA
BRANCH   4   5
HETATM    5  C4  UNL     1      -5.602  53.224  14.397  1.00  0.00     0.214 C 
BRANCH   5   6
HETATM    6  C2  UNL     1      -6.298  52.779  13.160  1.00  0.00    -0.069 C 
HETATM    7  C1  UNL     1      -7.377  53.397  12.739  1.00  0.00     0.016 C 
HETATM    8  C3  UNL     1      -5.728  51.615  12.426  1.00  0.00     0.044 C 
ENDBRANCH   5   6
ENDBRANCH   4   5
ENDBRANCH   2   4
ENDBRANCH   1   2
BRANCH   1   9
HETATM    9  C6  UNL     1      -1.749  53.388  12.039  1.00  0.00     0.349 C 
HETATM   10  O4  UNL     1      -1.314  52.947  13.139  1.00  0.00    -0.249 OA
BRANCH   9  11
HETATM   11  C7  UNL     1      -0.903  53.475  10.869  1.00  0.00     0.025 C 
HETATM   12  C8  UNL     1      -0.193  53.568   9.895  1.00  0.00     0.014 C 
BRANCH  12  13
HETATM   13  N1  UNL     1       0.630  53.699   8.752  1.00  0.00    -0.359 N 
ATOM     14  H12 UNL     1      -0.353  53.770   9.016  1.00  0.00     0.166 HD
ATOM     15  H11 UNL     1       1.238  53.790   7.937  1.00  0.00     0.166 HD
ENDBRANCH  12  13
ENDBRANCH   9  11
ENDBRANCH   1   9
TORSDOF 7
ENDMDL
MODEL 4
REMARK VINA RESULT: -5.784882971      3.097      3.782
REMARK  7 active torsions:
REMARK  status: ('A' for Active; 'I' for Inactive)
REMARK    1  A    between atoms: C2_2  and  C4_4 
REMARK    2  A    between atoms: C4_4  and  O1_5 
REMARK    3  A    between atoms: O1_5  and  C5_6 
REMARK    4  A    between atoms: C5_6  and  O3_8 
REMARK    5  A    between atoms: O3_8  and  C6_9 
REMARK    6  A    between atoms: C6_9  and  C7_11 
REMARK    7  A    between atoms: C8_12  and  N1_13 
ROOT
HETATM    1  O3  UNL     1      -2.992  53.920  11.896  1.00  0.00    -0.210 OA
ENDROOT
BRANCH   1   2
HETATM    2  C5  UNL     1      -3.695  54.308  13.052  1.00  0.00     0.415 C 
HETATM    3  O2  UNL     1      -3.924  55.521  13.264  1.00  0.00    -0.229 OA
BRANCH   2   4
HETATM    4  O1  UNL     1      -4.136  53.381  13.958  1.00  0.00    -0.293 OA
BRANCH   4   5
HETATM    5  C4  UNL     1      -5.473  53.258  14.401  1.00  0.00     0.214 C 
BRANCH   5   6
HETATM    6  C2  UNL     1      -6.285  52.840  13.227  1.00  0.00    -0.069 C 
HETATM    7  C1  UNL     1      -7.387  53.479  12.913  1.00  0.00     0.016 C 
HETATM    8  C3  UNL     1      -5.801  51.679  12.429  1.00  0.00     0.044 C 
ENDBRANCH   5   6
ENDBRANCH   4   5
ENDBRANCH   2   4
ENDBRANCH   1   2
BRANCH   1   9
HETATM    9  C6  UNL     1      -1.917  53.047  11.945  1.00  0.00     0.349 C 
HETATM   10  O4  UNL     1      -0.781  53.497  11.628  1.00  0.00    -0.249 OA
BRANCH   9  11
HETATM   11  C7  UNL     1      -2.103  51.670  12.345  1.00  0.00     0.025 C 
HETATM   12  C8  UNL     1      -2.277  50.519  12.672  1.00  0.00     0.014 C 
BRANCH  12  13
HETATM   13  N1  UNL     1      -2.505  49.177  13.056  1.00  0.00    -0.359 N 
ATOM     14  H12 UNL     1      -2.359  50.095  13.478  1.00  0.00     0.166 HD
ATOM     15  H11 UNL     1      -2.669  48.205  13.318  1.00  0.00     0.166 HD
ENDBRANCH  12  13
ENDBRANCH   9  11
ENDBRANCH   1   9
TORSDOF 7
ENDMDL
MODEL 5
REMARK VINA RESULT: -5.780258923      3.023      5.600
REMARK  7 active torsions:
REMARK  status: ('A' for Active; 'I' for Inactive)
REMARK    1  A    between atoms: C2_2  and  C4_4 
REMARK    2  A    between atoms: C4_4  and  O1_5 
REMARK    3  A    between atoms: O1_5  and  C5_6 
REMARK    4  A    between atoms: C5_6  and  O3_8 
REMARK    5  A    between atoms: O3_8  and  C6_9 
REMARK    6  A    between atoms: C6_9  and  C7_11 
REMARK    7  A    between atoms: C8_12  and  N1_13 
ROOT
HETATM    1  O3  UNL     1      -3.333  54.162  13.362  1.00  0.00    -0.210 OA
ENDROOT
BRANCH   1   2
HETATM    2  C5  UNL     1      -2.183  53.645  12.736  1.00  0.00     0.415 C 
HETATM    3  O2  UNL     1      -1.241  53.201  13.430  1.00  0.00    -0.229 OA
BRANCH   2   4
HETATM    4  O1  UNL     1      -2.072  53.617  11.371  1.00  0.00    -0.293 OA
BRANCH   4   5
HETATM    5  C4  UNL     1      -1.828  52.454  10.604  1.00  0.00     0.214 C 
BRANCH   5   6
HETATM    6  C2  UNL     1      -0.432  52.550  10.100  1.00  0.00    -0.069 C 
HETATM    7  C1  UNL     1       0.019  53.671   9.586  1.00  0.00     0.016 C 
HETATM    8  C3  UNL     1       0.425  51.336  10.199  1.00  0.00     0.044 C 
ENDBRANCH   5   6
ENDBRANCH   4   5
ENDBRANCH   2   4
ENDBRANCH   1   2
BRANCH   1   9
HETATM    9  C6  UNL     1      -4.375  53.349  13.779  1.00  0.00     0.349 C 
HETATM   10  O4  UNL     1      -4.846  53.543  14.934  1.00  0.00    -0.249 OA
BRANCH   9  11
HETATM   11  C7  UNL     1      -4.896  52.316  12.911  1.00  0.00     0.025 C 
HETATM   12  C8  UNL     1      -5.313  51.446  12.181  1.00  0.00     0.014 C 
BRANCH  12  13
HETATM   13  N1  UNL     1      -5.780  50.431  11.315  1.00  0.00    -0.359 N 
ATOM     14  H12 UNL     1      -4.901  50.831  11.644  1.00  0.00     0.166 HD
ATOM     15  H11 UNL     1      -6.133  49.703  10.694  1.00  0.00     0.166 HD
ENDBRANCH  12  13
ENDBRANCH   9  11
ENDBRANCH   1   9
TORSDOF 7
ENDMDL
