MODEL 1
REMARK VINA RESULT: -5.265394862      0.000      0.000
REMARK  5 active torsions:
REMARK  status: ('A' for Active; 'I' for Inactive)
REMARK    1  A    between atoms: C2_2  and  O1_3 
REMARK    2  A    between atoms: C5_7  and  C6_8 
REMARK    3  A    between atoms: C5_7  and  C7_13 
REMARK    4  A    between atoms: C6_8  and  N1_9 
REMARK    5  A    between atoms: C7_13  and  N2_14 
ROOT
HETATM    1  C1  UNL     1      26.228  42.172  96.372  1.00  0.00     0.052 C 
HETATM    2  C2  UNL     1      25.516  41.659  95.117  1.00  0.00     0.119 C 
HETATM    3  C3  UNL     1      24.305  40.931  95.550  1.00  0.00     0.044 C 
HETATM    4  C4  UNL     1      23.066  41.130  94.741  1.00  0.00     0.016 C 
HETATM    5  C5  UNL     1      22.591  42.510  94.580  1.00  0.00     0.013 C 
HETATM    6  C11 UNL     1      23.836  43.432  94.713  1.00  0.00     0.095 C 
HETATM    7  C12 UNL     1      25.098  42.811  94.243  1.00  0.00     0.274 C 
HETATM    8  F1  UNL     1      25.191  42.535  92.914  1.00  0.00    -0.203 F 
HETATM    9  F2  UNL     1      26.085  43.794  94.469  1.00  0.00    -0.203 F 
ENDROOT
BRANCH   5  10
HETATM   10  C6  UNL     1      21.635  42.848  95.710  1.00  0.00     0.241 C 
BRANCH  10  11
HETATM   11  N1  UNL     1      20.866  41.730  96.200  1.00  0.00    -0.079 N 
ATOM     12  H13 UNL     1      19.946  42.041  96.510  1.00  0.00     0.274 HD
ATOM     13  H12 UNL     1      20.594  41.121  95.428  1.00  0.00     0.274 HD
ATOM     14  H11 UNL     1      21.324  41.190  96.934  1.00  0.00     0.274 HD
ENDBRANCH  10  11
ENDBRANCH   5  10
BRANCH   5  15
HETATM   15  C7  UNL     1      21.986  42.910  93.296  1.00  0.00     0.247 C 
BRANCH  15  16
HETATM   16  N2  UNL     1      21.285  42.112  92.426  1.00  0.00    -0.078 N 
HETATM   17  C8  UNL     1      20.037  42.841  92.066  1.00  0.00     0.271 C 
HETATM   18  C9  UNL     1      20.852  40.803  92.722  1.00  0.00     0.271 C 
HETATM   19  C10 UNL     1      21.957  42.029  91.096  1.00  0.00     0.271 C 
ENDBRANCH  15  16
ENDBRANCH   5  15
BRANCH   2  20
HETATM   20  O1  UNL     1      26.452  40.863  94.449  1.00  0.00    -0.384 OA
ATOM     21  H1  UNL     1      26.493  41.203  93.563  1.00  0.00     0.210 HD
ENDBRANCH   2  20
TORSDOF 5
ENDMDL
MODEL 2
REMARK VINA RESULT: -4.779523949      2.943      5.496
REMARK  5 active torsions:
REMARK  status: ('A' for Active; 'I' for Inactive)
REMARK    1  A    between atoms: C2_2  and  O1_3 
REMARK    2  A    between atoms: C5_7  and  C6_8 
REMARK    3  A    between atoms: C5_7  and  C7_13 
REMARK    4  A    between atoms: C6_8  and  N1_9 
REMARK    5  A    between atoms: C7_13  and  N2_14 
ROOT
HETATM    1  C1  UNL     1      21.930  42.164  93.792  1.00  0.00     0.052 C 
HETATM    2  C2  UNL     1      22.775  42.343  95.056  1.00  0.00     0.119 C 
HETATM    3  C3  UNL     1      23.507  41.081  95.294  1.00  0.00     0.044 C 
HETATM    4  C4  UNL     1      24.923  41.192  95.752  1.00  0.00     0.016 C 
HETATM    5  C5  UNL     1      25.840  41.958  94.897  1.00  0.00     0.013 C 
HETATM    6  C11 UNL     1      24.974  42.991  94.122  1.00  0.00     0.095 C 
HETATM    7  C12 UNL     1      23.776  43.451  94.866  1.00  0.00     0.274 C 
HETATM    8  F1  UNL     1      23.993  44.176  95.996  1.00  0.00    -0.203 F 
HETATM    9  F2  UNL     1      23.135  44.351  93.987  1.00  0.00    -0.203 F 
ENDROOT
BRANCH   5  10
HETATM   10  C6  UNL     1      26.479  41.027  93.883  1.00  0.00     0.241 C 
BRANCH  10  11
HETATM   11  N1  UNL     1      26.519  41.542  92.537  1.00  0.00    -0.079 N 
ATOM     12  H13 UNL     1      27.230  42.269  92.456  1.00  0.00     0.274 HD
ATOM     13  H12 UNL     1      26.908  40.845  91.901  1.00  0.00     0.274 HD
ATOM     14  H11 UNL     1      25.623  41.882  92.185  1.00  0.00     0.274 HD
ENDBRANCH  10  11
ENDBRANCH   5  10
BRANCH   5  15
HETATM   15  C7  UNL     1      26.889  42.777  95.533  1.00  0.00     0.247 C 
BRANCH  15  16
HETATM   16  N2  UNL     1      27.942  42.331  96.293  1.00  0.00    -0.078 N 
HETATM   17  C8  UNL     1      28.945  43.432  96.348  1.00  0.00     0.271 C 
HETATM   18  C9  UNL     1      28.703  41.181  96.000  1.00  0.00     0.271 C 
HETATM   19  C10 UNL     1      27.569  42.218  97.734  1.00  0.00     0.271 C 
ENDBRANCH  15  16
ENDBRANCH   5  15
BRANCH   2  20
HETATM   20  O1  UNL     1      21.873  42.679  96.070  1.00  0.00    -0.384 OA
ATOM     21  H1  UNL     1      22.114  42.144  96.817  1.00  0.00     0.210 HD
ENDBRANCH   2  20
TORSDOF 5
ENDMDL
MODEL 3
REMARK VINA RESULT: -4.688406409      3.235      5.610
REMARK  5 active torsions:
REMARK  status: ('A' for Active; 'I' for Inactive)
REMARK    1  A    between atoms: C2_2  and  O1_3 
REMARK    2  A    between atoms: C5_7  and  C6_8 
REMARK    3  A    between atoms: C5_7  and  C7_13 
REMARK    4  A    between atoms: C6_8  and  N1_9 
REMARK    5  A    between atoms: C7_13  and  N2_14 
ROOT
HETATM    1  C1  UNL     1      19.426  40.520  89.405  1.00  0.00     0.052 C 
HETATM    2  C2  UNL     1      20.449  40.290  90.521  1.00  0.00     0.119 C 
HETATM    3  C3  UNL     1      21.659  41.074  90.195  1.00  0.00     0.044 C 
HETATM    4  C4  UNL     1      22.340  41.774  91.324  1.00  0.00     0.016 C 
HETATM    5  C5  UNL     1      21.531  42.715  92.109  1.00  0.00     0.013 C 
HETATM    6  C11 UNL     1      20.054  42.239  91.996  1.00  0.00     0.095 C 
HETATM    7  C12 UNL     1      19.905  40.771  91.839  1.00  0.00     0.274 C 
HETATM    8  F1  UNL     1      20.287  39.998  92.891  1.00  0.00    -0.203 F 
HETATM    9  F2  UNL     1      18.512  40.564  91.737  1.00  0.00    -0.203 F 
ENDROOT
BRANCH   5  10
HETATM   10  C6  UNL     1      21.626  44.098  91.492  1.00  0.00     0.241 C 
BRANCH  10  11
HETATM   11  N1  UNL     1      20.536  44.439  90.611  1.00  0.00    -0.079 N 
ATOM     12  H13 UNL     1      20.093  43.593  90.252  1.00  0.00     0.274 HD
ATOM     13  H12 UNL     1      19.759  44.831  91.143  1.00  0.00     0.274 HD
ATOM     14  H11 UNL     1      20.790  45.060  89.843  1.00  0.00     0.274 HD
ENDBRANCH  10  11
ENDBRANCH   5  10
BRANCH   5  15
HETATM   15  C7  UNL     1      21.764  42.813  93.562  1.00  0.00     0.247 C 
BRANCH  15  16
HETATM   16  N2  UNL     1      22.895  42.442  94.247  1.00  0.00    -0.078 N 
HETATM   17  C8  UNL     1      22.895  43.189  95.537  1.00  0.00     0.271 C 
HETATM   18  C9  UNL     1      24.207  42.594  93.755  1.00  0.00     0.271 C 
HETATM   19  C10 UNL     1      22.802  41.035  94.737  1.00  0.00     0.271 C 
ENDBRANCH  15  16
ENDBRANCH   5  15
BRANCH   2  20
HETATM   20  O1  UNL     1      20.659  38.908  90.564  1.00  0.00    -0.384 OA
ATOM     21  H1  UNL     1      20.643  38.674  91.484  1.00  0.00     0.210 HD
ENDBRANCH   2  20
TORSDOF 5
ENDMDL
MODEL 4
REMARK VINA RESULT: -4.675268721      3.089      5.541
REMARK  5 active torsions:
REMARK  status: ('A' for Active; 'I' for Inactive)
REMARK    1  A    between atoms: C2_2  and  O1_3 
REMARK    2  A    between atoms: C5_7  and  C6_8 
REMARK    3  A    between atoms: C5_7  and  C7_13 
REMARK    4  A    between atoms: C6_8  and  N1_9 
REMARK    5  A    between atoms: C7_13  and  N2_14 
ROOT
HETATM    1  C1  UNL     1      19.283  42.586  89.150  1.00  0.00     0.052 C 
HETATM    2  C2  UNL     1      19.866  43.354  90.339  1.00  0.00     0.119 C 
HETATM    3  C3  UNL     1      19.242  42.826  91.570  1.00  0.00     0.044 C 
HETATM    4  C4  UNL     1      20.127  42.650  92.760  1.00  0.00     0.016 C 
HETATM    5  C5  UNL     1      21.310  41.797  92.588  1.00  0.00     0.013 C 
HETATM    6  C11 UNL     1      21.690  41.854  91.082  1.00  0.00     0.095 C 
HETATM    7  C12 UNL     1      21.354  43.140  90.424  1.00  0.00     0.274 C 
HETATM    8  F1  UNL     1      22.030  44.242  90.845  1.00  0.00    -0.203 F 
HETATM    9  F2  UNL     1      21.757  42.971  89.082  1.00  0.00    -0.203 F 
ENDROOT
BRANCH   5  10
HETATM   10  C6  UNL     1      20.950  40.363  92.927  1.00  0.00     0.241 C 
BRANCH  10  11
HETATM   11  N1  UNL     1      20.904  39.471  91.794  1.00  0.00    -0.079 N 
ATOM     12  H13 UNL     1      21.505  39.818  91.046  1.00  0.00     0.274 HD
ATOM     13  H12 UNL     1      21.382  38.597  92.011  1.00  0.00     0.274 HD
ATOM     14  H11 UNL     1      19.967  39.285  91.439  1.00  0.00     0.274 HD
ENDBRANCH  10  11
ENDBRANCH   5  10
BRANCH   5  15
HETATM   15  C7  UNL     1      22.558  42.163  93.285  1.00  0.00     0.247 C 
BRANCH  15  16
HETATM   16  N2  UNL     1      22.728  42.357  94.634  1.00  0.00    -0.078 N 
HETATM   17  C8  UNL     1      23.711  41.342  95.106  1.00  0.00     0.271 C 
HETATM   18  C9  UNL     1      21.686  42.301  95.582  1.00  0.00     0.271 C 
HETATM   19  C10 UNL     1      23.470  43.621  94.916  1.00  0.00     0.271 C 
ENDBRANCH  15  16
ENDBRANCH   5  15
BRANCH   2  20
HETATM   20  O1  UNL     1      19.589  44.703  90.092  1.00  0.00    -0.384 OA
ATOM     21  H1  UNL     1      19.255  45.051  90.911  1.00  0.00     0.210 HD
ENDBRANCH   2  20
TORSDOF 5
ENDMDL
MODEL 5
REMARK VINA RESULT: -4.663279079      2.587      3.477
REMARK  5 active torsions:
REMARK  status: ('A' for Active; 'I' for Inactive)
REMARK    1  A    between atoms: C2_2  and  O1_3 
REMARK    2  A    between atoms: C5_7  and  C6_8 
REMARK    3  A    between atoms: C5_7  and  C7_13 
REMARK    4  A    between atoms: C6_8  and  N1_9 
REMARK    5  A    between atoms: C7_13  and  N2_14 
ROOT
HETATM    1  C1  UNL     1      21.893  42.033  95.736  1.00  0.00     0.052 C 
HETATM    2  C2  UNL     1      22.404  41.632  94.350  1.00  0.00     0.119 C 
HETATM    3  C3  UNL     1      21.313  40.917  93.655  1.00  0.00     0.044 C 
HETATM    4  C4  UNL     1      21.123  41.213  92.204  1.00  0.00     0.016 C 
HETATM    5  C5  UNL     1      20.896  42.617  91.835  1.00  0.00     0.013 C 
HETATM    6  C11 UNL     1      21.572  43.484  92.934  1.00  0.00     0.095 C 
HETATM    7  C12 UNL     1      22.766  42.854  93.549  1.00  0.00     0.274 C 
HETATM    8  F1  UNL     1      23.846  42.667  92.746  1.00  0.00    -0.203 F 
HETATM    9  F2  UNL     1      23.202  43.786  94.516  1.00  0.00    -0.203 F 
ENDROOT
BRANCH   5  10
HETATM   10  C6  UNL     1      19.407  42.908  91.857  1.00  0.00     0.241 C 
BRANCH  10  11
HETATM   11  N1  UNL     1      18.971  43.880  90.884  1.00  0.00    -0.079 N 
ATOM     12  H13 UNL     1      19.586  44.693  90.895  1.00  0.00     0.274 HD
ATOM     13  H12 UNL     1      19.147  43.539  89.939  1.00  0.00     0.274 HD
ATOM     14  H11 UNL     1      17.998  44.170  90.981  1.00  0.00     0.274 HD
ENDBRANCH  10  11
ENDBRANCH   5  10
BRANCH   5  15
HETATM   15  C7  UNL     1      21.472  43.123  90.575  1.00  0.00     0.247 C 
BRANCH  15  16
HETATM   16  N2  UNL     1      21.654  42.425  89.407  1.00  0.00    -0.078 N 
HETATM   17  C8  UNL     1      21.767  43.424  88.308  1.00  0.00     0.271 C 
HETATM   18  C9  UNL     1      20.755  41.459  88.911  1.00  0.00     0.271 C 
HETATM   19  C10 UNL     1      23.005  41.792  89.353  1.00  0.00     0.271 C 
ENDBRANCH  15  16
ENDBRANCH   5  15
BRANCH   2  20
HETATM   20  O1  UNL     1      23.542  40.852  94.577  1.00  0.00    -0.384 OA
ATOM     21  H1  UNL     1      24.026  41.297  95.263  1.00  0.00     0.210 HD
ENDBRANCH   2  20
TORSDOF 5
ENDMDL
