MODEL 1
REMARK VINA RESULT: -7.532440028      0.000      0.000
REMARK  3 active torsions:
REMARK  status: ('A' for Active; 'I' for Inactive)
REMARK    1  A    between atoms: C6_9  and  O4_10 
REMARK    2  A    between atoms: C7_12  and  C8_13 
REMARK    3  A    between atoms: C12_17  and  N1_18 
ROOT
HETATM    1  C1  UNL     1      -0.139  53.310   9.771  1.00  0.00     0.078 C 
HETATM    2  C2  UNL     1      -0.776  52.090  10.377  1.00  0.00     0.165 C 
HETATM    3  C3  UNL     1       0.232  50.986  10.388  1.00  0.00     0.078 C 
HETATM    4  O1  UNL     1      -1.829  51.725   9.478  1.00  0.00    -0.303 OA
HETATM    5  C4  UNL     1      -2.878  51.681  10.271  1.00  0.00     0.418 C 
HETATM    6  O2  UNL     1      -2.393  50.708  11.200  1.00  0.00    -0.305 OA
HETATM    7  C5  UNL     1      -2.076  51.546  12.272  1.00  0.00     0.300 C 
HETATM    8  O3  UNL     1      -1.214  52.447  11.655  1.00  0.00    -0.323 OA
HETATM    9  C6  UNL     1      -3.489  52.070  12.546  1.00  0.00     0.207 C 
HETATM   10  C7  UNL     1      -4.523  51.435  11.627  1.00  0.00     0.193 C 
HETATM   11  O7  UNL     1      -4.141  51.412  10.251  1.00  0.00    -0.326 OA
ENDROOT
BRANCH  10  12
HETATM   12  C8  UNL     1      -5.857  51.940  11.827  1.00  0.00    -0.024 A 
HETATM   13  C9  UNL     1      -6.978  51.239  11.433  1.00  0.00     0.010 A 
HETATM   14  C10 UNL     1      -8.240  51.758  11.642  1.00  0.00     0.003 A 
HETATM   15  C11 UNL     1      -8.402  52.981  12.245  1.00  0.00     0.036 A 
HETATM   16  C12 UNL     1      -7.293  53.722  12.658  1.00  0.00     0.103 A 
HETATM   17  C13 UNL     1      -6.061  53.166  12.430  1.00  0.00     0.045 A 
BRANCH  16  18
HETATM   18  N1  UNL     1      -7.446  54.979  13.278  1.00  0.00    -0.116 N 
HETATM   19  O5  UNL     1      -6.491  55.518  13.845  1.00  0.00    -0.532 OA
HETATM   20  O6  UNL     1      -8.658  55.608  13.253  1.00  0.00    -0.532 OA
ENDBRANCH  16  18
ENDBRANCH  10  12
BRANCH   9  21
HETATM   21  O4  UNL     1      -3.828  51.661  13.833  1.00  0.00    -0.388 OA
ATOM     22  H4  UNL     1      -3.990  52.449  14.339  1.00  0.00     0.210 HD
ENDBRANCH   9  21
TORSDOF 3
ENDMDL
MODEL 2
REMARK VINA RESULT: -7.096202473      2.162      3.107
REMARK  3 active torsions:
REMARK  status: ('A' for Active; 'I' for Inactive)
REMARK    1  A    between atoms: C6_9  and  O4_10 
REMARK    2  A    between atoms: C7_12  and  C8_13 
REMARK    3  A    between atoms: C12_17  and  N1_18 
ROOT
HETATM    1  C1  UNL     1      -2.484  46.303  10.723  1.00  0.00     0.078 C 
HETATM    2  C2  UNL     1      -1.956  47.689  10.970  1.00  0.00     0.165 C 
HETATM    3  C3  UNL     1      -0.462  47.641  10.931  1.00  0.00     0.078 C 
HETATM    4  O1  UNL     1      -2.357  48.016  12.305  1.00  0.00    -0.303 OA
HETATM    5  C4  UNL     1      -2.995  49.155  12.140  1.00  0.00     0.418 C 
HETATM    6  O2  UNL     1      -1.934  49.898  11.535  1.00  0.00    -0.305 OA
HETATM    7  C5  UNL     1      -2.367  49.886  10.207  1.00  0.00     0.300 C 
HETATM    8  O3  UNL     1      -2.505  48.519   9.990  1.00  0.00    -0.323 OA
HETATM    9  C6  UNL     1      -3.675  50.655  10.411  1.00  0.00     0.207 C 
HETATM   10  C7  UNL     1      -3.859  51.099  11.856  1.00  0.00     0.193 C 
HETATM   11  O7  UNL     1      -3.602  50.074  12.816  1.00  0.00    -0.326 OA
ENDROOT
BRANCH  10  12
HETATM   12  C8  UNL     1      -5.102  51.786  12.093  1.00  0.00    -0.024 A 
HETATM   13  C9  UNL     1      -6.320  51.261  11.710  1.00  0.00     0.010 A 
HETATM   14  C10 UNL     1      -7.489  51.951  11.955  1.00  0.00     0.003 A 
HETATM   15  C11 UNL     1      -7.462  53.172  12.585  1.00  0.00     0.036 A 
HETATM   16  C12 UNL     1      -6.252  53.737  12.988  1.00  0.00     0.103 A 
HETATM   17  C13 UNL     1      -5.116  53.015  12.724  1.00  0.00     0.045 A 
BRANCH  16  18
HETATM   18  N1  UNL     1      -6.210  54.989  13.634  1.00  0.00    -0.116 N 
HETATM   19  O5  UNL     1      -7.246  55.511  14.056  1.00  0.00    -0.532 OA
HETATM   20  O6  UNL     1      -5.017  55.632  13.797  1.00  0.00    -0.532 OA
ENDBRANCH  16  18
ENDBRANCH  10  12
BRANCH   9  21
HETATM   21  O4  UNL     1      -3.574  51.828   9.668  1.00  0.00    -0.388 OA
ATOM     22  H4  UNL     1      -4.460  52.086   9.439  1.00  0.00     0.210 HD
ENDBRANCH   9  21
TORSDOF 3
ENDMDL
MODEL 3
REMARK VINA RESULT: -7.091025205      2.723      3.627
REMARK  3 active torsions:
REMARK  status: ('A' for Active; 'I' for Inactive)
REMARK    1  A    between atoms: C6_9  and  O4_10 
REMARK    2  A    between atoms: C7_12  and  C8_13 
REMARK    3  A    between atoms: C12_17  and  N1_18 
ROOT
HETATM    1  C1  UNL     1      -1.303  45.880   8.941  1.00  0.00     0.078 C 
HETATM    2  C2  UNL     1      -0.911  46.931   9.943  1.00  0.00     0.165 C 
HETATM    3  C3  UNL     1       0.518  46.712  10.325  1.00  0.00     0.078 C 
HETATM    4  O1  UNL     1      -1.724  46.680  11.095  1.00  0.00    -0.303 OA
HETATM    5  C4  UNL     1      -2.299  47.846  11.297  1.00  0.00     0.418 C 
HETATM    6  O2  UNL     1      -1.117  48.635  11.444  1.00  0.00    -0.305 OA
HETATM    7  C5  UNL     1      -1.103  49.271  10.199  1.00  0.00     0.300 C 
HETATM    8  O3  UNL     1      -1.136  48.173   9.345  1.00  0.00    -0.323 OA
HETATM    9  C6  UNL     1      -2.424  50.031  10.344  1.00  0.00     0.207 C 
HETATM   10  C7  UNL     1      -3.068  49.808  11.704  1.00  0.00     0.193 C 
HETATM   11  O7  UNL     1      -3.109  48.439  12.109  1.00  0.00    -0.326 OA
ENDROOT
BRANCH  10  12
HETATM   12  C8  UNL     1      -4.336  50.472  11.857  1.00  0.00    -0.024 A 
HETATM   13  C9  UNL     1      -5.461  50.086  11.157  1.00  0.00     0.010 A 
HETATM   14  C10 UNL     1      -6.659  50.750  11.331  1.00  0.00     0.003 A 
HETATM   15  C11 UNL     1      -6.752  51.807  12.204  1.00  0.00     0.036 A 
HETATM   16  C12 UNL     1      -5.637  52.229  12.931  1.00  0.00     0.103 A 
HETATM   17  C13 UNL     1      -4.470  51.539  12.725  1.00  0.00     0.045 A 
BRANCH  16  18
HETATM   18  N1  UNL     1      -5.720  53.312  13.829  1.00  0.00    -0.116 N 
HETATM   19  O5  UNL     1      -4.917  53.415  14.761  1.00  0.00    -0.532 OA
HETATM   20  O6  UNL     1      -6.694  54.256  13.670  1.00  0.00    -0.532 OA
ENDBRANCH  16  18
ENDBRANCH  10  12
BRANCH   9  21
HETATM   21  O4  UNL     1      -2.116  51.388  10.292  1.00  0.00    -0.388 OA
ATOM     22  H4  UNL     1      -1.191  51.469  10.494  1.00  0.00     0.210 HD
ENDBRANCH   9  21
TORSDOF 3
ENDMDL
MODEL 4
REMARK VINA RESULT: -6.973946632      4.426      6.533
REMARK  3 active torsions:
REMARK  status: ('A' for Active; 'I' for Inactive)
REMARK    1  A    between atoms: C6_9  and  O4_10 
REMARK    2  A    between atoms: C7_12  and  C8_13 
REMARK    3  A    between atoms: C12_17  and  N1_18 
ROOT
HETATM    1  C1  UNL     1      -8.406  54.595   4.652  1.00  0.00     0.078 C 
HETATM    2  C2  UNL     1      -8.557  55.492   5.849  1.00  0.00     0.165 C 
HETATM    3  C3  UNL     1      -9.014  56.836   5.379  1.00  0.00     0.078 C 
HETATM    4  O1  UNL     1      -7.238  55.633   6.388  1.00  0.00    -0.303 OA
HETATM    5  C4  UNL     1      -7.403  55.272   7.643  1.00  0.00     0.418 C 
HETATM    6  O2  UNL     1      -8.402  56.228   8.002  1.00  0.00    -0.305 OA
HETATM    7  C5  UNL     1      -9.530  55.402   8.000  1.00  0.00     0.300 C 
HETATM    8  O3  UNL     1      -9.465  54.876   6.714  1.00  0.00    -0.323 OA
HETATM    9  C6  UNL     1      -9.091  54.456   9.121  1.00  0.00     0.207 C 
HETATM   10  C7  UNL     1      -7.751  54.859   9.720  1.00  0.00     0.193 C 
HETATM   11  O7  UNL     1      -6.747  55.154   8.749  1.00  0.00    -0.326 OA
ENDROOT
BRANCH  10  12
HETATM   12  C8  UNL     1      -7.287  53.962  10.747  1.00  0.00    -0.024 A 
HETATM   13  C9  UNL     1      -7.359  52.590  10.617  1.00  0.00     0.010 A 
HETATM   14  C10 UNL     1      -6.903  51.765  11.625  1.00  0.00     0.003 A 
HETATM   15  C11 UNL     1      -6.370  52.295  12.775  1.00  0.00     0.036 A 
HETATM   16  C12 UNL     1      -6.279  53.677  12.945  1.00  0.00     0.103 A 
HETATM   17  C13 UNL     1      -6.744  54.456  11.917  1.00  0.00     0.045 A 
BRANCH  16  18
HETATM   18  N1  UNL     1      -5.735  54.232  14.121  1.00  0.00    -0.116 N 
HETATM   19  O5  UNL     1      -6.040  55.376  14.473  1.00  0.00    -0.532 OA
HETATM   20  O6  UNL     1      -4.863  53.503  14.878  1.00  0.00    -0.532 OA
ENDBRANCH  16  18
ENDBRANCH  10  12
BRANCH   9  21
HETATM   21  O4  UNL     1     -10.019  54.593  10.150  1.00  0.00    -0.388 OA
ATOM     22  H4  UNL     1     -10.218  53.717  10.460  1.00  0.00     0.210 HD
ENDBRANCH   9  21
TORSDOF 3
ENDMDL
MODEL 5
REMARK VINA RESULT: -6.846063548      2.018      2.615
REMARK  3 active torsions:
REMARK  status: ('A' for Active; 'I' for Inactive)
REMARK    1  A    between atoms: C6_9  and  O4_10 
REMARK    2  A    between atoms: C7_12  and  C8_13 
REMARK    3  A    between atoms: C12_17  and  N1_18 
ROOT
HETATM    1  C1  UNL     1      -1.836  47.472   8.822  1.00  0.00     0.078 C 
HETATM    2  C2  UNL     1      -1.577  48.194  10.116  1.00  0.00     0.165 C 
HETATM    3  C3  UNL     1      -0.281  47.704  10.680  1.00  0.00     0.078 C 
HETATM    4  O1  UNL     1      -2.629  47.786  10.996  1.00  0.00    -0.303 OA
HETATM    5  C4  UNL     1      -3.137  48.936  11.385  1.00  0.00     0.418 C 
HETATM    6  O2  UNL     1      -1.951  49.505  11.944  1.00  0.00    -0.305 OA
HETATM    7  C5  UNL     1      -1.626  50.410  10.930  1.00  0.00     0.300 C 
HETATM    8  O3  UNL     1      -1.569  49.561   9.830  1.00  0.00    -0.323 OA
HETATM    9  C6  UNL     1      -2.881  51.282  11.025  1.00  0.00     0.207 C 
HETATM   10  C7  UNL     1      -3.811  50.827  12.141  1.00  0.00     0.193 C 
HETATM   11  O7  UNL     1      -4.047  49.420  12.163  1.00  0.00    -0.326 OA
ENDROOT
BRANCH  10  12
HETATM   12  C8  UNL     1      -5.024  51.598  12.229  1.00  0.00    -0.024 A 
HETATM   13  C9  UNL     1      -6.223  51.149  11.711  1.00  0.00     0.010 A 
HETATM   14  C10 UNL     1      -7.364  51.918  11.815  1.00  0.00     0.003 A 
HETATM   15  C11 UNL     1      -7.327  53.144  12.435  1.00  0.00     0.036 A 
HETATM   16  C12 UNL     1      -6.136  53.634  12.971  1.00  0.00     0.103 A 
HETATM   17  C13 UNL     1      -5.029  52.834  12.844  1.00  0.00     0.045 A 
BRANCH  16  18
HETATM   18  N1  UNL     1      -6.085  54.890  13.609  1.00  0.00    -0.116 N 
HETATM   19  O5  UNL     1      -5.006  55.469  13.767  1.00  0.00    -0.532 OA
HETATM   20  O6  UNL     1      -7.236  55.473  14.056  1.00  0.00    -0.532 OA
ENDBRANCH  16  18
ENDBRANCH  10  12
BRANCH   9  21
HETATM   21  O4  UNL     1      -2.459  52.559  11.384  1.00  0.00    -0.388 OA
ATOM     22  H4  UNL     1      -1.875  52.458  12.126  1.00  0.00     0.210 HD
ENDBRANCH   9  21
TORSDOF 3
ENDMDL
