MODEL 1
REMARK VINA RESULT: -6.953548554      0.000      0.000
REMARK  6 active torsions:
REMARK  status: ('A' for Active; 'I' for Inactive)
REMARK    1  A    between atoms: C5_5  and  C6_6 
REMARK    2  A    between atoms: C6_6  and  C7_9 
REMARK    3  A    between atoms: C7_9  and  O1_10 
REMARK    4  A    between atoms: C7_9  and  N1_12 
REMARK       I    between atoms: N1_12  and  C9_14 
REMARK    5  A    between atoms: C9_14  and  O3_16 
REMARK    6  A    between atoms: O3_16  and  C10_17 
ROOT
HETATM    1  C7  UNL     1     -49.091 -19.684   8.145  1.00  0.00     0.185 C 
ENDROOT
BRANCH   1   2
HETATM    2  C6  UNL     1     -50.226 -19.686   9.065  1.00  0.00     0.281 C 
HETATM    3  F1  UNL     1     -50.732 -18.451   9.390  1.00  0.00    -0.209 F 
HETATM    4 CL1  UNL     1     -49.745 -20.534  10.554  1.00  0.00    -0.068 Cl
BRANCH   2   5
HETATM    5  C5  UNL     1     -51.397 -20.435   8.459  1.00  0.00     0.046 C 
HETATM    6  C4  UNL     1     -52.015 -21.680   8.947  1.00  0.00     0.059 C 
HETATM    7  C3  UNL     1     -53.406 -21.616   8.364  1.00  0.00     0.030 C 
HETATM    8  C2  UNL     1     -53.069 -20.915   7.036  1.00  0.00     0.077 C 
HETATM    9  C1  UNL     1     -54.235 -20.129   6.534  1.00  0.00     0.032 C 
HETATM   10  N2  UNL     1     -51.993 -20.041   7.415  1.00  0.00    -0.388 N 
ATOM     11  H2  UNL     1     -51.739 -19.198   6.900  1.00  0.00     0.159 HD
ENDBRANCH   2   5
ENDBRANCH   1   2
BRANCH   1  12
HETATM   12  O1  UNL     1     -49.191 -19.060   7.007  1.00  0.00    -0.345 OA
ATOM     13  H1  UNL     1     -48.405 -18.758   6.568  1.00  0.00     0.219 HD
ENDBRANCH   1  12
BRANCH   1  14
HETATM   14  N1  UNL     1     -47.870 -20.310   8.381  1.00  0.00    -0.278 N 
HETATM   15  C8  UNL     1     -46.759 -19.456   8.903  1.00  0.00     0.163 C 
HETATM   16  C9  UNL     1     -47.546 -21.653   8.193  1.00  0.00     0.369 C 
HETATM   17  O2  UNL     1     -48.294 -22.559   7.774  1.00  0.00    -0.238 OA
BRANCH  16  18
HETATM   18  O3  UNL     1     -46.246 -22.107   8.491  1.00  0.00    -0.293 OA
BRANCH  18  19
HETATM   19  C10 UNL     1     -46.006 -23.018   9.554  1.00  0.00     0.061 C 
HETATM   20  C11 UNL     1     -44.630 -22.683  10.100  1.00  0.00     0.046 C 
HETATM   21  C12 UNL     1     -45.988 -24.443   9.090  1.00  0.00     0.046 C 
HETATM   22  C13 UNL     1     -46.993 -22.827  10.683  1.00  0.00     0.046 C 
ENDBRANCH  18  19
ENDBRANCH  16  18
ENDBRANCH   1  14
TORSDOF 6
ENDMDL
MODEL 2
REMARK VINA RESULT: -6.906558253      3.146      7.189
REMARK  6 active torsions:
REMARK  status: ('A' for Active; 'I' for Inactive)
REMARK    1  A    between atoms: C5_5  and  C6_6 
REMARK    2  A    between atoms: C6_6  and  C7_9 
REMARK    3  A    between atoms: C7_9  and  O1_10 
REMARK    4  A    between atoms: C7_9  and  N1_12 
REMARK       I    between atoms: N1_12  and  C9_14 
REMARK    5  A    between atoms: C9_14  and  O3_16 
REMARK    6  A    between atoms: O3_16  and  C10_17 
ROOT
HETATM    1  C7  UNL     1     -46.390 -23.047   9.239  1.00  0.00     0.185 C 
ENDROOT
BRANCH   1   2
HETATM    2  C6  UNL     1     -45.247 -22.839  10.126  1.00  0.00     0.281 C 
HETATM    3  F1  UNL     1     -45.552 -22.526  11.428  1.00  0.00    -0.209 F 
HETATM    4 CL1  UNL     1     -44.223 -21.556   9.438  1.00  0.00    -0.068 Cl
BRANCH   2   5
HETATM    5  C5  UNL     1     -44.413 -24.103  10.219  1.00  0.00     0.046 C 
HETATM    6  C4  UNL     1     -42.947 -24.204  10.314  1.00  0.00     0.059 C 
HETATM    7  C3  UNL     1     -42.744 -25.555  10.958  1.00  0.00     0.030 C 
HETATM    8  C2  UNL     1     -43.934 -26.296  10.321  1.00  0.00     0.077 C 
HETATM    9  C1  UNL     1     -44.411 -27.402  11.204  1.00  0.00     0.032 C 
HETATM   10  N2  UNL     1     -44.924 -25.260  10.225  1.00  0.00    -0.388 N 
ATOM     11  H2  UNL     1     -45.927 -25.437  10.168  1.00  0.00     0.159 HD
ENDBRANCH   2   5
ENDBRANCH   1   2
BRANCH   1  12
HETATM   12  O1  UNL     1     -46.209 -23.625   8.087  1.00  0.00    -0.345 OA
ATOM     13  H1  UNL     1     -46.811 -23.446   7.375  1.00  0.00     0.219 HD
ENDBRANCH   1  12
BRANCH   1  14
HETATM   14  N1  UNL     1     -47.699 -22.669   9.522  1.00  0.00    -0.278 N 
HETATM   15  C8  UNL     1     -48.696 -23.767   9.718  1.00  0.00     0.163 C 
HETATM   16  C9  UNL     1     -48.210 -21.378   9.651  1.00  0.00     0.369 C 
HETATM   17  O2  UNL     1     -47.585 -20.305   9.537  1.00  0.00    -0.238 OA
BRANCH  16  18
HETATM   18  O3  UNL     1     -49.575 -21.191   9.943  1.00  0.00    -0.293 OA
BRANCH  18  19
HETATM   19  C10 UNL     1     -50.470 -20.647   8.983  1.00  0.00     0.061 C 
HETATM   20  C11 UNL     1     -51.810 -21.319   9.220  1.00  0.00     0.046 C 
HETATM   21  C12 UNL     1     -50.044 -20.943   7.577  1.00  0.00     0.046 C 
HETATM   22  C13 UNL     1     -50.670 -19.164   9.189  1.00  0.00     0.046 C 
ENDBRANCH  18  19
ENDBRANCH  16  18
ENDBRANCH   1  14
TORSDOF 6
ENDMDL
MODEL 3
REMARK VINA RESULT: -6.861216057      0.972      1.642
REMARK  6 active torsions:
REMARK  status: ('A' for Active; 'I' for Inactive)
REMARK    1  A    between atoms: C5_5  and  C6_6 
REMARK    2  A    between atoms: C6_6  and  C7_9 
REMARK    3  A    between atoms: C7_9  and  O1_10 
REMARK    4  A    between atoms: C7_9  and  N1_12 
REMARK       I    between atoms: N1_12  and  C9_14 
REMARK    5  A    between atoms: C9_14  and  O3_16 
REMARK    6  A    between atoms: O3_16  and  C10_17 
ROOT
HETATM    1  C7  UNL     1     -48.804 -20.201   8.498  1.00  0.00     0.185 C 
ENDROOT
BRANCH   1   2
HETATM    2  C6  UNL     1     -49.964 -20.070   9.377  1.00  0.00     0.281 C 
HETATM    3  F1  UNL     1     -50.299 -18.787   9.735  1.00  0.00    -0.209 F 
HETATM    4 CL1  UNL     1     -49.672 -21.032  10.846  1.00  0.00    -0.068 Cl
BRANCH   2   5
HETATM    5  C5  UNL     1     -51.206 -20.618   8.699  1.00  0.00     0.046 C 
HETATM    6  C4  UNL     1     -51.926 -21.862   9.018  1.00  0.00     0.059 C 
HETATM    7  C3  UNL     1     -53.314 -21.593   8.487  1.00  0.00     0.030 C 
HETATM    8  C2  UNL     1     -52.933 -20.736   7.267  1.00  0.00     0.077 C 
HETATM    9  C1  UNL     1     -54.031 -19.787   6.915  1.00  0.00     0.032 C 
HETATM   10  N2  UNL     1     -51.778 -20.025   7.740  1.00  0.00    -0.388 N 
ATOM     11  H2  UNL     1     -51.456 -19.140   7.346  1.00  0.00     0.159 HD
ENDBRANCH   2   5
ENDBRANCH   1   2
BRANCH   1  12
HETATM   12  O1  UNL     1     -48.560 -19.274   7.618  1.00  0.00    -0.345 OA
ATOM     13  H1  UNL     1     -49.003 -18.436   7.687  1.00  0.00     0.219 HD
ENDBRANCH   1  12
BRANCH   1  14
HETATM   14  N1  UNL     1     -47.906 -21.264   8.514  1.00  0.00    -0.278 N 
HETATM   15  C8  UNL     1     -48.367 -22.553   7.911  1.00  0.00     0.163 C 
HETATM   16  C9  UNL     1     -46.608 -21.282   9.024  1.00  0.00     0.369 C 
HETATM   17  O2  UNL     1     -45.999 -20.340   9.569  1.00  0.00    -0.238 OA
BRANCH  16  18
HETATM   18  O3  UNL     1     -45.843 -22.462   8.948  1.00  0.00    -0.293 OA
BRANCH  18  19
HETATM   19  C10 UNL     1     -45.616 -23.273  10.092  1.00  0.00     0.061 C 
HETATM   20  C11 UNL     1     -45.819 -24.708   9.645  1.00  0.00     0.046 C 
HETATM   21  C12 UNL     1     -46.591 -22.988  11.194  1.00  0.00     0.046 C 
HETATM   22  C13 UNL     1     -44.192 -23.154  10.584  1.00  0.00     0.046 C 
ENDBRANCH  18  19
ENDBRANCH  16  18
ENDBRANCH   1  14
TORSDOF 6
ENDMDL
MODEL 4
REMARK VINA RESULT: -6.824452572      3.011      6.663
REMARK  6 active torsions:
REMARK  status: ('A' for Active; 'I' for Inactive)
REMARK    1  A    between atoms: C5_5  and  C6_6 
REMARK    2  A    between atoms: C6_6  and  C7_9 
REMARK    3  A    between atoms: C7_9  and  O1_10 
REMARK    4  A    between atoms: C7_9  and  N1_12 
REMARK       I    between atoms: N1_12  and  C9_14 
REMARK    5  A    between atoms: C9_14  and  O3_16 
REMARK    6  A    between atoms: O3_16  and  C10_17 
ROOT
HETATM    1  C7  UNL     1     -46.199 -21.971   7.813  1.00  0.00     0.185 C 
ENDROOT
BRANCH   1   2
HETATM    2  C6  UNL     1     -46.063 -23.416   7.649  1.00  0.00     0.281 C 
HETATM    3  F1  UNL     1     -45.339 -23.827   6.555  1.00  0.00    -0.209 F 
HETATM    4 CL1  UNL     1     -47.691 -24.132   7.578  1.00  0.00    -0.068 Cl
BRANCH   2   5
HETATM    5  C5  UNL     1     -45.339 -24.019   8.838  1.00  0.00     0.046 C 
HETATM    6  C4  UNL     1     -45.663 -25.270   9.545  1.00  0.00     0.059 C 
HETATM    7  C3  UNL     1     -44.346 -25.648  10.180  1.00  0.00     0.030 C 
HETATM    8  C2  UNL     1     -43.819 -24.232  10.479  1.00  0.00     0.077 C 
HETATM    9  C1  UNL     1     -42.325 -24.209  10.492  1.00  0.00     0.032 C 
HETATM   10  N2  UNL     1     -44.329 -23.474   9.370  1.00  0.00    -0.388 N 
ATOM     11  H2  UNL     1     -43.922 -22.596   9.048  1.00  0.00     0.159 HD
ENDBRANCH   2   5
ENDBRANCH   1   2
BRANCH   1  12
HETATM   12  O1  UNL     1     -45.140 -21.216   7.737  1.00  0.00    -0.345 OA
ATOM     13  H1  UNL     1     -44.472 -21.280   8.409  1.00  0.00     0.219 HD
ENDBRANCH   1  12
BRANCH   1  14
HETATM   14  N1  UNL     1     -47.396 -21.303   8.054  1.00  0.00    -0.278 N 
HETATM   15  C8  UNL     1     -48.025 -20.598   6.895  1.00  0.00     0.163 C 
HETATM   16  C9  UNL     1     -48.097 -21.207   9.255  1.00  0.00     0.369 C 
HETATM   17  O2  UNL     1     -47.784 -21.707  10.354  1.00  0.00    -0.238 OA
BRANCH  16  18
HETATM   18  O3  UNL     1     -49.304 -20.483   9.305  1.00  0.00    -0.293 OA
BRANCH  18  19
HETATM   19  C10 UNL     1     -50.557 -21.139   9.441  1.00  0.00     0.061 C 
HETATM   20  C11 UNL     1     -51.507 -20.447   8.481  1.00  0.00     0.046 C 
HETATM   21  C12 UNL     1     -51.119 -21.012  10.824  1.00  0.00     0.046 C 
HETATM   22  C13 UNL     1     -50.473 -22.588   9.020  1.00  0.00     0.046 C 
ENDBRANCH  18  19
ENDBRANCH  16  18
ENDBRANCH   1  14
TORSDOF 6
ENDMDL
MODEL 5
REMARK VINA RESULT: -6.803627393      3.332      6.778
REMARK  6 active torsions:
REMARK  status: ('A' for Active; 'I' for Inactive)
REMARK    1  A    between atoms: C5_5  and  C6_6 
REMARK    2  A    between atoms: C6_6  and  C7_9 
REMARK    3  A    between atoms: C7_9  and  O1_10 
REMARK    4  A    between atoms: C7_9  and  N1_12 
REMARK       I    between atoms: N1_12  and  C9_14 
REMARK    5  A    between atoms: C9_14  and  O3_16 
REMARK    6  A    between atoms: O3_16  and  C10_17 
ROOT
HETATM    1  C7  UNL     1     -46.042 -22.934   9.059  1.00  0.00     0.185 C 
ENDROOT
BRANCH   1   2
HETATM    2  C6  UNL     1     -44.868 -23.435   9.771  1.00  0.00     0.281 C 
HETATM    3  F1  UNL     1     -44.761 -23.053  11.086  1.00  0.00    -0.209 F 
HETATM    4 CL1  UNL     1     -43.410 -22.919   8.889  1.00  0.00    -0.068 Cl
BRANCH   2   5
HETATM    5  C5  UNL     1     -44.879 -24.951   9.808  1.00  0.00     0.046 C 
HETATM    6  C4  UNL     1     -43.920 -25.838  10.489  1.00  0.00     0.059 C 
HETATM    7  C3  UNL     1     -44.719 -27.104  10.692  1.00  0.00     0.030 C 
HETATM    8  C2  UNL     1     -45.563 -27.053   9.406  1.00  0.00     0.077 C 
HETATM    9  C1  UNL     1     -46.870 -27.752   9.596  1.00  0.00     0.032 C 
HETATM   10  N2  UNL     1     -45.764 -25.642   9.226  1.00  0.00    -0.388 N 
ATOM     11  H2  UNL     1     -46.534 -25.243   8.689  1.00  0.00     0.159 HD
ENDBRANCH   2   5
ENDBRANCH   1   2
BRANCH   1  12
HETATM   12  O1  UNL     1     -46.110 -23.065   7.766  1.00  0.00    -0.345 OA
ATOM     13  H1  UNL     1     -45.367 -22.813   7.231  1.00  0.00     0.219 HD
ENDBRANCH   1  12
BRANCH   1  14
HETATM   14  N1  UNL     1     -47.131 -22.306   9.657  1.00  0.00    -0.278 N 
HETATM   15  C8  UNL     1     -47.800 -23.031  10.782  1.00  0.00     0.163 C 
HETATM   16  C9  UNL     1     -47.686 -21.067   9.340  1.00  0.00     0.369 C 
HETATM   17  O2  UNL     1     -47.309 -20.277   8.452  1.00  0.00    -0.238 OA
BRANCH  16  18
HETATM   18  O3  UNL     1     -48.797 -20.592  10.064  1.00  0.00    -0.293 OA
BRANCH  18  19
HETATM   19  C10 UNL     1     -50.102 -20.595   9.503  1.00  0.00     0.061 C 
HETATM   20  C11 UNL     1     -51.040 -21.051  10.605  1.00  0.00     0.046 C 
HETATM   21  C12 UNL     1     -50.228 -21.555   8.359  1.00  0.00     0.046 C 
HETATM   22  C13 UNL     1     -50.535 -19.206   9.095  1.00  0.00     0.046 C 
ENDBRANCH  18  19
ENDBRANCH  16  18
ENDBRANCH   1  14
TORSDOF 6
ENDMDL
