MODEL 1
REMARK VINA RESULT: -7.828652098      0.000      0.000
REMARK  13 active torsions:
REMARK  status: ('A' for Active; 'I' for Inactive)
REMARK    1  A    between atoms: O1_2  and  N1_3 
REMARK    2  A    between atoms: N1_3  and  O2_4 
REMARK    3  A    between atoms: N1_3  and  N2_6 
REMARK       I    between atoms: N2_6  and  C2_8 
REMARK    4  A    between atoms: N4_10  and  C3_12 
REMARK    5  A    between atoms: C3_12  and  C4_13 
REMARK    6  A    between atoms: C4_13  and  C5_14 
REMARK    7  A    between atoms: C5_14  and  C6_15 
REMARK    8  A    between atoms: C6_15  and  C7_16 
REMARK    9  A    between atoms: C7_16  and  O3_17 
REMARK   10  A    between atoms: O3_17  and  C8_18 
REMARK   11  A    between atoms: C11_21  and  C12_22 
REMARK   12  A    between atoms: C12_22  and  N5_23 
REMARK   13  A    between atoms: N5_23  and  C13_25 
ROOT
HETATM    1  O3  UNL     1      36.407  10.384   9.880  1.00  0.00    -0.351 OA
ENDROOT
BRANCH   1   2
HETATM    2  C7  UNL     1      35.773   9.163   9.886  1.00  0.00     0.175 C 
BRANCH   2   3
HETATM    3  C6  UNL     1      35.195   8.850   8.531  1.00  0.00     0.027 C 
BRANCH   3   4
HETATM    4  C5  UNL     1      33.823   9.517   8.459  1.00  0.00     0.004 C 
BRANCH   4   5
HETATM    5  C4  UNL     1      33.726  10.561   7.387  1.00  0.00     0.020 C 
BRANCH   5   6
HETATM    6  C3  UNL     1      33.223  11.875   7.950  1.00  0.00     0.122 C 
BRANCH   6   7
HETATM    7  N4  UNL     1      34.252  12.405   8.816  1.00  0.00    -0.364 N 
HETATM    8  C2  UNL     1      33.938  12.792   9.995  1.00  0.00     0.202 C 
HETATM    9  N2  UNL     1      32.591  12.691  10.421  1.00  0.00    -0.245 N 
HETATM   10  N3  UNL     1      34.954  13.307  10.832  1.00  0.00    -0.062 NA
ATOM     11  H2  UNL     1      31.898  13.359  10.085  1.00  0.00     0.188 HD
ATOM     12  H4  UNL     1      35.217  12.470   8.491  1.00  0.00     0.162 HD
BRANCH   9  13
HETATM   13  N1  UNL     1      32.208  11.671  11.307  1.00  0.00     0.037 NA
BRANCH  13  14
HETATM   14  O1  UNL     1      31.528  12.165  12.351  1.00  0.00    -0.266 OA
HETATM   15  C1  UNL     1      31.287  13.527  12.275  1.00  0.00     0.234 C 
ENDBRANCH  13  14
BRANCH  13  16
HETATM   16  O2  UNL     1      33.304  11.024  11.794  1.00  0.00    -0.270 OA
ATOM     17  H2  UNL     1      34.074  11.497  11.502  1.00  0.00     0.241 HD
ENDBRANCH  13  16
ENDBRANCH   9  13
ENDBRANCH   6   7
ENDBRANCH   5   6
ENDBRANCH   4   5
ENDBRANCH   3   4
ENDBRANCH   2   3
ENDBRANCH   1   2
BRANCH   1  18
HETATM   18  C8  UNL     1      37.715  10.656   9.823  1.00  0.00     0.068 A 
HETATM   19  C9  UNL     1      38.362  10.377   8.605  1.00  0.00     0.037 A 
HETATM   20  C10 UNL     1      39.700  10.614   8.416  1.00  0.00     0.011 A 
HETATM   21  C11 UNL     1      40.489  11.141   9.412  1.00  0.00    -0.040 A 
HETATM   22  C18 UNL     1      39.861  11.416  10.604  1.00  0.00     0.011 A 
HETATM   23  C19 UNL     1      38.496  11.181  10.814  1.00  0.00     0.037 A 
BRANCH  21  24
HETATM   24  C12 UNL     1      41.944  11.399   9.206  1.00  0.00     0.158 C 
BRANCH  24  25
HETATM   25  N5  UNL     1      42.462  10.358   8.363  1.00  0.00    -0.386 N 
ATOM     26  H5  UNL     1      42.454  10.511   7.355  1.00  0.00     0.160 HD
BRANCH  25  27
HETATM   27  C13 UNL     1      42.936   9.244   8.802  1.00  0.00     0.030 A 
HETATM   28  C14 UNL     1      42.435   8.054   8.319  1.00  0.00     0.046 A 
HETATM   29  C15 UNL     1      42.918   6.826   8.764  1.00  0.00     0.089 A 
HETATM   30  N6  UNL     1      43.894   6.757   9.685  1.00  0.00    -0.375 N 
HETATM   31  C16 UNL     1      44.385   7.915  10.157  1.00  0.00     0.089 A 
ATOM     32  H6  UNL     1      44.249   5.859  10.013  1.00  0.00     0.164 HD
HETATM   33  C17 UNL     1      43.937   9.163   9.746  1.00  0.00     0.046 A 
ENDBRANCH  25  27
ENDBRANCH  24  25
ENDBRANCH  21  24
ENDBRANCH   1  18
TORSDOF 13
ENDMDL
MODEL 2
REMARK VINA RESULT: -7.799444823      4.053      5.756
REMARK  13 active torsions:
REMARK  status: ('A' for Active; 'I' for Inactive)
REMARK    1  A    between atoms: O1_2  and  N1_3 
REMARK    2  A    between atoms: N1_3  and  O2_4 
REMARK    3  A    between atoms: N1_3  and  N2_6 
REMARK       I    between atoms: N2_6  and  C2_8 
REMARK    4  A    between atoms: N4_10  and  C3_12 
REMARK    5  A    between atoms: C3_12  and  C4_13 
REMARK    6  A    between atoms: C4_13  and  C5_14 
REMARK    7  A    between atoms: C5_14  and  C6_15 
REMARK    8  A    between atoms: C6_15  and  C7_16 
REMARK    9  A    between atoms: C7_16  and  O3_17 
REMARK   10  A    between atoms: O3_17  and  C8_18 
REMARK   11  A    between atoms: C11_21  and  C12_22 
REMARK   12  A    between atoms: C12_22  and  N5_23 
REMARK   13  A    between atoms: N5_23  and  C13_25 
ROOT
HETATM    1  O3  UNL     1      36.754   9.489   8.104  1.00  0.00    -0.351 OA
ENDROOT
BRANCH   1   2
HETATM    2  C7  UNL     1      35.927   9.923   7.094  1.00  0.00     0.175 C 
BRANCH   2   3
HETATM    3  C6  UNL     1      34.863   8.901   6.793  1.00  0.00     0.027 C 
BRANCH   3   4
HETATM    4  C5  UNL     1      33.520   9.628   6.809  1.00  0.00     0.004 C 
BRANCH   4   5
HETATM    5  C4  UNL     1      33.609  11.028   7.340  1.00  0.00     0.020 C 
BRANCH   5   6
HETATM    6  C3  UNL     1      33.206  11.084   8.801  1.00  0.00     0.122 C 
BRANCH   6   7
HETATM    7  N4  UNL     1      34.119  11.979   9.475  1.00  0.00    -0.364 N 
HETATM    8  C2  UNL     1      33.690  12.693  10.447  1.00  0.00     0.202 C 
HETATM    9  N2  UNL     1      32.332  12.588  10.837  1.00  0.00    -0.245 N 
HETATM   10  N3  UNL     1      34.593  13.564  11.098  1.00  0.00    -0.062 NA
ATOM     11  H2  UNL     1      31.604  13.029  10.273  1.00  0.00     0.188 HD
ATOM     12  H4  UNL     1      35.094  12.041   9.180  1.00  0.00     0.162 HD
BRANCH   9  13
HETATM   13  N1  UNL     1      31.986  11.880  11.997  1.00  0.00     0.037 NA
BRANCH  13  14
HETATM   14  O1  UNL     1      31.307  12.655  12.855  1.00  0.00    -0.266 OA
HETATM   15  C1  UNL     1      31.076  13.940  12.393  1.00  0.00     0.234 C 
ENDBRANCH  13  14
BRANCH  13  16
HETATM   16  O2  UNL     1      33.104  11.434  12.637  1.00  0.00    -0.270 OA
ATOM     17  H2  UNL     1      33.850  11.623  12.081  1.00  0.00     0.241 HD
ENDBRANCH  13  16
ENDBRANCH   9  13
ENDBRANCH   6   7
ENDBRANCH   5   6
ENDBRANCH   4   5
ENDBRANCH   3   4
ENDBRANCH   2   3
ENDBRANCH   1   2
BRANCH   1  18
HETATM   18  C8  UNL     1      36.743   9.811   9.402  1.00  0.00     0.068 A 
HETATM   19  C9  UNL     1      35.900   9.048  10.231  1.00  0.00     0.037 A 
HETATM   20  C10 UNL     1      35.800   9.275  11.580  1.00  0.00     0.011 A 
HETATM   21  C11 UNL     1      36.523  10.267  12.203  1.00  0.00    -0.040 A 
HETATM   22  C18 UNL     1      37.349  11.014  11.397  1.00  0.00     0.011 A 
HETATM   23  C19 UNL     1      37.463  10.796  10.017  1.00  0.00     0.037 A 
BRANCH  21  24
HETATM   24  C12 UNL     1      36.414  10.513  13.670  1.00  0.00     0.158 C 
BRANCH  24  25
HETATM   25  N5  UNL     1      35.226   9.859  14.140  1.00  0.00    -0.386 N 
ATOM     26  H5  UNL     1      34.327  10.180  13.779  1.00  0.00     0.160 HD
BRANCH  25  27
HETATM   27  C13 UNL     1      35.223   8.891  14.991  1.00  0.00     0.030 A 
HETATM   28  C14 UNL     1      34.803   9.121  16.283  1.00  0.00     0.046 A 
HETATM   29  C15 UNL     1      34.783   8.106  17.235  1.00  0.00     0.089 A 
HETATM   30  N6  UNL     1      35.173   6.858  16.926  1.00  0.00    -0.375 N 
HETATM   31  C16 UNL     1      35.581   6.629  15.667  1.00  0.00     0.089 A 
ATOM     32  H6  UNL     1      35.160   6.112  17.622  1.00  0.00     0.164 HD
HETATM   33  C17 UNL     1      35.621   7.608  14.683  1.00  0.00     0.046 A 
ENDBRANCH  25  27
ENDBRANCH  24  25
ENDBRANCH  21  24
ENDBRANCH   1  18
TORSDOF 13
ENDMDL
MODEL 3
REMARK VINA RESULT: -7.667411992      1.963      3.189
REMARK  13 active torsions:
REMARK  status: ('A' for Active; 'I' for Inactive)
REMARK    1  A    between atoms: O1_2  and  N1_3 
REMARK    2  A    between atoms: N1_3  and  O2_4 
REMARK    3  A    between atoms: N1_3  and  N2_6 
REMARK       I    between atoms: N2_6  and  C2_8 
REMARK    4  A    between atoms: N4_10  and  C3_12 
REMARK    5  A    between atoms: C3_12  and  C4_13 
REMARK    6  A    between atoms: C4_13  and  C5_14 
REMARK    7  A    between atoms: C5_14  and  C6_15 
REMARK    8  A    between atoms: C6_15  and  C7_16 
REMARK    9  A    between atoms: C7_16  and  O3_17 
REMARK   10  A    between atoms: O3_17  and  C8_18 
REMARK   11  A    between atoms: C11_21  and  C12_22 
REMARK   12  A    between atoms: C12_22  and  N5_23 
REMARK   13  A    between atoms: N5_23  and  C13_25 
ROOT
HETATM    1  O3  UNL     1      34.987   8.763   7.569  1.00  0.00    -0.351 OA
ENDROOT
BRANCH   1   2
HETATM    2  C7  UNL     1      33.738   9.299   7.788  1.00  0.00     0.175 C 
BRANCH   2   3
HETATM    3  C6  UNL     1      33.484  10.465   6.871  1.00  0.00     0.027 C 
BRANCH   3   4
HETATM    4  C5  UNL     1      33.482  11.726   7.732  1.00  0.00     0.004 C 
BRANCH   4   5
HETATM    5  C4  UNL     1      33.432  11.440   9.203  1.00  0.00     0.020 C 
BRANCH   5   6
HETATM    6  C3  UNL     1      33.787  12.674  10.011  1.00  0.00     0.122 C 
BRANCH   6   7
HETATM    7  N4  UNL     1      32.645  13.003  10.834  1.00  0.00    -0.364 N 
HETATM    8  C2  UNL     1      32.370  12.266  11.844  1.00  0.00     0.202 C 
HETATM    9  N2  UNL     1      33.192  11.147  12.130  1.00  0.00    -0.245 N 
HETATM   10  N3  UNL     1      31.251  12.598  12.641  1.00  0.00    -0.062 NA
ATOM     11  H2  UNL     1      33.112  10.300  11.568  1.00  0.00     0.188 HD
ATOM     12  H4  UNL     1      32.065  13.812  10.613  1.00  0.00     0.162 HD
BRANCH   9  13
HETATM   13  N1  UNL     1      34.115  11.204  13.185  1.00  0.00     0.037 NA
BRANCH  13  14
HETATM   14  O1  UNL     1      35.344  11.502  12.739  1.00  0.00    -0.266 OA
HETATM   15  C1  UNL     1      35.915  10.513  11.955  1.00  0.00     0.234 C 
ENDBRANCH  13  14
BRANCH  13  16
HETATM   16  O2  UNL     1      34.186  10.002  13.824  1.00  0.00    -0.270 OA
ATOM     17  H2  UNL     1      33.739  10.091  14.658  1.00  0.00     0.241 HD
ENDBRANCH  13  16
ENDBRANCH   9  13
ENDBRANCH   6   7
ENDBRANCH   5   6
ENDBRANCH   4   5
ENDBRANCH   3   4
ENDBRANCH   2   3
ENDBRANCH   1   2
BRANCH   1  18
HETATM   18  C8  UNL     1      36.118   8.950   8.257  1.00  0.00     0.068 A 
HETATM   19  C9  UNL     1      36.527   7.894   9.091  1.00  0.00     0.037 A 
HETATM   20  C10 UNL     1      37.670   7.958   9.846  1.00  0.00     0.011 A 
HETATM   21  C11 UNL     1      38.488   9.065   9.830  1.00  0.00    -0.040 A 
HETATM   22  C18 UNL     1      38.092  10.100   9.015  1.00  0.00     0.011 A 
HETATM   23  C19 UNL     1      36.928  10.051   8.237  1.00  0.00     0.037 A 
BRANCH  21  24
HETATM   24  C12 UNL     1      39.732   9.134  10.650  1.00  0.00     0.158 C 
BRANCH  24  25
HETATM   25  N5  UNL     1      40.356  10.402  10.399  1.00  0.00    -0.386 N 
ATOM     26  H5  UNL     1      39.912  11.238  10.779  1.00  0.00     0.160 HD
BRANCH  25  27
HETATM   27  C13 UNL     1      41.443  10.550   9.723  1.00  0.00     0.030 A 
HETATM   28  C14 UNL     1      42.484   9.665   9.905  1.00  0.00     0.046 A 
HETATM   29  C15 UNL     1      43.676   9.786   9.197  1.00  0.00     0.089 A 
HETATM   30  N6  UNL     1      43.855  10.775   8.305  1.00  0.00    -0.375 N 
HETATM   31  C16 UNL     1      42.843  11.639   8.124  1.00  0.00     0.089 A 
ATOM     32  H6  UNL     1      44.728  10.866   7.785  1.00  0.00     0.164 HD
HETATM   33  C17 UNL     1      41.636  11.561   8.807  1.00  0.00     0.046 A 
ENDBRANCH  25  27
ENDBRANCH  24  25
ENDBRANCH  21  24
ENDBRANCH   1  18
TORSDOF 13
ENDMDL
MODEL 4
REMARK VINA RESULT: -7.664287530      1.876      3.258
REMARK  13 active torsions:
REMARK  status: ('A' for Active; 'I' for Inactive)
REMARK    1  A    between atoms: O1_2  and  N1_3 
REMARK    2  A    between atoms: N1_3  and  O2_4 
REMARK    3  A    between atoms: N1_3  and  N2_6 
REMARK       I    between atoms: N2_6  and  C2_8 
REMARK    4  A    between atoms: N4_10  and  C3_12 
REMARK    5  A    between atoms: C3_12  and  C4_13 
REMARK    6  A    between atoms: C4_13  and  C5_14 
REMARK    7  A    between atoms: C5_14  and  C6_15 
REMARK    8  A    between atoms: C6_15  and  C7_16 
REMARK    9  A    between atoms: C7_16  and  O3_17 
REMARK   10  A    between atoms: O3_17  and  C8_18 
REMARK   11  A    between atoms: C11_21  and  C12_22 
REMARK   12  A    between atoms: C12_22  and  N5_23 
REMARK   13  A    between atoms: N5_23  and  C13_25 
ROOT
HETATM    1  O3  UNL     1      34.454   9.447   9.403  1.00  0.00    -0.351 OA
ENDROOT
BRANCH   1   2
HETATM    2  C7  UNL     1      33.628   9.515   8.305  1.00  0.00     0.175 C 
BRANCH   2   3
HETATM    3  C6  UNL     1      33.881  10.772   7.517  1.00  0.00     0.027 C 
BRANCH   3   4
HETATM    4  C5  UNL     1      33.111  11.899   8.204  1.00  0.00     0.004 C 
BRANCH   4   5
HETATM    5  C4  UNL     1      33.992  13.017   8.677  1.00  0.00     0.020 C 
BRANCH   5   6
HETATM    6  C3  UNL     1      34.270  12.901  10.163  1.00  0.00     0.122 C 
BRANCH   6   7
HETATM    7  N4  UNL     1      33.007  13.020  10.857  1.00  0.00    -0.364 N 
HETATM    8  C2  UNL     1      32.687  12.138  11.727  1.00  0.00     0.202 C 
HETATM    9  N2  UNL     1      33.578  11.068  11.989  1.00  0.00    -0.245 N 
HETATM   10  N3  UNL     1      31.450  12.267  12.399  1.00  0.00    -0.062 NA
ATOM     11  H2  UNL     1      33.656  10.296  11.327  1.00  0.00     0.188 HD
ATOM     12  H4  UNL     1      32.379  13.798  10.655  1.00  0.00     0.162 HD
BRANCH   9  13
HETATM   13  N1  UNL     1      34.354  11.069  13.159  1.00  0.00     0.037 NA
BRANCH  13  14
HETATM   14  O1  UNL     1      35.656  11.212  12.878  1.00  0.00    -0.266 OA
HETATM   15  C1  UNL     1      36.473  10.279  13.495  1.00  0.00     0.234 C 
ENDBRANCH  13  14
BRANCH  13  16
HETATM   16  O2  UNL     1      34.202   9.894  13.834  1.00  0.00    -0.270 OA
ATOM     17  H2  UNL     1      33.387   9.943  14.320  1.00  0.00     0.241 HD
ENDBRANCH  13  16
ENDBRANCH   9  13
ENDBRANCH   6   7
ENDBRANCH   5   6
ENDBRANCH   4   5
ENDBRANCH   3   4
ENDBRANCH   2   3
ENDBRANCH   1   2
BRANCH   1  18
HETATM   18  C8  UNL     1      35.766   9.197   9.459  1.00  0.00     0.068 A 
HETATM   19  C9  UNL     1      36.163   7.868   9.221  1.00  0.00     0.037 A 
HETATM   20  C10 UNL     1      37.479   7.481   9.246  1.00  0.00     0.011 A 
HETATM   21  C11 UNL     1      38.492   8.377   9.506  1.00  0.00    -0.040 A 
HETATM   22  C18 UNL     1      38.109   9.677   9.738  1.00  0.00     0.011 A 
HETATM   23  C19 UNL     1      36.769  10.089   9.716  1.00  0.00     0.037 A 
BRANCH  21  24
HETATM   24  C12 UNL     1      39.923   7.956   9.532  1.00  0.00     0.158 C 
BRANCH  24  25
HETATM   25  N5  UNL     1      40.545   8.432   8.329  1.00  0.00    -0.386 N 
ATOM     26  H5  UNL     1      40.268   8.004   7.445  1.00  0.00     0.160 HD
BRANCH  25  27
HETATM   27  C13 UNL     1      41.432   9.366   8.296  1.00  0.00     0.030 A 
HETATM   28  C14 UNL     1      41.067  10.638   7.915  1.00  0.00     0.046 A 
HETATM   29  C15 UNL     1      41.991  11.678   7.865  1.00  0.00     0.089 A 
HETATM   30  N6  UNL     1      43.279  11.476   8.189  1.00  0.00    -0.375 N 
HETATM   31  C16 UNL     1      43.639  10.237   8.563  1.00  0.00     0.089 A 
ATOM     32  H6  UNL     1      43.959  12.236   8.153  1.00  0.00     0.164 HD
HETATM   33  C17 UNL     1      42.755   9.168   8.627  1.00  0.00     0.046 A 
ENDBRANCH  25  27
ENDBRANCH  24  25
ENDBRANCH  21  24
ENDBRANCH   1  18
TORSDOF 13
ENDMDL
MODEL 5
REMARK VINA RESULT: -7.663756578      1.907      3.161
REMARK  13 active torsions:
REMARK  status: ('A' for Active; 'I' for Inactive)
REMARK    1  A    between atoms: O1_2  and  N1_3 
REMARK    2  A    between atoms: N1_3  and  O2_4 
REMARK    3  A    between atoms: N1_3  and  N2_6 
REMARK       I    between atoms: N2_6  and  C2_8 
REMARK    4  A    between atoms: N4_10  and  C3_12 
REMARK    5  A    between atoms: C3_12  and  C4_13 
REMARK    6  A    between atoms: C4_13  and  C5_14 
REMARK    7  A    between atoms: C5_14  and  C6_15 
REMARK    8  A    between atoms: C6_15  and  C7_16 
REMARK    9  A    between atoms: C7_16  and  O3_17 
REMARK   10  A    between atoms: O3_17  and  C8_18 
REMARK   11  A    between atoms: C11_21  and  C12_22 
REMARK   12  A    between atoms: C12_22  and  N5_23 
REMARK   13  A    between atoms: N5_23  and  C13_25 
ROOT
HETATM    1  O3  UNL     1      35.068   8.793   8.022  1.00  0.00    -0.351 OA
ENDROOT
BRANCH   1   2
HETATM    2  C7  UNL     1      34.841   9.268   6.751  1.00  0.00     0.175 C 
BRANCH   2   3
HETATM    3  C6  UNL     1      33.629  10.160   6.717  1.00  0.00     0.027 C 
BRANCH   3   4
HETATM    4  C5  UNL     1      33.418  10.691   8.133  1.00  0.00     0.004 C 
BRANCH   4   5
HETATM    5  C4  UNL     1      33.416  12.189   8.212  1.00  0.00     0.020 C 
BRANCH   5   6
HETATM    6  C3  UNL     1      33.968  12.666   9.541  1.00  0.00     0.122 C 
BRANCH   6   7
HETATM    7  N4  UNL     1      32.851  12.838  10.444  1.00  0.00    -0.364 N 
HETATM    8  C2  UNL     1      32.745  12.065  11.459  1.00  0.00     0.202 C 
HETATM    9  N2  UNL     1      33.723  11.063  11.672  1.00  0.00    -0.245 N 
HETATM   10  N3  UNL     1      31.650  12.244  12.334  1.00  0.00    -0.062 NA
ATOM     11  H2  UNL     1      33.716  10.215  11.104  1.00  0.00     0.188 HD
ATOM     12  H4  UNL     1      32.158  13.566  10.274  1.00  0.00     0.162 HD
BRANCH   9  13
HETATM   13  N1  UNL     1      34.702  11.233  12.663  1.00  0.00     0.037 NA
BRANCH  13  14
HETATM   14  O1  UNL     1      35.821  10.560  12.362  1.00  0.00    -0.266 OA
HETATM   15  C1  UNL     1      35.774   9.214  12.682  1.00  0.00     0.234 C 
ENDBRANCH  13  14
BRANCH  13  16
HETATM   16  O2  UNL     1      34.252  10.773  13.865  1.00  0.00    -0.270 OA
ATOM     17  H2  UNL     1      34.976  10.338  14.297  1.00  0.00     0.241 HD
ENDBRANCH  13  16
ENDBRANCH   9  13
ENDBRANCH   6   7
ENDBRANCH   5   6
ENDBRANCH   4   5
ENDBRANCH   3   4
ENDBRANCH   2   3
ENDBRANCH   1   2
BRANCH   1  18
HETATM   18  C8  UNL     1      36.199   8.792   8.734  1.00  0.00     0.068 A 
HETATM   19  C9  UNL     1      36.857  10.028   8.870  1.00  0.00     0.037 A 
HETATM   20  C10 UNL     1      38.024  10.162   9.578  1.00  0.00     0.011 A 
HETATM   21  C11 UNL     1      38.621   9.089  10.200  1.00  0.00    -0.040 A 
HETATM   22  C18 UNL     1      37.982   7.879  10.070  1.00  0.00     0.011 A 
HETATM   23  C19 UNL     1      36.789   7.724   9.351  1.00  0.00     0.037 A 
BRANCH  21  24
HETATM   24  C12 UNL     1      39.890   9.236  10.970  1.00  0.00     0.158 C 
BRANCH  24  25
HETATM   25  N5  UNL     1      40.511  10.467  10.569  1.00  0.00    -0.386 N 
ATOM     26  H5  UNL     1      40.074  11.341  10.862  1.00  0.00     0.160 HD
BRANCH  25  27
HETATM   27  C13 UNL     1      41.585  10.536   9.861  1.00  0.00     0.030 A 
HETATM   28  C14 UNL     1      41.735  11.558   8.949  1.00  0.00     0.046 A 
HETATM   29  C15 UNL     1      42.878  11.673   8.164  1.00  0.00     0.089 A 
HETATM   30  N6  UNL     1      43.883  10.786   8.268  1.00  0.00    -0.375 N 
HETATM   31  C16 UNL     1      43.741   9.789   9.157  1.00  0.00     0.089 A 
ATOM     32  H6  UNL     1      44.722  10.868   7.693  1.00  0.00     0.164 HD
HETATM   33  C17 UNL     1      42.620   9.632   9.961  1.00  0.00     0.046 A 
ENDBRANCH  25  27
ENDBRANCH  24  25
ENDBRANCH  21  24
ENDBRANCH   1  18
TORSDOF 13
ENDMDL
