MODEL 1
REMARK VINA RESULT: -9.051958048      0.000      0.000
REMARK  10 active torsions:
REMARK  status: ('A' for Active; 'I' for Inactive)
REMARK    1  A    between atoms: C2_2  and  C3_3 
REMARK    2  A    between atoms: C3_3  and  N1_4 
REMARK    3  A    between atoms: C4_5  and  S1_6 
REMARK    4  A    between atoms: S1_6  and  C5_7 
REMARK    5  A    between atoms: C5_7  and  C6_8 
REMARK    6  A    between atoms: C6_8  and  C7_9 
REMARK    7  A    between atoms: C7_9  and  N2_10 
REMARK    8  A    between atoms: C15_18  and  C16_19 
REMARK    9  A    between atoms: C19_22  and  O1_23 
REMARK   10  A    between atoms: C22_31  and  C23_32 
ROOT
HETATM    1  N2  UNL     1       6.589  27.786  19.807  1.00  0.00    -0.412 N 
HETATM    2  C8  UNL     1       5.901  26.743  20.462  1.00  0.00     0.117 C 
HETATM    3  C9  UNL     1       5.077  25.839  19.601  1.00  0.00     0.020 C 
HETATM    4  C10 UNL     1       5.938  25.477  18.388  1.00  0.00     0.012 C 
HETATM    5  C11 UNL     1       7.242  24.986  18.907  1.00  0.00    -0.030 A 
HETATM    6  C12 UNL     1       8.252  26.087  19.113  1.00  0.00     0.029 C 
HETATM    7  C13 UNL     1       7.724  27.467  19.027  1.00  0.00     0.117 C 
HETATM    8  C14 UNL     1       7.320  23.918  19.978  1.00  0.00     0.020 A 
HETATM    9  C15 UNL     1       7.706  23.607  18.603  1.00  0.00     0.028 A 
ENDROOT
BRANCH   1  10
HETATM   10  C7  UNL     1       5.855  28.935  19.422  1.00  0.00     0.117 C 
BRANCH  10  11
HETATM   11  C6  UNL     1       5.115  29.588  20.571  1.00  0.00     0.030 C 
BRANCH  11  12
HETATM   12  C5  UNL     1       3.755  30.091  20.137  1.00  0.00     0.084 C 
BRANCH  12  13
HETATM   13  S1  UNL     1       2.576  28.761  19.823  1.00  0.00    -0.092 SA
BRANCH  13  14
HETATM   14  C4  UNL     1       0.909  29.399  19.647  1.00  0.00     0.162 A 
HETATM   15  N1  UNL     1       0.410  29.973  18.532  1.00  0.00    -0.315 N 
HETATM   16  C22 UNL     1      -0.865  30.334  18.754  1.00  0.00     0.104 A 
HETATM   17  N4  UNL     1      -1.160  29.981  20.018  1.00  0.00    -0.286 N 
HETATM   18  N3  UNL     1      -0.082  29.413  20.562  1.00  0.00    -0.278 N 
ATOM     19  H4  UNL     1      -2.057  30.124  20.483  1.00  0.00     0.188 HD
ATOM     20  H3  UNL     1      -0.017  29.048  21.513  1.00  0.00     0.189 HD
BRANCH  15  21
HETATM   21  C3  UNL     1       1.126  30.164  17.306  1.00  0.00     0.132 C 
BRANCH  21  22
HETATM   22  C2  UNL     1       1.895  31.447  17.233  1.00  0.00     0.016 C 
HETATM   23  C1  UNL     1       3.279  31.201  16.648  1.00  0.00     0.006 C 
ENDBRANCH  21  22
ENDBRANCH  15  21
BRANCH  16  24
HETATM   24  C23 UNL     1      -1.779  30.992  17.784  1.00  0.00     0.055 A 
HETATM   25  C24 UNL     1      -2.601  30.011  16.887  1.00  0.00     0.013 A 
HETATM   26  C25 UNL     1      -3.240  30.744  18.001  1.00  0.00     0.013 A 
ENDBRANCH  16  24
ENDBRANCH  13  14
ENDBRANCH  12  13
ENDBRANCH  11  12
ENDBRANCH  10  11
ENDBRANCH   1  10
BRANCH   9  27
HETATM   27  C16 UNL     1       6.910  22.630  17.839  1.00  0.00    -0.053 A 
HETATM   28  C17 UNL     1       6.555  22.883  16.514  1.00  0.00     0.010 A 
HETATM   29  C18 UNL     1       5.821  21.964  15.785  1.00  0.00     0.037 A 
HETATM   30  C19 UNL     1       5.412  20.768  16.335  1.00  0.00     0.065 A 
HETATM   31  C20 UNL     1       5.761  20.514  17.645  1.00  0.00     0.037 A 
HETATM   32  C21 UNL     1       6.489  21.430  18.363  1.00  0.00     0.010 A 
BRANCH  30  33
HETATM   33  O1  UNL     1       4.667  19.836  15.600  1.00  0.00    -0.361 OA
ATOM     34  H1  UNL     1       3.995  19.302  16.006  1.00  0.00     0.217 HD
ENDBRANCH  30  33
ENDBRANCH   9  27
TORSDOF 10
ENDMDL
MODEL 2
REMARK VINA RESULT: -8.705636309      3.620      8.906
REMARK  10 active torsions:
REMARK  status: ('A' for Active; 'I' for Inactive)
REMARK    1  A    between atoms: C2_2  and  C3_3 
REMARK    2  A    between atoms: C3_3  and  N1_4 
REMARK    3  A    between atoms: C4_5  and  S1_6 
REMARK    4  A    between atoms: S1_6  and  C5_7 
REMARK    5  A    between atoms: C5_7  and  C6_8 
REMARK    6  A    between atoms: C6_8  and  C7_9 
REMARK    7  A    between atoms: C7_9  and  N2_10 
REMARK    8  A    between atoms: C15_18  and  C16_19 
REMARK    9  A    between atoms: C19_22  and  O1_23 
REMARK   10  A    between atoms: C22_31  and  C23_32 
ROOT
HETATM    1  N2  UNL     1       5.644  29.133  20.147  1.00  0.00    -0.412 N 
HETATM    2  C8  UNL     1       4.808  30.090  20.758  1.00  0.00     0.117 C 
HETATM    3  C9  UNL     1       3.813  30.773  19.875  1.00  0.00     0.020 C 
HETATM    4  C10 UNL     1       3.151  29.683  19.027  1.00  0.00     0.012 C 
HETATM    5  C11 UNL     1       2.679  28.628  19.961  1.00  0.00    -0.030 A 
HETATM    6  C12 UNL     1       3.721  27.574  20.242  1.00  0.00     0.029 C 
HETATM    7  C13 UNL     1       5.091  27.885  19.776  1.00  0.00     0.117 C 
HETATM    8  C14 UNL     1       1.846  28.960  21.181  1.00  0.00     0.020 A 
HETATM    9  C15 UNL     1       1.237  28.279  20.041  1.00  0.00     0.028 A 
ENDROOT
BRANCH   1  10
HETATM   10  C7  UNL     1       6.743  29.594  19.381  1.00  0.00     0.117 C 
BRANCH  10  11
HETATM   11  C6  UNL     1       8.051  28.922  19.745  1.00  0.00     0.030 C 
BRANCH  11  12
HETATM   12  C5  UNL     1       8.637  28.180  18.563  1.00  0.00     0.084 C 
BRANCH  12  13
HETATM   13  S1  UNL     1       8.365  26.397  18.641  1.00  0.00    -0.092 SA
BRANCH  13  14
HETATM   14  C4  UNL     1       7.983  25.728  17.022  1.00  0.00     0.162 A 
HETATM   15  N1  UNL     1       7.129  24.711  16.781  1.00  0.00    -0.315 N 
HETATM   16  C22 UNL     1       7.086  24.472  15.460  1.00  0.00     0.104 A 
HETATM   17  N4  UNL     1       7.922  25.349  14.874  1.00  0.00    -0.286 N 
HETATM   18  N3  UNL     1       8.468  26.113  15.823  1.00  0.00    -0.278 N 
ATOM     19  H4  UNL     1       8.107  25.418  13.873  1.00  0.00     0.188 HD
ATOM     20  H3  UNL     1       9.141  26.864  15.668  1.00  0.00     0.189 HD
BRANCH  15  21
HETATM   21  C3  UNL     1       6.384  24.002  17.778  1.00  0.00     0.132 C 
BRANCH  21  22
HETATM   22  C2  UNL     1       7.025  22.729  18.239  1.00  0.00     0.016 C 
HETATM   23  C1  UNL     1       7.470  22.857  19.690  1.00  0.00     0.006 C 
ENDBRANCH  21  22
ENDBRANCH  15  21
BRANCH  16  24
HETATM   24  C23 UNL     1       6.266  23.441  14.774  1.00  0.00     0.055 A 
HETATM   25  C24 UNL     1       6.839  22.948  13.406  1.00  0.00     0.013 A 
HETATM   26  C25 UNL     1       6.913  22.099  14.614  1.00  0.00     0.013 A 
ENDBRANCH  16  24
ENDBRANCH  13  14
ENDBRANCH  12  13
ENDBRANCH  11  12
ENDBRANCH  10  11
ENDBRANCH   1  10
BRANCH   9  27
HETATM   27  C16 UNL     1       0.188  28.969  19.269  1.00  0.00    -0.053 A 
HETATM   28  C17 UNL     1      -0.851  29.636  19.919  1.00  0.00     0.010 A 
HETATM   29  C18 UNL     1      -1.829  30.300  19.201  1.00  0.00     0.037 A 
HETATM   30  C19 UNL     1      -1.820  30.329  17.823  1.00  0.00     0.065 A 
HETATM   31  C20 UNL     1      -0.795  29.671  17.178  1.00  0.00     0.037 A 
HETATM   32  C21 UNL     1       0.174  29.014  17.895  1.00  0.00     0.010 A 
BRANCH  30  33
HETATM   33  O1  UNL     1      -2.811  30.999  17.094  1.00  0.00    -0.361 OA
ATOM     34  H1  UNL     1      -3.133  30.664  16.266  1.00  0.00     0.217 HD
ENDBRANCH  30  33
ENDBRANCH   9  27
TORSDOF 10
ENDMDL
MODEL 3
REMARK VINA RESULT: -8.644556375      3.622      8.807
REMARK  10 active torsions:
REMARK  status: ('A' for Active; 'I' for Inactive)
REMARK    1  A    between atoms: C2_2  and  C3_3 
REMARK    2  A    between atoms: C3_3  and  N1_4 
REMARK    3  A    between atoms: C4_5  and  S1_6 
REMARK    4  A    between atoms: S1_6  and  C5_7 
REMARK    5  A    between atoms: C5_7  and  C6_8 
REMARK    6  A    between atoms: C6_8  and  C7_9 
REMARK    7  A    between atoms: C7_9  and  N2_10 
REMARK    8  A    between atoms: C15_18  and  C16_19 
REMARK    9  A    between atoms: C19_22  and  O1_23 
REMARK   10  A    between atoms: C22_31  and  C23_32 
ROOT
HETATM    1  N2  UNL     1       5.519  28.880  20.280  1.00  0.00    -0.412 N 
HETATM    2  C8  UNL     1       4.751  29.964  20.752  1.00  0.00     0.117 C 
HETATM    3  C9  UNL     1       3.817  30.602  19.773  1.00  0.00     0.020 C 
HETATM    4  C10 UNL     1       3.084  29.464  19.056  1.00  0.00     0.012 C 
HETATM    5  C11 UNL     1       2.527  28.571  20.105  1.00  0.00    -0.030 A 
HETATM    6  C12 UNL     1       3.485  27.488  20.533  1.00  0.00     0.029 C 
HETATM    7  C13 UNL     1       4.879  27.638  20.057  1.00  0.00     0.117 C 
HETATM    8  C14 UNL     1       1.710  29.113  21.258  1.00  0.00     0.020 A 
HETATM    9  C15 UNL     1       1.062  28.340  20.201  1.00  0.00     0.028 A 
ENDROOT
BRANCH   1  10
HETATM   10  C7  UNL     1       6.656  29.160  19.483  1.00  0.00     0.117 C 
BRANCH  10  11
HETATM   11  C6  UNL     1       7.462  27.927  19.132  1.00  0.00     0.030 C 
BRANCH  11  12
HETATM   12  C5  UNL     1       8.587  28.257  18.175  1.00  0.00     0.084 C 
BRANCH  12  13
HETATM   13  S1  UNL     1       8.760  27.053  16.841  1.00  0.00    -0.092 SA
BRANCH  13  14
HETATM   14  C4  UNL     1       7.949  25.507  17.254  1.00  0.00     0.162 A 
HETATM   15  N1  UNL     1       7.172  24.789  16.417  1.00  0.00    -0.315 N 
HETATM   16  C22 UNL     1       6.731  23.692  17.055  1.00  0.00     0.104 A 
HETATM   17  N4  UNL     1       7.239  23.730  18.301  1.00  0.00    -0.286 N 
HETATM   18  N3  UNL     1       7.980  24.834  18.422  1.00  0.00    -0.278 N 
ATOM     19  H4  UNL     1       7.084  23.033  19.029  1.00  0.00     0.188 HD
ATOM     20  H3  UNL     1       8.486  25.120  19.260  1.00  0.00     0.189 HD
BRANCH  15  21
HETATM   21  C3  UNL     1       6.869  25.140  15.062  1.00  0.00     0.132 C 
BRANCH  21  22
HETATM   22  C2  UNL     1       7.821  24.579  14.051  1.00  0.00     0.016 C 
HETATM   23  C1  UNL     1       7.083  24.231  12.765  1.00  0.00     0.006 C 
ENDBRANCH  21  22
ENDBRANCH  15  21
BRANCH  16  24
HETATM   24  C23 UNL     1       5.854  22.633  16.491  1.00  0.00     0.055 A 
HETATM   25  C24 UNL     1       6.611  21.449  15.806  1.00  0.00     0.013 A 
HETATM   26  C25 UNL     1       5.974  21.284  17.130  1.00  0.00     0.013 A 
ENDBRANCH  16  24
ENDBRANCH  13  14
ENDBRANCH  12  13
ENDBRANCH  11  12
ENDBRANCH  10  11
ENDBRANCH   1  10
BRANCH   9  27
HETATM   27  C16 UNL     1       0.074  29.002  19.330  1.00  0.00    -0.053 A 
HETATM   28  C17 UNL     1      -1.068  29.593  19.871  1.00  0.00     0.010 A 
HETATM   29  C18 UNL     1      -1.991  30.231  19.062  1.00  0.00     0.037 A 
HETATM   30  C19 UNL     1      -1.823  30.307  17.696  1.00  0.00     0.065 A 
HETATM   31  C20 UNL     1      -0.695  29.724  17.158  1.00  0.00     0.037 A 
HETATM   32  C21 UNL     1       0.218  29.093  17.966  1.00  0.00     0.010 A 
BRANCH  30  33
HETATM   33  O1  UNL     1      -2.757  30.950  16.874  1.00  0.00    -0.361 OA
ATOM     34  H1  UNL     1      -2.882  30.698  15.967  1.00  0.00     0.217 HD
ENDBRANCH  30  33
ENDBRANCH   9  27
TORSDOF 10
ENDMDL
MODEL 4
REMARK VINA RESULT: -8.529182187      6.551     11.886
REMARK  10 active torsions:
REMARK  status: ('A' for Active; 'I' for Inactive)
REMARK    1  A    between atoms: C2_2  and  C3_3 
REMARK    2  A    between atoms: C3_3  and  N1_4 
REMARK    3  A    between atoms: C4_5  and  S1_6 
REMARK    4  A    between atoms: S1_6  and  C5_7 
REMARK    5  A    between atoms: C5_7  and  C6_8 
REMARK    6  A    between atoms: C6_8  and  C7_9 
REMARK    7  A    between atoms: C7_9  and  N2_10 
REMARK    8  A    between atoms: C15_18  and  C16_19 
REMARK    9  A    between atoms: C19_22  and  O1_23 
REMARK   10  A    between atoms: C22_31  and  C23_32 
ROOT
HETATM    1  N2  UNL     1       6.504  21.909  15.773  1.00  0.00    -0.412 N 
HETATM    2  C8  UNL     1       7.202  23.122  15.600  1.00  0.00     0.117 C 
HETATM    3  C9  UNL     1       6.440  24.379  15.882  1.00  0.00     0.020 C 
HETATM    4  C10 UNL     1       5.701  24.161  17.204  1.00  0.00     0.012 C 
HETATM    5  C11 UNL     1       6.703  23.689  18.195  1.00  0.00    -0.030 A 
HETATM    6  C12 UNL     1       6.866  22.190  18.207  1.00  0.00     0.029 C 
HETATM    7  C13 UNL     1       6.226  21.465  17.086  1.00  0.00     0.117 C 
HETATM    8  C14 UNL     1       8.013  24.418  18.409  1.00  0.00     0.020 A 
HETATM    9  C15 UNL     1       6.970  24.470  19.432  1.00  0.00     0.028 A 
ENDROOT
BRANCH   1  10
HETATM   10  C7  UNL     1       5.599  21.506  14.760  1.00  0.00     0.117 C 
BRANCH  10  11
HETATM   11  C6  UNL     1       6.283  21.093  13.473  1.00  0.00     0.030 C 
BRANCH  11  12
HETATM   12  C5  UNL     1       5.963  19.658  13.115  1.00  0.00     0.084 C 
BRANCH  12  13
HETATM   13  S1  UNL     1       6.730  19.127  11.569  1.00  0.00    -0.092 SA
BRANCH  13  14
HETATM   14  C4  UNL     1       8.364  18.446  11.855  1.00  0.00     0.162 A 
HETATM   15  N1  UNL     1       9.481  18.795  11.182  1.00  0.00    -0.315 N 
HETATM   16  C22 UNL     1      10.521  18.088  11.656  1.00  0.00     0.104 A 
HETATM   17  N4  UNL     1      10.046  17.294  12.632  1.00  0.00    -0.286 N 
HETATM   18  N3  UNL     1       8.734  17.511  12.754  1.00  0.00    -0.278 N 
ATOM     19  H4  UNL     1      10.595  16.637  13.186  1.00  0.00     0.188 HD
ATOM     20  H3  UNL     1       8.114  17.046  13.418  1.00  0.00     0.189 HD
BRANCH  15  21
HETATM   21  C3  UNL     1       9.546  19.766  10.131  1.00  0.00     0.132 C 
BRANCH  21  22
HETATM   22  C2  UNL     1       9.943  21.137  10.582  1.00  0.00     0.016 C 
HETATM   23  C1  UNL     1       8.718  22.038  10.680  1.00  0.00     0.006 C 
ENDBRANCH  21  22
ENDBRANCH  15  21
BRANCH  16  24
HETATM   24  C23 UNL     1      11.931  18.173  11.194  1.00  0.00     0.055 A 
HETATM   25  C24 UNL     1      12.897  18.921  12.169  1.00  0.00     0.013 A 
HETATM   26  C25 UNL     1      12.934  17.449  12.038  1.00  0.00     0.013 A 
ENDBRANCH  16  24
ENDBRANCH  13  14
ENDBRANCH  12  13
ENDBRANCH  11  12
ENDBRANCH  10  11
ENDBRANCH   1  10
BRANCH   9  27
HETATM   27  C16 UNL     1       6.326  25.760  19.734  1.00  0.00    -0.053 A 
HETATM   28  C17 UNL     1       6.933  26.962  19.366  1.00  0.00     0.010 A 
HETATM   29  C18 UNL     1       6.327  28.176  19.633  1.00  0.00     0.037 A 
HETATM   30  C19 UNL     1       5.107  28.250  20.269  1.00  0.00     0.065 A 
HETATM   31  C20 UNL     1       4.504  27.065  20.635  1.00  0.00     0.037 A 
HETATM   32  C21 UNL     1       5.110  25.862  20.367  1.00  0.00     0.010 A 
BRANCH  30  33
HETATM   33  O1  UNL     1       4.493  29.479  20.542  1.00  0.00    -0.361 OA
ATOM     34  H1  UNL     1       4.046  29.643  21.364  1.00  0.00     0.217 HD
ENDBRANCH  30  33
ENDBRANCH   9  27
TORSDOF 10
ENDMDL
MODEL 5
REMARK VINA RESULT: -8.220129619      1.281      2.198
REMARK  10 active torsions:
REMARK  status: ('A' for Active; 'I' for Inactive)
REMARK    1  A    between atoms: C2_2  and  C3_3 
REMARK    2  A    between atoms: C3_3  and  N1_4 
REMARK    3  A    between atoms: C4_5  and  S1_6 
REMARK    4  A    between atoms: S1_6  and  C5_7 
REMARK    5  A    between atoms: C5_7  and  C6_8 
REMARK    6  A    between atoms: C6_8  and  C7_9 
REMARK    7  A    between atoms: C7_9  and  N2_10 
REMARK    8  A    between atoms: C15_18  and  C16_19 
REMARK    9  A    between atoms: C19_22  and  O1_23 
REMARK   10  A    between atoms: C22_31  and  C23_32 
ROOT
HETATM    1  N2  UNL     1       6.529  27.290  19.968  1.00  0.00    -0.412 N 
HETATM    2  C8  UNL     1       5.882  26.167  20.522  1.00  0.00     0.117 C 
HETATM    3  C9  UNL     1       5.015  25.369  19.600  1.00  0.00     0.020 C 
HETATM    4  C10 UNL     1       5.809  25.171  18.307  1.00  0.00     0.012 C 
HETATM    5  C11 UNL     1       7.141  24.631  18.689  1.00  0.00    -0.030 A 
HETATM    6  C12 UNL     1       8.157  25.708  18.976  1.00  0.00     0.029 C 
HETATM    7  C13 UNL     1       7.621  27.083  19.093  1.00  0.00     0.117 C 
HETATM    8  C14 UNL     1       7.281  23.439  19.611  1.00  0.00     0.020 A 
HETATM    9  C15 UNL     1       7.592  23.306  18.189  1.00  0.00     0.028 A 
ENDROOT
BRANCH   1  10
HETATM   10  C7  UNL     1       5.772  28.471  19.770  1.00  0.00     0.117 C 
BRANCH  10  11
HETATM   11  C6  UNL     1       6.616  29.666  19.377  1.00  0.00     0.030 C 
BRANCH  11  12
HETATM   12  C5  UNL     1       5.783  30.928  19.301  1.00  0.00     0.084 C 
BRANCH  12  13
HETATM   13  S1  UNL     1       4.198  30.782  20.153  1.00  0.00    -0.092 SA
BRANCH  13  14
HETATM   14  C4  UNL     1       2.859  30.517  18.990  1.00  0.00     0.162 A 
HETATM   15  N1  UNL     1       1.642  30.022  19.303  1.00  0.00    -0.315 N 
HETATM   16  C22 UNL     1       0.892  29.958  18.191  1.00  0.00     0.104 A 
HETATM   17  N4  UNL     1       1.648  30.416  17.177  1.00  0.00    -0.286 N 
HETATM   18  N3  UNL     1       2.845  30.756  17.662  1.00  0.00    -0.278 N 
ATOM     19  H4  UNL     1       1.357  30.492  16.203  1.00  0.00     0.188 HD
ATOM     20  H3  UNL     1       3.621  31.135  17.119  1.00  0.00     0.189 HD
BRANCH  15  21
HETATM   21  C3  UNL     1       1.220  29.631  20.615  1.00  0.00     0.132 C 
BRANCH  21  22
HETATM   22  C2  UNL     1       1.139  28.150  20.822  1.00  0.00     0.016 C 
HETATM   23  C1  UNL     1       2.513  27.589  21.165  1.00  0.00     0.006 C 
ENDBRANCH  21  22
ENDBRANCH  15  21
BRANCH  16  24
HETATM   24  C23 UNL     1      -0.512  29.478  18.098  1.00  0.00     0.055 A 
HETATM   25  C24 UNL     1      -1.556  30.351  18.867  1.00  0.00     0.013 A 
HETATM   26  C25 UNL     1      -1.464  30.393  17.392  1.00  0.00     0.013 A 
ENDBRANCH  16  24
ENDBRANCH  13  14
ENDBRANCH  12  13
ENDBRANCH  11  12
ENDBRANCH  10  11
ENDBRANCH   1  10
BRANCH   9  27
HETATM   27  C16 UNL     1       6.758  22.425  17.353  1.00  0.00    -0.053 A 
HETATM   28  C17 UNL     1       6.561  22.705  16.000  1.00  0.00     0.010 A 
HETATM   29  C18 UNL     1       5.793  21.874  15.205  1.00  0.00     0.037 A 
HETATM   30  C19 UNL     1       5.193  20.742  15.712  1.00  0.00     0.065 A 
HETATM   31  C20 UNL     1       5.384  20.461  17.049  1.00  0.00     0.037 A 
HETATM   32  C21 UNL     1       6.148  21.289  17.833  1.00  0.00     0.010 A 
BRANCH  30  33
HETATM   33  O1  UNL     1       4.413  19.900  14.910  1.00  0.00    -0.361 OA
ATOM     34  H1  UNL     1       3.557  20.164  14.593  1.00  0.00     0.217 HD
ENDBRANCH  30  33
ENDBRANCH   9  27
TORSDOF 10
ENDMDL
