MODEL 1
REMARK VINA RESULT: -7.363414885      0.000      0.000
REMARK  7 active torsions:
REMARK  status: ('A' for Active; 'I' for Inactive)
REMARK    1  A    between atoms: N1_1  and  N2_4 
REMARK    2  A    between atoms: C1_6  and  C2_8 
REMARK    3  A    between atoms: C2_8  and  O1_9 
REMARK    4  A    between atoms: C2_8  and  C4_17 
REMARK    5  A    between atoms: O1_9  and  C3_10 
REMARK       I    between atoms: C3_10  and  N4_12 
REMARK    6  A    between atoms: N4_12  and  N5_14 
REMARK    7  A    between atoms: C6_21  and  C7_22 
ROOT
HETATM    1  C2  UNL     1      -1.144  -2.721   3.988  1.00  0.00     0.258 C 
ENDROOT
BRANCH   1   2
HETATM    2  C1  UNL     1      -1.449  -1.295   3.726  1.00  0.00     0.143 C 
HETATM    3  N2  UNL     1      -0.462  -0.491   3.529  1.00  0.00    -0.295 N 
ATOM      4  H2  UNL     1      -0.676   0.490   3.349  1.00  0.00     0.187 HD
HETATM    5  N3  UNL     1      -2.770  -0.778   3.685  1.00  0.00    -0.083 NA
BRANCH   3   6
HETATM    6  N1  UNL     1       0.866  -0.869   3.544  1.00  0.00    -0.344 N 
ATOM      7  H12 UNL     1       1.117  -1.688   2.989  1.00  0.00     0.176 HD
ATOM      8  H11 UNL     1       1.596  -0.386   4.067  1.00  0.00     0.176 HD
ENDBRANCH   3   6
ENDBRANCH   1   2
BRANCH   1   9
HETATM    9  O1  UNL     1       0.074  -2.750   4.686  1.00  0.00    -0.283 OA
BRANCH   9  10
HETATM   10  C3  UNL     1       0.401  -3.616   5.695  1.00  0.00     0.380 C 
HETATM   11  O2  UNL     1      -0.089  -4.766   5.669  1.00  0.00    -0.237 OA
HETATM   12  N4  UNL     1       1.279  -3.191   6.732  1.00  0.00    -0.252 N 
ATOM     13  H4  UNL     1       1.646  -2.240   6.697  1.00  0.00     0.191 HD
BRANCH  12  14
HETATM   14  N5  UNL     1       1.662  -4.012   7.798  1.00  0.00    -0.341 N 
ATOM     15  H52 UNL     1       2.334  -4.753   7.600  1.00  0.00     0.177 HD
ATOM     16  H51 UNL     1       1.302  -3.902   8.746  1.00  0.00     0.177 HD
ENDBRANCH  12  14
ENDBRANCH   9  10
ENDBRANCH   1   9
BRANCH   1  17
HETATM   17  C4  UNL     1      -1.152  -3.547   2.773  1.00  0.00     0.107 A 
HETATM   18  C5  UNL     1      -2.094  -4.422   2.302  1.00  0.00     0.126 A 
HETATM   19  N6  UNL     1      -1.640  -4.928   1.158  1.00  0.00    -0.340 N 
HETATM   20  C6  UNL     1      -0.434  -4.390   0.898  1.00  0.00     0.214 A 
ATOM     21  H6  UNL     1      -2.125  -5.610   0.575  1.00  0.00     0.167 HD
HETATM   22  O4  UNL     1      -0.173  -3.571   1.883  1.00  0.00    -0.289 OA
BRANCH  20  23
HETATM   23  C7  UNL     1       0.427  -4.658  -0.250  1.00  0.00     0.306 C 
HETATM   24  N7  UNL     1       0.172  -5.762  -1.098  1.00  0.00    -0.054 NA
HETATM   25  O3  UNL     1       1.401  -3.914  -0.497  1.00  0.00    -0.267 OA
ENDBRANCH  20  23
ENDBRANCH   1  17
TORSDOF 7
ENDMDL
MODEL 2
REMARK VINA RESULT: -7.213830280      1.550      3.488
REMARK  7 active torsions:
REMARK  status: ('A' for Active; 'I' for Inactive)
REMARK    1  A    between atoms: N1_1  and  N2_4 
REMARK    2  A    between atoms: C1_6  and  C2_8 
REMARK    3  A    between atoms: C2_8  and  O1_9 
REMARK    4  A    between atoms: C2_8  and  C4_17 
REMARK    5  A    between atoms: O1_9  and  C3_10 
REMARK       I    between atoms: C3_10  and  N4_12 
REMARK    6  A    between atoms: N4_12  and  N5_14 
REMARK    7  A    between atoms: C6_21  and  C7_22 
ROOT
HETATM    1  C2  UNL     1       0.185  -3.564   3.933  1.00  0.00     0.258 C 
ENDROOT
BRANCH   1   2
HETATM    2  C1  UNL     1       0.159  -4.672   4.916  1.00  0.00     0.143 C 
HETATM    3  N2  UNL     1       0.629  -4.447   6.094  1.00  0.00    -0.295 N 
ATOM      4  H2  UNL     1       0.609  -5.213   6.768  1.00  0.00     0.187 HD
HETATM    5  N3  UNL     1      -0.356  -5.961   4.620  1.00  0.00    -0.083 NA
BRANCH   3   6
HETATM    6  N1  UNL     1       1.157  -3.239   6.505  1.00  0.00    -0.344 N 
ATOM      7  H12 UNL     1       0.819  -2.403   6.028  1.00  0.00     0.176 HD
ATOM      8  H11 UNL     1       1.852  -3.137   7.245  1.00  0.00     0.176 HD
ENDBRANCH   3   6
ENDBRANCH   1   2
BRANCH   1   9
HETATM    9  O1  UNL     1      -0.506  -2.491   4.517  1.00  0.00    -0.283 OA
BRANCH   9  10
HETATM   10  C3  UNL     1      -0.780  -1.291   3.918  1.00  0.00     0.380 C 
HETATM   11  O2  UNL     1       0.181  -0.558   3.596  1.00  0.00    -0.237 OA
HETATM   12  N4  UNL     1      -2.132  -0.914   3.680  1.00  0.00    -0.252 N 
ATOM     13  H4  UNL     1      -2.872  -1.556   3.966  1.00  0.00     0.191 HD
BRANCH  12  14
HETATM   14  N5  UNL     1      -2.497   0.293   3.074  1.00  0.00    -0.341 N 
ATOM     15  H52 UNL     1      -2.072   0.512   2.173  1.00  0.00     0.177 HD
ATOM     16  H51 UNL     1      -3.158   0.950   3.489  1.00  0.00     0.177 HD
ENDBRANCH  12  14
ENDBRANCH   9  10
ENDBRANCH   1   9
BRANCH   1  17
HETATM   17  C4  UNL     1      -0.328  -3.951   2.611  1.00  0.00     0.107 A 
HETATM   18  C5  UNL     1      -1.609  -4.187   2.193  1.00  0.00     0.126 A 
HETATM   19  N6  UNL     1      -1.561  -4.510   0.902  1.00  0.00    -0.340 N 
HETATM   20  C6  UNL     1      -0.276  -4.481   0.500  1.00  0.00     0.214 A 
ATOM     21  H6  UNL     1      -2.363  -4.741   0.316  1.00  0.00     0.167 HD
HETATM   22  O4  UNL     1       0.432  -4.145   1.546  1.00  0.00    -0.289 OA
BRANCH  20  23
HETATM   23  C7  UNL     1       0.240  -4.768  -0.835  1.00  0.00     0.306 C 
HETATM   24  N7  UNL     1       0.448  -3.724  -1.766  1.00  0.00    -0.054 NA
HETATM   25  O3  UNL     1       0.504  -5.944  -1.171  1.00  0.00    -0.267 OA
ENDBRANCH  20  23
ENDBRANCH   1  17
TORSDOF 7
ENDMDL
MODEL 3
REMARK VINA RESULT: -7.169852274      1.132      1.637
REMARK  7 active torsions:
REMARK  status: ('A' for Active; 'I' for Inactive)
REMARK    1  A    between atoms: N1_1  and  N2_4 
REMARK    2  A    between atoms: C1_6  and  C2_8 
REMARK    3  A    between atoms: C2_8  and  O1_9 
REMARK    4  A    between atoms: C2_8  and  C4_17 
REMARK    5  A    between atoms: O1_9  and  C3_10 
REMARK       I    between atoms: C3_10  and  N4_12 
REMARK    6  A    between atoms: N4_12  and  N5_14 
REMARK    7  A    between atoms: C6_21  and  C7_22 
ROOT
HETATM    1  C2  UNL     1      -0.393  -3.013   3.924  1.00  0.00     0.258 C 
ENDROOT
BRANCH   1   2
HETATM    2  C1  UNL     1       0.210  -1.674   3.727  1.00  0.00     0.143 C 
HETATM    3  N2  UNL     1      -0.528  -0.640   3.938  1.00  0.00    -0.295 N 
ATOM      4  H2  UNL     1      -0.109   0.280   3.801  1.00  0.00     0.187 HD
HETATM    5  N3  UNL     1       1.556  -1.481   3.318  1.00  0.00    -0.083 NA
BRANCH   3   6
HETATM    6  N1  UNL     1      -1.849  -0.695   4.338  1.00  0.00    -0.344 N 
ATOM      7  H12 UNL     1      -2.308  -1.604   4.286  1.00  0.00     0.176 HD
ATOM      8  H11 UNL     1      -2.382   0.107   4.676  1.00  0.00     0.176 HD
ENDBRANCH   3   6
ENDBRANCH   1   2
BRANCH   1   9
HETATM    9  O1  UNL     1       0.490  -3.735   4.742  1.00  0.00    -0.283 OA
BRANCH   9  10
HETATM   10  C3  UNL     1       0.599  -3.621   6.102  1.00  0.00     0.380 C 
HETATM   11  O2  UNL     1      -0.360  -3.126   6.733  1.00  0.00    -0.237 OA
HETATM   12  N4  UNL     1       1.786  -4.063   6.754  1.00  0.00    -0.252 N 
ATOM     13  H4  UNL     1       2.534  -4.458   6.183  1.00  0.00     0.191 HD
BRANCH  12  14
HETATM   14  N5  UNL     1       1.978  -3.982   8.137  1.00  0.00    -0.341 N 
ATOM     15  H52 UNL     1       1.152  -4.066   8.730  1.00  0.00     0.177 HD
ATOM     16  H51 UNL     1       2.892  -3.844   8.568  1.00  0.00     0.177 HD
ENDBRANCH  12  14
ENDBRANCH   9  10
ENDBRANCH   1   9
BRANCH   1  17
HETATM   17  C4  UNL     1      -0.721  -3.691   2.662  1.00  0.00     0.107 A 
HETATM   18  C5  UNL     1      -1.866  -4.333   2.273  1.00  0.00     0.126 A 
HETATM   19  N6  UNL     1      -1.676  -4.786   1.036  1.00  0.00    -0.340 N 
HETATM   20  C6  UNL     1      -0.437  -4.441   0.638  1.00  0.00     0.214 A 
ATOM     21  H6  UNL     1      -2.355  -5.307   0.482  1.00  0.00     0.167 HD
HETATM   22  O4  UNL     1       0.105  -3.790   1.634  1.00  0.00    -0.289 OA
BRANCH  20  23
HETATM   23  C7  UNL     1       0.193  -4.732  -0.647  1.00  0.00     0.306 C 
HETATM   24  N7  UNL     1       0.555  -3.683  -1.525  1.00  0.00    -0.054 NA
HETATM   25  O3  UNL     1       0.420  -5.914  -0.986  1.00  0.00    -0.267 OA
ENDBRANCH  20  23
ENDBRANCH   1  17
TORSDOF 7
ENDMDL
MODEL 4
REMARK VINA RESULT: -6.700031666      0.704      1.334
REMARK  7 active torsions:
REMARK  status: ('A' for Active; 'I' for Inactive)
REMARK    1  A    between atoms: N1_1  and  N2_4 
REMARK    2  A    between atoms: C1_6  and  C2_8 
REMARK    3  A    between atoms: C2_8  and  O1_9 
REMARK    4  A    between atoms: C2_8  and  C4_17 
REMARK    5  A    between atoms: O1_9  and  C3_10 
REMARK       I    between atoms: C3_10  and  N4_12 
REMARK    6  A    between atoms: N4_12  and  N5_14 
REMARK    7  A    between atoms: C6_21  and  C7_22 
ROOT
HETATM    1  C2  UNL     1      -1.416  -2.601   3.584  1.00  0.00     0.258 C 
ENDROOT
BRANCH   1   2
HETATM    2  C1  UNL     1      -0.381  -1.542   3.571  1.00  0.00     0.143 C 
HETATM    3  N2  UNL     1      -0.766  -0.319   3.450  1.00  0.00    -0.295 N 
ATOM      4  H2  UNL     1      -0.051   0.407   3.441  1.00  0.00     0.187 HD
HETATM    5  N3  UNL     1       1.009  -1.812   3.683  1.00  0.00    -0.083 NA
BRANCH   3   6
HETATM    6  N1  UNL     1      -2.085   0.074   3.332  1.00  0.00    -0.344 N 
ATOM      7  H12 UNL     1      -2.749  -0.634   3.018  1.00  0.00     0.176 HD
ATOM      8  H11 UNL     1      -2.427   1.012   3.538  1.00  0.00     0.176 HD
ENDBRANCH   3   6
ENDBRANCH   1   2
BRANCH   1   9
HETATM    9  O1  UNL     1      -1.372  -3.190   4.858  1.00  0.00    -0.283 OA
BRANCH   9  10
HETATM   10  C3  UNL     1      -0.282  -3.791   5.428  1.00  0.00     0.380 C 
HETATM   11  O2  UNL     1      -0.015  -4.967   5.100  1.00  0.00    -0.237 OA
HETATM   12  N4  UNL     1       0.511  -3.069   6.366  1.00  0.00    -0.252 N 
ATOM     13  H4  UNL     1       0.241  -2.112   6.593  1.00  0.00     0.191 HD
BRANCH  12  14
HETATM   14  N5  UNL     1       1.639  -3.609   6.993  1.00  0.00    -0.341 N 
ATOM     15  H52 UNL     1       1.504  -4.045   7.905  1.00  0.00     0.177 HD
ATOM     16  H51 UNL     1       2.573  -3.583   6.582  1.00  0.00     0.177 HD
ENDBRANCH  12  14
ENDBRANCH   9  10
ENDBRANCH   1   9
BRANCH   1  17
HETATM   17  C4  UNL     1      -1.275  -3.562   2.481  1.00  0.00     0.107 A 
HETATM   18  C5  UNL     1      -2.021  -4.666   2.167  1.00  0.00     0.126 A 
HETATM   19  N6  UNL     1      -1.495  -5.212   1.073  1.00  0.00    -0.340 N 
HETATM   20  C6  UNL     1      -0.435  -4.475   0.692  1.00  0.00     0.214 A 
ATOM     21  H6  UNL     1      -1.838  -6.049   0.602  1.00  0.00     0.167 HD
HETATM   22  O4  UNL     1      -0.332  -3.499   1.556  1.00  0.00    -0.289 OA
BRANCH  20  23
HETATM   23  C7  UNL     1       0.439  -4.708  -0.454  1.00  0.00     0.306 C 
HETATM   24  N7  UNL     1       0.170  -5.759  -1.362  1.00  0.00    -0.054 NA
HETATM   25  O3  UNL     1       1.436  -3.978  -0.646  1.00  0.00    -0.267 OA
ENDBRANCH  20  23
ENDBRANCH   1  17
TORSDOF 7
ENDMDL
MODEL 5
REMARK VINA RESULT: -6.401514344      1.323      1.342
REMARK  7 active torsions:
REMARK  status: ('A' for Active; 'I' for Inactive)
REMARK    1  A    between atoms: N1_1  and  N2_4 
REMARK    2  A    between atoms: C1_6  and  C2_8 
REMARK    3  A    between atoms: C2_8  and  O1_9 
REMARK    4  A    between atoms: C2_8  and  C4_17 
REMARK    5  A    between atoms: O1_9  and  C3_10 
REMARK       I    between atoms: C3_10  and  N4_12 
REMARK    6  A    between atoms: N4_12  and  N5_14 
REMARK    7  A    between atoms: C6_21  and  C7_22 
ROOT
HETATM    1  C2  UNL     1      -1.368  -2.709   3.938  1.00  0.00     0.258 C 
ENDROOT
BRANCH   1   2
HETATM    2  C1  UNL     1      -1.368  -1.251   3.682  1.00  0.00     0.143 C 
HETATM    3  N2  UNL     1      -0.232  -0.650   3.601  1.00  0.00    -0.295 N 
ATOM      4  H2  UNL     1      -0.236   0.355   3.425  1.00  0.00     0.187 HD
HETATM    5  N3  UNL     1      -2.556  -0.489   3.524  1.00  0.00    -0.083 NA
BRANCH   3   6
HETATM    6  N1  UNL     1       0.992  -1.276   3.737  1.00  0.00    -0.344 N 
ATOM      7  H12 UNL     1       1.451  -1.579   2.877  1.00  0.00     0.176 HD
ATOM      8  H11 UNL     1       1.454  -1.449   4.629  1.00  0.00     0.176 HD
ENDBRANCH   3   6
ENDBRANCH   1   2
BRANCH   1   9
HETATM    9  O1  UNL     1      -0.318  -2.961   4.836  1.00  0.00    -0.283 OA
BRANCH   9  10
HETATM   10  C3  UNL     1       0.065  -4.191   5.299  1.00  0.00     0.380 C 
HETATM   11  O2  UNL     1       0.783  -4.241   6.321  1.00  0.00    -0.237 OA
HETATM   12  N4  UNL     1      -0.360  -5.365   4.614  1.00  0.00    -0.252 N 
ATOM     13  H4  UNL     1      -0.945  -5.258   3.786  1.00  0.00     0.191 HD
BRANCH  12  14
HETATM   14  N5  UNL     1      -0.013  -6.658   5.021  1.00  0.00    -0.341 N 
ATOM     15  H52 UNL     1      -0.269  -7.428   4.403  1.00  0.00     0.177 HD
ATOM     16  H51 UNL     1       0.475  -6.857   5.895  1.00  0.00     0.177 HD
ENDBRANCH  12  14
ENDBRANCH   9  10
ENDBRANCH   1   9
BRANCH   1  17
HETATM   17  C4  UNL     1      -1.303  -3.513   2.709  1.00  0.00     0.107 A 
HETATM   18  C5  UNL     1      -2.236  -4.337   2.139  1.00  0.00     0.126 A 
HETATM   19  N6  UNL     1      -1.705  -4.842   1.028  1.00  0.00    -0.340 N 
HETATM   20  C6  UNL     1      -0.458  -4.352   0.887  1.00  0.00     0.214 A 
ATOM     21  H6  UNL     1      -2.164  -5.491   0.390  1.00  0.00     0.167 HD
HETATM   22  O4  UNL     1      -0.252  -3.563   1.908  1.00  0.00    -0.289 OA
BRANCH  20  23
HETATM   23  C7  UNL     1       0.489  -4.638  -0.187  1.00  0.00     0.306 C 
HETATM   24  N7  UNL     1       0.264  -5.714  -1.078  1.00  0.00    -0.054 NA
HETATM   25  O3  UNL     1       1.511  -3.932  -0.332  1.00  0.00    -0.267 OA
ENDBRANCH  20  23
ENDBRANCH   1  17
TORSDOF 7
ENDMDL
