MODEL 1
REMARK VINA RESULT: -5.798592778      0.000      0.000
REMARK  4 active torsions:
REMARK  status: ('A' for Active; 'I' for Inactive)
REMARK    1  A    between atoms: C4_8  and  C5_9 
REMARK    2  A    between atoms: C5_9  and  C6_10 
REMARK    3  A    between atoms: C6_10  and  C7_11 
REMARK    4  A    between atoms: C7_11  and  N3_12 
ROOT
HETATM    1  N1  UNL     1     -11.721  56.425  50.377  1.00  0.00    -0.188 NA
HETATM    2  C1  UNL     1     -12.872  56.261  50.341  1.00  0.00     0.138 C 
HETATM    3  C2  UNL     1     -14.288  56.056  50.272  1.00  0.00     0.209 C 
HETATM    4  N2  UNL     1     -14.714  54.881  50.630  1.00  0.00    -0.301 N 
ATOM      5  H2  UNL     1     -13.924  54.299  50.908  1.00  0.00     0.171 HD
HETATM    6  C3  UNL     1     -15.918  54.144  50.760  1.00  0.00     0.246 C 
HETATM    7  O1  UNL     1     -15.733  52.933  51.107  1.00  0.00    -0.271 OA
HETATM    8  C4  UNL     1     -17.340  54.509  50.570  1.00  0.00     0.177 C 
HETATM    9  N6  UNL     1     -17.679  55.844  50.921  1.00  0.00    -0.346 N 
ATOM     10  H6  UNL     1     -18.409  55.853  51.634  1.00  0.00     0.163 HD
HETATM   11  C9  UNL     1     -17.308  57.154  50.577  1.00  0.00     0.252 C 
HETATM   12  O2  UNL     1     -18.299  57.942  50.794  1.00  0.00    -0.271 OA
HETATM   13  C10 UNL     1     -16.198  57.939  50.063  1.00  0.00     0.295 C 
HETATM   14  C11 UNL     1     -16.123  58.207  48.612  1.00  0.00     0.270 C 
HETATM   15  O3  UNL     1     -16.835  58.418  47.607  1.00  0.00    -0.269 OA
HETATM   16  N7  UNL     1     -14.710  58.129  48.778  1.00  0.00    -0.262 N 
ATOM     17  H7  UNL     1     -13.882  58.547  48.354  1.00  0.00     0.190 HD
HETATM   18  N8  UNL     1     -14.996  57.200  49.809  1.00  0.00    -0.241 N 
ENDROOT
BRANCH   8  19
HETATM   19  C5  UNL     1     -18.263  53.511  51.249  1.00  0.00     0.036 C 
BRANCH  19  20
HETATM   20  C6  UNL     1     -19.596  53.363  50.602  1.00  0.00     0.022 C 
BRANCH  20  21
HETATM   21  C7  UNL     1     -19.499  54.085  49.249  1.00  0.00     0.122 C 
BRANCH  21  22
HETATM   22  N3  UNL     1     -20.592  55.059  49.147  1.00  0.00    -0.367 N 
HETATM   23  C8  UNL     1     -20.407  56.173  48.548  1.00  0.00     0.196 C 
HETATM   24  N4  UNL     1     -19.147  56.467  47.981  1.00  0.00    -0.067 NA
HETATM   25  N5  UNL     1     -21.465  57.102  48.455  1.00  0.00    -0.067 NA
ATOM     26  H3  UNL     1     -21.502  54.846  49.555  1.00  0.00     0.161 HD
ENDBRANCH  21  22
ENDBRANCH  20  21
ENDBRANCH  19  20
ENDBRANCH   8  19
TORSDOF 4
ENDMDL
MODEL 2
REMARK VINA RESULT: -5.091370409      2.266      4.014
REMARK  4 active torsions:
REMARK  status: ('A' for Active; 'I' for Inactive)
REMARK    1  A    between atoms: C4_8  and  C5_9 
REMARK    2  A    between atoms: C5_9  and  C6_10 
REMARK    3  A    between atoms: C6_10  and  C7_11 
REMARK    4  A    between atoms: C7_11  and  N3_12 
ROOT
HETATM    1  N1  UNL     1     -15.796  61.128  46.502  1.00  0.00    -0.188 NA
HETATM    2  C1  UNL     1     -15.904  60.209  47.205  1.00  0.00     0.138 C 
HETATM    3  C2  UNL     1     -16.043  59.062  48.052  1.00  0.00     0.209 C 
HETATM    4  N2  UNL     1     -14.937  58.496  48.435  1.00  0.00    -0.301 N 
ATOM      5  H2  UNL     1     -14.140  58.999  48.045  1.00  0.00     0.171 HD
HETATM    6  C3  UNL     1     -14.477  57.407  49.219  1.00  0.00     0.246 C 
HETATM    7  O1  UNL     1     -13.212  57.265  49.189  1.00  0.00    -0.271 OA
HETATM    8  C4  UNL     1     -15.179  56.411  50.057  1.00  0.00     0.177 C 
HETATM    9  N6  UNL     1     -16.341  56.885  50.724  1.00  0.00    -0.346 N 
ATOM     10  H6  UNL     1     -16.251  56.763  51.733  1.00  0.00     0.163 HD
HETATM   11  C9  UNL     1     -17.576  57.472  50.406  1.00  0.00     0.252 C 
HETATM   12  O2  UNL     1     -18.428  57.184  51.324  1.00  0.00    -0.271 OA
HETATM   13  C10 UNL     1     -18.237  58.293  49.405  1.00  0.00     0.295 C 
HETATM   14  C11 UNL     1     -18.982  57.631  48.314  1.00  0.00     0.270 C 
HETATM   15  O3  UNL     1     -19.682  56.628  48.062  1.00  0.00    -0.269 OA
HETATM   16  N7  UNL     1     -18.551  58.720  47.502  1.00  0.00    -0.262 N 
ATOM     17  H7  UNL     1     -18.905  59.244  46.703  1.00  0.00     0.190 HD
HETATM   18  N8  UNL     1     -17.400  58.732  48.328  1.00  0.00    -0.241 N 
ENDROOT
BRANCH   8  19
HETATM   19  C5  UNL     1     -14.226  55.735  51.030  1.00  0.00     0.036 C 
BRANCH  19  20
HETATM   20  C6  UNL     1     -14.691  54.413  51.533  1.00  0.00     0.022 C 
BRANCH  20  21
HETATM   21  C7  UNL     1     -15.459  53.758  50.373  1.00  0.00     0.122 C 
BRANCH  21  22
HETATM   22  N3  UNL     1     -16.885  53.708  50.712  1.00  0.00    -0.367 N 
HETATM   23  C8  UNL     1     -17.767  53.988  49.830  1.00  0.00     0.196 C 
HETATM   24  N4  UNL     1     -17.366  54.346  48.523  1.00  0.00    -0.067 NA
HETATM   25  N5  UNL     1     -19.136  53.936  50.167  1.00  0.00    -0.067 NA
ATOM     26  H3  UNL     1     -17.175  53.448  51.655  1.00  0.00     0.161 HD
ENDBRANCH  21  22
ENDBRANCH  20  21
ENDBRANCH  19  20
ENDBRANCH   8  19
TORSDOF 4
ENDMDL
MODEL 3
REMARK VINA RESULT: -4.859410308      1.743      3.879
REMARK  4 active torsions:
REMARK  status: ('A' for Active; 'I' for Inactive)
REMARK    1  A    between atoms: C4_8  and  C5_9 
REMARK    2  A    between atoms: C5_9  and  C6_10 
REMARK    3  A    between atoms: C6_10  and  C7_11 
REMARK    4  A    between atoms: C7_11  and  N3_12 
ROOT
HETATM    1  N1  UNL     1     -11.520  56.039  51.051  1.00  0.00    -0.188 NA
HETATM    2  C1  UNL     1     -12.629  56.064  50.703  1.00  0.00     0.138 C 
HETATM    3  C2  UNL     1     -14.003  56.099  50.300  1.00  0.00     0.209 C 
HETATM    4  N2  UNL     1     -14.412  57.206  49.755  1.00  0.00    -0.301 N 
ATOM      5  H2  UNL     1     -13.642  57.874  49.714  1.00  0.00     0.171 HD
HETATM    6  C3  UNL     1     -15.579  57.789  49.201  1.00  0.00     0.246 C 
HETATM    7  O1  UNL     1     -15.422  59.007  48.862  1.00  0.00    -0.271 OA
HETATM    8  C4  UNL     1     -16.937  57.259  48.943  1.00  0.00     0.177 C 
HETATM    9  N6  UNL     1     -16.997  55.887  48.578  1.00  0.00    -0.346 N 
ATOM     10  H6  UNL     1     -17.447  55.775  47.670  1.00  0.00     0.163 HD
HETATM   11  C9  UNL     1     -16.619  54.639  49.099  1.00  0.00     0.252 C 
HETATM   12  O2  UNL     1     -17.394  53.732  48.620  1.00  0.00    -0.271 OA
HETATM   13  C10 UNL     1     -15.662  54.003  49.989  1.00  0.00     0.295 C 
HETATM   14  C11 UNL     1     -16.038  53.775  51.399  1.00  0.00     0.270 C 
HETATM   15  O3  UNL     1     -17.013  53.499  52.131  1.00  0.00    -0.269 OA
HETATM   16  N7  UNL     1     -14.666  54.019  51.695  1.00  0.00    -0.262 N 
ATOM     17  H7  UNL     1     -13.982  53.713  52.387  1.00  0.00     0.190 HD
HETATM   18  N8  UNL     1     -14.697  54.887  50.575  1.00  0.00    -0.241 N 
ENDROOT
BRANCH   8  19
HETATM   19  C5  UNL     1     -17.688  58.125  47.944  1.00  0.00     0.036 C 
BRANCH  19  20
HETATM   20  C6  UNL     1     -18.760  58.968  48.542  1.00  0.00     0.022 C 
BRANCH  20  21
HETATM   21  C7  UNL     1     -19.443  58.101  49.612  1.00  0.00     0.122 C 
BRANCH  21  22
HETATM   22  N3  UNL     1     -20.624  57.458  49.024  1.00  0.00    -0.367 N 
HETATM   23  C8  UNL     1     -20.739  56.185  49.040  1.00  0.00     0.196 C 
HETATM   24  N4  UNL     1     -19.725  55.394  49.626  1.00  0.00    -0.067 NA
HETATM   25  N5  UNL     1     -21.879  55.578  48.473  1.00  0.00    -0.067 NA
ATOM     26  H3  UNL     1     -21.356  58.030  48.603  1.00  0.00     0.161 HD
ENDBRANCH  21  22
ENDBRANCH  20  21
ENDBRANCH  19  20
ENDBRANCH   8  19
TORSDOF 4
ENDMDL
MODEL 4
REMARK VINA RESULT: -4.792532565      2.319      4.777
REMARK  4 active torsions:
REMARK  status: ('A' for Active; 'I' for Inactive)
REMARK    1  A    between atoms: C4_8  and  C5_9 
REMARK    2  A    between atoms: C5_9  and  C6_10 
REMARK    3  A    between atoms: C6_10  and  C7_11 
REMARK    4  A    between atoms: C7_11  and  N3_12 
ROOT
HETATM    1  N1  UNL     1     -17.361  60.853  46.598  1.00  0.00    -0.188 NA
HETATM    2  C1  UNL     1     -17.103  59.998  47.343  1.00  0.00     0.138 C 
HETATM    3  C2  UNL     1     -16.792  58.928  48.243  1.00  0.00     0.209 C 
HETATM    4  N2  UNL     1     -15.534  58.621  48.354  1.00  0.00    -0.301 N 
ATOM      5  H2  UNL     1     -14.977  59.228  47.753  1.00  0.00     0.171 HD
HETATM    6  C3  UNL     1     -14.682  57.716  49.037  1.00  0.00     0.246 C 
HETATM    7  O1  UNL     1     -13.461  57.815  48.691  1.00  0.00    -0.271 OA
HETATM    8  C4  UNL     1     -14.938  56.685  50.068  1.00  0.00     0.177 C 
HETATM    9  N6  UNL     1     -15.976  56.989  50.990  1.00  0.00    -0.346 N 
ATOM     10  H6  UNL     1     -15.622  56.980  51.946  1.00  0.00     0.163 HD
HETATM   11  C9  UNL     1     -17.346  57.299  50.974  1.00  0.00     0.252 C 
HETATM   12  O2  UNL     1     -17.871  56.939  52.091  1.00  0.00    -0.271 OA
HETATM   13  C10 UNL     1     -18.385  57.884  50.144  1.00  0.00     0.295 C 
HETATM   14  C11 UNL     1     -19.218  56.995  49.307  1.00  0.00     0.270 C 
HETATM   15  O3  UNL     1     -19.735  55.858  49.284  1.00  0.00    -0.269 OA
HETATM   16  N7  UNL     1     -19.232  58.067  48.368  1.00  0.00    -0.262 N 
ATOM     17  H7  UNL     1     -19.870  58.438  47.665  1.00  0.00     0.190 HD
HETATM   18  N8  UNL     1     -17.943  58.374  48.871  1.00  0.00    -0.241 N 
ENDROOT
BRANCH   8  19
HETATM   19  C5  UNL     1     -13.659  56.296  50.791  1.00  0.00     0.036 C 
BRANCH  19  20
HETATM   20  C6  UNL     1     -13.603  54.872  51.223  1.00  0.00     0.022 C 
BRANCH  20  21
HETATM   21  C7  UNL     1     -14.848  54.194  50.630  1.00  0.00     0.122 C 
BRANCH  21  22
HETATM   22  N3  UNL     1     -15.600  53.544  51.710  1.00  0.00    -0.367 N 
HETATM   23  C8  UNL     1     -16.871  53.429  51.632  1.00  0.00     0.196 C 
HETATM   24  N4  UNL     1     -17.554  53.928  50.500  1.00  0.00    -0.067 NA
HETATM   25  N5  UNL     1     -17.583  52.803  52.676  1.00  0.00    -0.067 NA
ATOM     26  H3  UNL     1     -15.106  53.183  52.526  1.00  0.00     0.161 HD
ENDBRANCH  21  22
ENDBRANCH  20  21
ENDBRANCH  19  20
ENDBRANCH   8  19
TORSDOF 4
ENDMDL
MODEL 5
REMARK VINA RESULT: -4.555979552      2.431      4.598
REMARK  4 active torsions:
REMARK  status: ('A' for Active; 'I' for Inactive)
REMARK    1  A    between atoms: C4_8  and  C5_9 
REMARK    2  A    between atoms: C5_9  and  C6_10 
REMARK    3  A    between atoms: C6_10  and  C7_11 
REMARK    4  A    between atoms: C7_11  and  N3_12 
ROOT
HETATM    1  N1  UNL     1     -17.249  51.816  53.326  1.00  0.00    -0.188 NA
HETATM    2  C1  UNL     1     -17.267  52.666  52.533  1.00  0.00     0.138 C 
HETATM    3  C2  UNL     1     -17.276  53.698  51.539  1.00  0.00     0.209 C 
HETATM    4  N2  UNL     1     -18.389  53.852  50.885  1.00  0.00    -0.301 N 
ATOM      5  H2  UNL     1     -19.080  53.180  51.218  1.00  0.00     0.171 HD
HETATM    6  C3  UNL     1     -18.956  54.650  49.859  1.00  0.00     0.246 C 
HETATM    7  O1  UNL     1     -20.138  54.299  49.543  1.00  0.00    -0.271 OA
HETATM    8  C4  UNL     1     -18.441  55.804  49.089  1.00  0.00     0.177 C 
HETATM    9  N6  UNL     1     -17.574  56.675  49.802  1.00  0.00    -0.346 N 
ATOM     10  H6  UNL     1     -17.943  57.626  49.806  1.00  0.00     0.163 HD
HETATM   11  C9  UNL     1     -16.359  56.614  50.504  1.00  0.00     0.252 C 
HETATM   12  O2  UNL     1     -15.790  57.766  50.460  1.00  0.00    -0.271 OA
HETATM   13  C10 UNL     1     -15.513  55.711  51.266  1.00  0.00     0.295 C 
HETATM   14  C11 UNL     1     -14.424  54.993  50.571  1.00  0.00     0.270 C 
HETATM   15  O3  UNL     1     -13.591  55.115  49.648  1.00  0.00    -0.269 OA
HETATM   16  N7  UNL     1     -14.697  53.924  51.472  1.00  0.00    -0.262 N 
ATOM     17  H7  UNL     1     -14.174  53.176  51.928  1.00  0.00     0.190 HD
HETATM   18  N8  UNL     1     -16.036  54.388  51.438  1.00  0.00    -0.241 N 
ENDROOT
BRANCH   8  19
HETATM   19  C5  UNL     1     -19.570  56.576  48.427  1.00  0.00     0.036 C 
BRANCH  19  20
HETATM   20  C6  UNL     1     -19.304  58.030  48.251  1.00  0.00     0.022 C 
BRANCH  20  21
HETATM   21  C7  UNL     1     -17.880  58.141  47.683  1.00  0.00     0.122 C 
BRANCH  21  22
HETATM   22  N3  UNL     1     -17.623  59.534  47.303  1.00  0.00    -0.367 N 
HETATM   23  C8  UNL     1     -16.422  59.951  47.156  1.00  0.00     0.196 C 
HETATM   24  N4  UNL     1     -15.340  59.066  47.359  1.00  0.00    -0.067 NA
HETATM   25  N5  UNL     1     -16.187  61.293  46.790  1.00  0.00    -0.067 NA
ATOM     26  H3  UNL     1     -18.404  60.173  47.156  1.00  0.00     0.161 HD
ENDBRANCH  21  22
ENDBRANCH  20  21
ENDBRANCH  19  20
ENDBRANCH   8  19
TORSDOF 4
ENDMDL
