MODEL 1
REMARK VINA RESULT: -7.069765545      0.000      0.000
REMARK  6 active torsions:
REMARK  status: ('A' for Active; 'I' for Inactive)
REMARK    1  A    between atoms: C2_2  and  C3_3 
REMARK    2  A    between atoms: C3_3  and  N1_4 
REMARK    3  A    between atoms: C4_5  and  N2_6 
REMARK    4  A    between atoms: C8_14  and  C9_15 
REMARK    5  A    between atoms: C9_15  and  N4_16 
REMARK    6  A    between atoms: N4_16  and  N5_18 
ROOT
HETATM    1  N1  UNL     1       0.642  43.531   2.437  1.00  0.00    -0.144 N 
HETATM    2  C4  UNL     1       0.375  44.671   3.045  1.00  0.00     0.681 A 
HETATM    3  N3  UNL     1       1.068  44.992   4.186  1.00  0.00    -0.191 N 
ATOM      4  H3  UNL     1       0.852  45.877   4.647  1.00  0.00     0.184 HD
HETATM    5  C5  UNL     1       2.007  44.213   4.729  1.00  0.00     0.065 A 
HETATM    6  C6  UNL     1       2.694  44.551   5.880  1.00  0.00     0.032 A 
HETATM    7  C7  UNL     1       3.662  43.743   6.433  1.00  0.00     0.015 A 
HETATM    8  C8  UNL     1       3.946  42.550   5.803  1.00  0.00    -0.018 A 
HETATM    9  C10 UNL     1       3.257  42.200   4.642  1.00  0.00     0.032 A 
HETATM   10  C11 UNL     1       2.299  43.014   4.104  1.00  0.00     0.061 A 
HETATM   11  C12 UNL     1       1.592  42.715   2.962  1.00  0.00     0.274 A 
HETATM   12  O1  UNL     1       1.827  41.635   2.364  1.00  0.00    -0.266 OA
ENDROOT
BRANCH   8  13
HETATM   13  C9  UNL     1       4.963  41.689   6.377  1.00  0.00     0.120 C 
BRANCH  13  14
HETATM   14  N4  UNL     1       4.944  40.416   6.213  1.00  0.00    -0.297 N 
ATOM     15  H4  UNL     1       4.166  40.000   5.702  1.00  0.00     0.187 HD
BRANCH  14  16
HETATM   16  N5  UNL     1       5.946  39.578   6.705  1.00  0.00    -0.250 N 
HETATM   17  N6  UNL     1       6.184  38.465   6.109  1.00  0.00    -0.331 N 
ATOM     18  H62 UNL     1       5.637  38.212   5.287  1.00  0.00     0.178 HD
ATOM     19  H61 UNL     1       6.916  37.853   6.469  1.00  0.00     0.178 HD
ATOM     20  H5  UNL     1       6.484  39.845   7.529  1.00  0.00     0.207 HD
ENDBRANCH  14  16
ENDBRANCH  13  14
ENDBRANCH   8  13
BRANCH   1  21
HETATM   21  C3  UNL     1      -0.075  43.150   1.235  1.00  0.00     0.177 C 
BRANCH  21  22
HETATM   22  C2  UNL     1      -0.146  44.205   0.214  1.00  0.00    -0.016 C 
HETATM   23  C1  UNL     1      -1.114  44.250  -0.677  1.00  0.00     0.008 C 
ENDBRANCH  21  22
ENDBRANCH   1  21
BRANCH   2  24
HETATM   24  N2  UNL     1      -0.495  45.557   2.657  1.00  0.00    -0.234 N 
ATOM     25  H22 UNL     1      -0.248  46.067   1.809  1.00  0.00     0.174 HD
ATOM     26  H21 UNL     1      -1.381  45.767   3.117  1.00  0.00     0.174 HD
ENDBRANCH   2  24
TORSDOF 6
ENDMDL
MODEL 2
REMARK VINA RESULT: -6.755161621      0.979      1.032
REMARK  6 active torsions:
REMARK  status: ('A' for Active; 'I' for Inactive)
REMARK    1  A    between atoms: C2_2  and  C3_3 
REMARK    2  A    between atoms: C3_3  and  N1_4 
REMARK    3  A    between atoms: C4_5  and  N2_6 
REMARK    4  A    between atoms: C8_14  and  C9_15 
REMARK    5  A    between atoms: C9_15  and  N4_16 
REMARK    6  A    between atoms: N4_16  and  N5_18 
ROOT
HETATM    1  N1  UNL     1       1.274  44.778   2.232  1.00  0.00    -0.144 N 
HETATM    2  C4  UNL     1       1.333  45.792   3.073  1.00  0.00     0.681 A 
HETATM    3  N3  UNL     1       1.966  45.617   4.280  1.00  0.00    -0.191 N 
ATOM      4  H3  UNL     1       2.005  46.409   4.922  1.00  0.00     0.184 HD
HETATM    5  C5  UNL     1       2.534  44.469   4.661  1.00  0.00     0.065 A 
HETATM    6  C6  UNL     1       3.167  44.311   5.879  1.00  0.00     0.032 A 
HETATM    7  C7  UNL     1       3.750  43.124   6.265  1.00  0.00     0.015 A 
HETATM    8  C8  UNL     1       3.693  42.061   5.390  1.00  0.00    -0.018 A 
HETATM    9  C10 UNL     1       3.056  42.211   4.158  1.00  0.00     0.032 A 
HETATM   10  C11 UNL     1       2.482  43.396   3.789  1.00  0.00     0.061 A 
HETATM   11  C12 UNL     1       1.842  43.597   2.587  1.00  0.00     0.274 A 
HETATM   12  O1  UNL     1       1.772  42.647   1.768  1.00  0.00    -0.266 OA
ENDROOT
BRANCH   8  13
HETATM   13  C9  UNL     1       4.304  40.805   5.786  1.00  0.00     0.120 C 
BRANCH  13  14
HETATM   14  N4  UNL     1       5.235  40.753   6.668  1.00  0.00    -0.297 N 
ATOM     15  H4  UNL     1       5.246  41.453   7.410  1.00  0.00     0.187 HD
BRANCH  14  16
HETATM   16  N5  UNL     1       6.234  39.778   6.653  1.00  0.00    -0.250 N 
HETATM   17  N6  UNL     1       5.977  38.622   6.158  1.00  0.00    -0.331 N 
ATOM     18  H62 UNL     1       5.048  38.434   5.782  1.00  0.00     0.178 HD
ATOM     19  H61 UNL     1       6.708  37.910   6.147  1.00  0.00     0.178 HD
ATOM     20  H5  UNL     1       7.159  39.982   7.032  1.00  0.00     0.207 HD
ENDBRANCH  14  16
ENDBRANCH  13  14
ENDBRANCH   8  13
BRANCH   1  21
HETATM   21  C3  UNL     1       0.605  44.918   0.953  1.00  0.00     0.177 C 
BRANCH  21  22
HETATM   22  C2  UNL     1      -0.493  43.965   0.738  1.00  0.00    -0.016 C 
HETATM   23  C1  UNL     1      -1.042  43.788  -0.444  1.00  0.00     0.008 C 
ENDBRANCH  21  22
ENDBRANCH   1  21
BRANCH   2  24
HETATM   24  N2  UNL     1       0.849  46.982   2.870  1.00  0.00    -0.234 N 
ATOM     25  H22 UNL     1       1.006  47.651   3.624  1.00  0.00     0.174 HD
ATOM     26  H21 UNL     1       0.348  47.289   2.036  1.00  0.00     0.174 HD
ENDBRANCH   2  24
TORSDOF 6
ENDMDL
MODEL 3
REMARK VINA RESULT: -6.688258717      1.789      2.839
REMARK  6 active torsions:
REMARK  status: ('A' for Active; 'I' for Inactive)
REMARK    1  A    between atoms: C2_2  and  C3_3 
REMARK    2  A    between atoms: C3_3  and  N1_4 
REMARK    3  A    between atoms: C4_5  and  N2_6 
REMARK    4  A    between atoms: C8_14  and  C9_15 
REMARK    5  A    between atoms: C9_15  and  N4_16 
REMARK    6  A    between atoms: N4_16  and  N5_18 
ROOT
HETATM    1  N1  UNL     1       0.725  44.703   2.916  1.00  0.00    -0.144 N 
HETATM    2  C4  UNL     1       0.410  43.762   2.046  1.00  0.00     0.681 A 
HETATM    3  N3  UNL     1       0.952  42.510   2.197  1.00  0.00    -0.191 N 
ATOM      4  H3  UNL     1       0.701  41.791   1.518  1.00  0.00     0.184 HD
HETATM    5  C5  UNL     1       1.791  42.178   3.183  1.00  0.00     0.065 A 
HETATM    6  C6  UNL     1       2.328  40.912   3.320  1.00  0.00     0.032 A 
HETATM    7  C7  UNL     1       3.192  40.577   4.339  1.00  0.00     0.015 A 
HETATM    8  C8  UNL     1       3.525  41.554   5.252  1.00  0.00    -0.018 A 
HETATM    9  C10 UNL     1       2.988  42.835   5.122  1.00  0.00     0.032 A 
HETATM   10  C11 UNL     1       2.131  43.152   4.104  1.00  0.00     0.061 A 
HETATM   11  C12 UNL     1       1.574  44.399   3.931  1.00  0.00     0.274 A 
HETATM   12  O1  UNL     1       1.859  45.312   4.746  1.00  0.00    -0.266 OA
ENDROOT
BRANCH   8  13
HETATM   13  C9  UNL     1       4.434  41.213   6.330  1.00  0.00     0.120 C 
BRANCH  13  14
HETATM   14  N4  UNL     1       5.173  40.164   6.287  1.00  0.00    -0.297 N 
ATOM     15  H4  UNL     1       4.890  39.392   5.684  1.00  0.00     0.187 HD
BRANCH  14  16
HETATM   16  N5  UNL     1       6.347  40.038   7.031  1.00  0.00    -0.250 N 
HETATM   17  N6  UNL     1       7.286  39.276   6.599  1.00  0.00    -0.331 N 
ATOM     18  H62 UNL     1       7.160  38.776   5.720  1.00  0.00     0.178 HD
ATOM     19  H61 UNL     1       8.145  39.184   7.143  1.00  0.00     0.178 HD
ATOM     20  H5  UNL     1       6.459  40.544   7.909  1.00  0.00     0.207 HD
ENDBRANCH  14  16
ENDBRANCH  13  14
ENDBRANCH   8  13
BRANCH   1  21
HETATM   21  C3  UNL     1       0.183  46.042   2.784  1.00  0.00     0.177 C 
BRANCH  21  22
HETATM   22  C2  UNL     1       1.200  47.099   2.704  1.00  0.00    -0.016 C 
HETATM   23  C1  UNL     1       1.116  48.203   3.416  1.00  0.00     0.008 C 
ENDBRANCH  21  22
ENDBRANCH   1  21
BRANCH   2  24
HETATM   24  N2  UNL     1      -0.395  43.898   1.034  1.00  0.00    -0.234 N 
ATOM     25  H22 UNL     1       0.041  43.811   0.116  1.00  0.00     0.174 HD
ATOM     26  H21 UNL     1      -1.399  44.071   1.086  1.00  0.00     0.174 HD
ENDBRANCH   2  24
TORSDOF 6
ENDMDL
MODEL 4
REMARK VINA RESULT: -6.262939919      1.778      6.450
REMARK  6 active torsions:
REMARK  status: ('A' for Active; 'I' for Inactive)
REMARK    1  A    between atoms: C2_2  and  C3_3 
REMARK    2  A    between atoms: C3_3  and  N1_4 
REMARK    3  A    between atoms: C4_5  and  N2_6 
REMARK    4  A    between atoms: C8_14  and  C9_15 
REMARK    5  A    between atoms: C9_15  and  N4_16 
REMARK    6  A    between atoms: N4_16  and  N5_18 
ROOT
HETATM    1  N1  UNL     1       3.892  43.007   5.575  1.00  0.00    -0.144 N 
HETATM    2  C4  UNL     1       4.084  41.704   5.661  1.00  0.00     0.681 A 
HETATM    3  N3  UNL     1       3.424  40.878   4.785  1.00  0.00    -0.191 N 
ATOM      4  H3  UNL     1       3.580  39.872   4.862  1.00  0.00     0.184 HD
HETATM    5  C5  UNL     1       2.588  41.314   3.839  1.00  0.00     0.065 A 
HETATM    6  C6  UNL     1       1.931  40.467   2.966  1.00  0.00     0.032 A 
HETATM    7  C7  UNL     1       1.071  40.924   1.992  1.00  0.00     0.015 A 
HETATM    8  C8  UNL     1       0.867  42.284   1.896  1.00  0.00    -0.018 A 
HETATM    9  C10 UNL     1       1.525  43.146   2.773  1.00  0.00     0.032 A 
HETATM   10  C11 UNL     1       2.377  42.677   3.735  1.00  0.00     0.061 A 
HETATM   11  C12 UNL     1       3.050  43.484   4.624  1.00  0.00     0.274 A 
HETATM   12  O1  UNL     1       2.884  44.729   4.563  1.00  0.00    -0.266 OA
ENDROOT
BRANCH   8  13
HETATM   13  C9  UNL     1      -0.038  42.778   0.875  1.00  0.00     0.120 C 
BRANCH  13  14
HETATM   14  N4  UNL     1      -0.933  43.660   1.132  1.00  0.00    -0.297 N 
ATOM     15  H4  UNL     1      -1.909  43.438   0.937  1.00  0.00     0.187 HD
BRANCH  14  16
HETATM   16  N5  UNL     1      -0.627  44.912   1.669  1.00  0.00    -0.250 N 
HETATM   17  N6  UNL     1      -0.917  45.159   2.895  1.00  0.00    -0.331 N 
ATOM     18  H62 UNL     1      -1.367  44.437   3.457  1.00  0.00     0.178 HD
ATOM     19  H61 UNL     1      -0.693  46.074   3.287  1.00  0.00     0.178 HD
ATOM     20  H5  UNL     1      -0.177  45.623   1.093  1.00  0.00     0.207 HD
ENDBRANCH  14  16
ENDBRANCH  13  14
ENDBRANCH   8  13
BRANCH   1  21
HETATM   21  C3  UNL     1       4.561  43.913   6.489  1.00  0.00     0.177 C 
BRANCH  21  22
HETATM   22  C2  UNL     1       3.679  44.922   7.092  1.00  0.00    -0.016 C 
HETATM   23  C1  UNL     1       3.952  46.209   7.037  1.00  0.00     0.008 C 
ENDBRANCH  21  22
ENDBRANCH   1  21
BRANCH   2  24
HETATM   24  N2  UNL     1       4.866  41.102   6.508  1.00  0.00    -0.234 N 
ATOM     25  H22 UNL     1       4.659  40.116   6.667  1.00  0.00     0.174 HD
ATOM     26  H21 UNL     1       5.651  41.526   7.003  1.00  0.00     0.174 HD
ENDBRANCH   2  24
TORSDOF 6
ENDMDL
MODEL 5
REMARK VINA RESULT: -6.074725548      2.444      6.237
REMARK  6 active torsions:
REMARK  status: ('A' for Active; 'I' for Inactive)
REMARK    1  A    between atoms: C2_2  and  C3_3 
REMARK    2  A    between atoms: C3_3  and  N1_4 
REMARK    3  A    between atoms: C4_5  and  N2_6 
REMARK    4  A    between atoms: C8_14  and  C9_15 
REMARK    5  A    between atoms: C9_15  and  N4_16 
REMARK    6  A    between atoms: N4_16  and  N5_18 
ROOT
HETATM    1  N1  UNL     1       3.695  43.545   4.883  1.00  0.00    -0.144 N 
HETATM    2  C4  UNL     1       3.318  44.544   5.658  1.00  0.00     0.681 A 
HETATM    3  N3  UNL     1       2.340  45.398   5.211  1.00  0.00    -0.191 N 
ATOM      4  H3  UNL     1       2.057  46.166   5.820  1.00  0.00     0.184 HD
HETATM    5  C5  UNL     1       1.737  45.280   4.024  1.00  0.00     0.065 A 
HETATM    6  C6  UNL     1       0.755  46.150   3.590  1.00  0.00     0.032 A 
HETATM    7  C7  UNL     1       0.137  46.023   2.365  1.00  0.00     0.015 A 
HETATM    8  C8  UNL     1       0.526  44.981   1.551  1.00  0.00    -0.018 A 
HETATM    9  C10 UNL     1       1.517  44.099   1.980  1.00  0.00     0.032 A 
HETATM   10  C11 UNL     1       2.121  44.238   3.200  1.00  0.00     0.061 A 
HETATM   11  C12 UNL     1       3.102  43.396   3.671  1.00  0.00     0.274 A 
HETATM   12  O1  UNL     1       3.480  42.437   2.951  1.00  0.00    -0.266 OA
ENDROOT
BRANCH   8  13
HETATM   13  C9  UNL     1      -0.116  44.837   0.258  1.00  0.00     0.120 C 
BRANCH  13  14
HETATM   14  N4  UNL     1      -1.129  44.068   0.087  1.00  0.00    -0.297 N 
ATOM     15  H4  UNL     1      -2.062  44.481   0.083  1.00  0.00     0.187 HD
BRANCH  14  16
HETATM   16  N5  UNL     1      -1.008  42.689  -0.095  1.00  0.00    -0.250 N 
HETATM   17  N6  UNL     1      -0.881  41.928   0.931  1.00  0.00    -0.331 N 
ATOM     18  H62 UNL     1      -0.871  42.342   1.862  1.00  0.00     0.178 HD
ATOM     19  H61 UNL     1      -0.792  40.921   0.798  1.00  0.00     0.178 HD
ATOM     20  H5  UNL     1      -1.020  42.290  -1.034  1.00  0.00     0.207 HD
ENDBRANCH  14  16
ENDBRANCH  13  14
ENDBRANCH   8  13
BRANCH   1  21
HETATM   21  C3  UNL     1       4.733  42.628   5.314  1.00  0.00     0.177 C 
BRANCH  21  22
HETATM   22  C2  UNL     1       4.250  41.515   6.142  1.00  0.00    -0.016 C 
HETATM   23  C1  UNL     1       5.064  40.785   6.874  1.00  0.00     0.008 C 
ENDBRANCH  21  22
ENDBRANCH   1  21
BRANCH   2  24
HETATM   24  N2  UNL     1       3.783  44.806   6.844  1.00  0.00    -0.234 N 
ATOM     25  H22 UNL     1       3.342  44.293   7.608  1.00  0.00     0.174 HD
ATOM     26  H21 UNL     1       4.536  45.459   7.061  1.00  0.00     0.174 HD
ENDBRANCH   2  24
TORSDOF 6
ENDMDL
