MODEL 1
REMARK VINA RESULT: -7.085953437      0.000      0.000
REMARK  8 active torsions:
REMARK  status: ('A' for Active; 'I' for Inactive)
REMARK    1  A    between atoms: N3_4  and  C2_6 
REMARK    2  A    between atoms: C2_6  and  C3_7 
REMARK    3  A    between atoms: C2_6  and  C5_15 
REMARK    4  A    between atoms: C3_7  and  C4_8 
REMARK    5  A    between atoms: C4_8  and  O1_9 
REMARK    6  A    between atoms: N4_11  and  O2_13 
REMARK       I    between atoms: C5_15  and  N5_17 
REMARK    7  A    between atoms: C8_20  and  N6_21 
REMARK       I    between atoms: N6_21  and  C9_23 
REMARK       I    between atoms: C9_23  and  N7_25 
REMARK    8  A    between atoms: N7_25  and  C10_27 
ROOT
HETATM    1  C5  UNL     1      13.542  16.435  15.502  1.00  0.00     0.243 C 
HETATM    2  O3  UNL     1      14.405  15.636  16.001  1.00  0.00    -0.271 OA
HETATM    3  N5  UNL     1      13.989  17.570  14.817  1.00  0.00    -0.348 N 
HETATM    4  C6  UNL     1      13.235  18.634  14.209  1.00  0.00     0.128 C 
HETATM    5  C7  UNL     1      14.043  19.009  12.969  1.00  0.00     0.047 C 
HETATM    6  C8  UNL     1      15.297  18.184  13.045  1.00  0.00     0.105 C 
HETATM    7  C15 UNL     1      15.392  17.940  14.557  1.00  0.00     0.151 C 
ENDROOT
BRANCH   1   8
HETATM    8  C2  UNL     1      12.119  16.127  15.672  1.00  0.00     0.183 C 
BRANCH   8   9
HETATM    9  N3  UNL     1      11.709  17.045  16.796  1.00  0.00    -0.353 N 
HETATM   10  C1  UNL     1      10.574  17.631  16.753  1.00  0.00     0.197 C 
HETATM   11  N1  UNL     1      10.196  18.489  17.806  1.00  0.00    -0.067 NA
HETATM   12  N2  UNL     1       9.718  17.409  15.652  1.00  0.00    -0.067 NA
ATOM     13  H3  UNL     1      12.335  17.198  17.587  1.00  0.00     0.162 HD
ENDBRANCH   8   9
BRANCH   8  14
HETATM   14  C3  UNL     1      11.818  14.780  16.244  1.00  0.00     0.120 C 
BRANCH  14  15
HETATM   15  C4  UNL     1      12.341  14.422  17.544  1.00  0.00     0.137 C 
HETATM   16  N4  UNL     1      13.369  13.777  17.874  1.00  0.00    -0.251 N 
ATOM     17  H4  UNL     1      13.985  13.417  17.145  1.00  0.00     0.196 HD
BRANCH  15  18
HETATM   18  O1  UNL     1      11.547  14.884  18.639  1.00  0.00    -0.348 OA
ATOM     19  H1  UNL     1      10.745  14.391  18.772  1.00  0.00     0.219 HD
ENDBRANCH  15  18
BRANCH  16  20
HETATM   20  O2  UNL     1      13.681  13.549  19.181  1.00  0.00    -0.288 OA
ATOM     21  H2  UNL     1      14.579  13.432  19.466  1.00  0.00     0.244 HD
ENDBRANCH  16  20
ENDBRANCH  14  15
ENDBRANCH   8  14
ENDBRANCH   1   8
BRANCH   6  22
HETATM   22  N6  UNL     1      16.467  18.877  12.547  1.00  0.00    -0.337 N 
HETATM   23  C9  UNL     1      17.554  18.189  11.970  1.00  0.00     0.316 C 
HETATM   24  O4  UNL     1      17.478  16.916  11.897  1.00  0.00    -0.247 OA
HETATM   25  N7  UNL     1      18.669  18.902  11.500  1.00  0.00    -0.339 N 
ATOM     26  H7  UNL     1      18.692  19.920  11.576  1.00  0.00     0.164 HD
ATOM     27  H6  UNL     1      16.506  19.894  12.616  1.00  0.00     0.164 HD
BRANCH  25  28
HETATM   28  C10 UNL     1      19.797  18.185  10.902  1.00  0.00     0.086 C 
HETATM   29  C11 UNL     1      20.469  19.023   9.852  1.00  0.00     0.025 C 
HETATM   30  C12 UNL     1      21.597  19.763  10.536  1.00  0.00     0.002 C 
HETATM   31  C13 UNL     1      21.474  19.415  11.996  1.00  0.00     0.002 C 
HETATM   32  C14 UNL     1      20.870  18.031  11.952  1.00  0.00     0.025 C 
ENDBRANCH  25  28
ENDBRANCH   6  22
TORSDOF 8
ENDMDL
MODEL 2
REMARK VINA RESULT: -7.039093180      1.764      2.120
REMARK  8 active torsions:
REMARK  status: ('A' for Active; 'I' for Inactive)
REMARK    1  A    between atoms: N3_4  and  C2_6 
REMARK    2  A    between atoms: C2_6  and  C3_7 
REMARK    3  A    between atoms: C2_6  and  C5_15 
REMARK    4  A    between atoms: C3_7  and  C4_8 
REMARK    5  A    between atoms: C4_8  and  O1_9 
REMARK    6  A    between atoms: N4_11  and  O2_13 
REMARK       I    between atoms: C5_15  and  N5_17 
REMARK    7  A    between atoms: C8_20  and  N6_21 
REMARK       I    between atoms: N6_21  and  C9_23 
REMARK       I    between atoms: C9_23  and  N7_25 
REMARK    8  A    between atoms: N7_25  and  C10_27 
ROOT
HETATM    1  C5  UNL     1      14.695  16.574  15.305  1.00  0.00     0.243 C 
HETATM    2  O3  UNL     1      15.119  15.741  16.176  1.00  0.00    -0.271 OA
HETATM    3  N5  UNL     1      15.588  17.514  14.779  1.00  0.00    -0.348 N 
HETATM    4  C6  UNL     1      15.357  18.574  13.834  1.00  0.00     0.128 C 
HETATM    5  C7  UNL     1      16.642  18.633  13.011  1.00  0.00     0.047 C 
HETATM    6  C8  UNL     1      17.578  17.653  13.660  1.00  0.00     0.105 C 
HETATM    7  C15 UNL     1      17.024  17.628  15.091  1.00  0.00     0.151 C 
ENDROOT
BRANCH   1   8
HETATM    8  C2  UNL     1      13.288  16.510  14.898  1.00  0.00     0.183 C 
BRANCH   8   9
HETATM    9  N3  UNL     1      12.611  17.422  15.891  1.00  0.00    -0.353 N 
HETATM   10  C1  UNL     1      11.850  18.359  15.471  1.00  0.00     0.197 C 
HETATM   11  N1  UNL     1      11.218  19.208  16.403  1.00  0.00    -0.067 NA
HETATM   12  N2  UNL     1      11.654  18.528  14.084  1.00  0.00    -0.067 NA
ATOM     13  H3  UNL     1      12.758  17.290  16.891  1.00  0.00     0.162 HD
ENDBRANCH   8   9
BRANCH   8  14
HETATM   14  C3  UNL     1      12.605  15.206  15.155  1.00  0.00     0.120 C 
BRANCH  14  15
HETATM   15  C4  UNL     1      12.256  14.836  16.508  1.00  0.00     0.137 C 
HETATM   16  N4  UNL     1      12.902  14.213  17.389  1.00  0.00    -0.251 N 
ATOM     17  H4  UNL     1      13.844  13.884  17.175  1.00  0.00     0.196 HD
BRANCH  15  18
HETATM   18  O1  UNL     1      10.949  15.253  16.908  1.00  0.00    -0.348 OA
ATOM     19  H1  UNL     1      10.932  16.081  17.375  1.00  0.00     0.219 HD
ENDBRANCH  15  18
BRANCH  16  20
HETATM   20  O2  UNL     1      12.376  13.966  18.622  1.00  0.00    -0.288 OA
ATOM     21  H2  UNL     1      12.513  14.559  19.351  1.00  0.00     0.244 HD
ENDBRANCH  16  20
ENDBRANCH  14  15
ENDBRANCH   8  14
ENDBRANCH   1   8
BRANCH   6  22
HETATM   22  N6  UNL     1      18.960  18.081  13.636  1.00  0.00    -0.337 N 
HETATM   23  C9  UNL     1      19.748  17.998  12.470  1.00  0.00     0.316 C 
HETATM   24  O4  UNL     1      19.200  17.527  11.417  1.00  0.00    -0.247 OA
HETATM   25  N7  UNL     1      21.086  18.426  12.492  1.00  0.00    -0.339 N 
ATOM     26  H7  UNL     1      21.488  18.798  13.353  1.00  0.00     0.164 HD
ATOM     27  H6  UNL     1      19.377  18.454  14.489  1.00  0.00     0.164 HD
BRANCH  25  28
HETATM   28  C10 UNL     1      21.902  18.339  11.279  1.00  0.00     0.086 C 
HETATM   29  C11 UNL     1      23.136  19.185  11.402  1.00  0.00     0.025 C 
HETATM   30  C12 UNL     1      24.234  18.288  11.931  1.00  0.00     0.002 C 
HETATM   31  C13 UNL     1      23.568  16.966  12.207  1.00  0.00     0.002 C 
HETATM   32  C14 UNL     1      22.458  16.939  11.183  1.00  0.00     0.025 C 
ENDBRANCH  25  28
ENDBRANCH   6  22
TORSDOF 8
ENDMDL
MODEL 3
REMARK VINA RESULT: -6.974021812      5.008      7.252
REMARK  8 active torsions:
REMARK  status: ('A' for Active; 'I' for Inactive)
REMARK    1  A    between atoms: N3_4  and  C2_6 
REMARK    2  A    between atoms: C2_6  and  C3_7 
REMARK    3  A    between atoms: C2_6  and  C5_15 
REMARK    4  A    between atoms: C3_7  and  C4_8 
REMARK    5  A    between atoms: C4_8  and  O1_9 
REMARK    6  A    between atoms: N4_11  and  O2_13 
REMARK       I    between atoms: C5_15  and  N5_17 
REMARK    7  A    between atoms: C8_20  and  N6_21 
REMARK       I    between atoms: N6_21  and  C9_23 
REMARK       I    between atoms: C9_23  and  N7_25 
REMARK    8  A    between atoms: N7_25  and  C10_27 
ROOT
HETATM    1  C5  UNL     1       9.104  17.073  12.249  1.00  0.00     0.243 C 
HETATM    2  O3  UNL     1       8.895  15.824  12.412  1.00  0.00    -0.271 OA
HETATM    3  N5  UNL     1       9.800  17.776  13.238  1.00  0.00    -0.348 N 
HETATM    4  C6  UNL     1      10.123  19.177  13.317  1.00  0.00     0.128 C 
HETATM    5  C7  UNL     1      11.498  19.211  13.979  1.00  0.00     0.047 C 
HETATM    6  C8  UNL     1      11.799  17.786  14.349  1.00  0.00     0.105 C 
HETATM    7  C15 UNL     1      10.381  17.212  14.470  1.00  0.00     0.151 C 
ENDROOT
BRANCH   1   8
HETATM    8  C2  UNL     1       8.601  17.716  11.032  1.00  0.00     0.183 C 
BRANCH   8   9
HETATM    9  N3  UNL     1       7.111  17.759  11.267  1.00  0.00    -0.353 N 
HETATM   10  C1  UNL     1       6.500  18.881  11.244  1.00  0.00     0.197 C 
HETATM   11  N1  UNL     1       5.108  18.916  11.464  1.00  0.00    -0.067 NA
HETATM   12  N2  UNL     1       7.228  20.065  10.997  1.00  0.00    -0.067 NA
ATOM     13  H3  UNL     1       6.595  16.898  11.443  1.00  0.00     0.162 HD
ENDBRANCH   8   9
BRANCH   8  14
HETATM   14  C3  UNL     1       8.696  16.895   9.787  1.00  0.00     0.120 C 
BRANCH  14  15
HETATM   15  C4  UNL     1       8.469  15.469   9.851  1.00  0.00     0.137 C 
HETATM   16  N4  UNL     1       9.200  14.498   9.530  1.00  0.00    -0.251 N 
ATOM     17  H4  UNL     1      10.130  14.680   9.152  1.00  0.00     0.196 HD
BRANCH  15  18
HETATM   18  O1  UNL     1       7.187  15.105  10.371  1.00  0.00    -0.348 OA
ATOM     19  H1  UNL     1       7.221  14.472  11.079  1.00  0.00     0.219 HD
ENDBRANCH  15  18
BRANCH  16  20
HETATM   20  O2  UNL     1       8.784  13.209   9.675  1.00  0.00    -0.288 OA
ATOM     21  H2  UNL     1       9.384  12.514   9.919  1.00  0.00     0.244 HD
ENDBRANCH  16  20
ENDBRANCH  14  15
ENDBRANCH   8  14
ENDBRANCH   1   8
BRANCH   6  22
HETATM   22  N6  UNL     1      12.527  17.661  15.593  1.00  0.00    -0.337 N 
HETATM   23  C9  UNL     1      13.652  16.820  15.720  1.00  0.00     0.316 C 
HETATM   24  O4  UNL     1      14.017  16.160  14.689  1.00  0.00    -0.247 OA
HETATM   25  N7  UNL     1      14.329  16.730  16.947  1.00  0.00    -0.339 N 
ATOM     26  H7  UNL     1      14.007  17.273  17.749  1.00  0.00     0.164 HD
ATOM     27  H6  UNL     1      12.218  18.197  16.404  1.00  0.00     0.164 HD
BRANCH  25  28
HETATM   28  C10 UNL     1      15.497  15.855  17.076  1.00  0.00     0.086 C 
HETATM   29  C11 UNL     1      16.721  16.646  17.439  1.00  0.00     0.025 C 
HETATM   30  C12 UNL     1      16.825  16.627  18.949  1.00  0.00     0.002 C 
HETATM   31  C13 UNL     1      15.586  15.915  19.424  1.00  0.00     0.002 C 
HETATM   32  C14 UNL     1      15.294  14.970  18.281  1.00  0.00     0.025 C 
ENDBRANCH  25  28
ENDBRANCH   6  22
TORSDOF 8
ENDMDL
MODEL 4
REMARK VINA RESULT: -6.945445416      2.178      2.686
REMARK  8 active torsions:
REMARK  status: ('A' for Active; 'I' for Inactive)
REMARK    1  A    between atoms: N3_4  and  C2_6 
REMARK    2  A    between atoms: C2_6  and  C3_7 
REMARK    3  A    between atoms: C2_6  and  C5_15 
REMARK    4  A    between atoms: C3_7  and  C4_8 
REMARK    5  A    between atoms: C4_8  and  O1_9 
REMARK    6  A    between atoms: N4_11  and  O2_13 
REMARK       I    between atoms: C5_15  and  N5_17 
REMARK    7  A    between atoms: C8_20  and  N6_21 
REMARK       I    between atoms: N6_21  and  C9_23 
REMARK       I    between atoms: C9_23  and  N7_25 
REMARK    8  A    between atoms: N7_25  and  C10_27 
ROOT
HETATM    1  C5  UNL     1      12.674  15.672  15.518  1.00  0.00     0.243 C 
HETATM    2  O3  UNL     1      12.273  14.616  14.921  1.00  0.00    -0.271 OA
HETATM    3  N5  UNL     1      14.012  16.057  15.381  1.00  0.00    -0.348 N 
HETATM    4  C6  UNL     1      14.717  17.161  15.976  1.00  0.00     0.128 C 
HETATM    5  C7  UNL     1      15.702  17.606  14.897  1.00  0.00     0.047 C 
HETATM    6  C8  UNL     1      15.558  16.605  13.787  1.00  0.00     0.105 C 
HETATM    7  C15 UNL     1      15.038  15.386  14.562  1.00  0.00     0.151 C 
ENDROOT
BRANCH   1   8
HETATM    8  C2  UNL     1      11.714  16.431  16.323  1.00  0.00     0.183 C 
BRANCH   8   9
HETATM    9  N3  UNL     1      11.531  17.695  15.522  1.00  0.00    -0.353 N 
HETATM   10  C1  UNL     1      10.360  18.039  15.141  1.00  0.00     0.197 C 
HETATM   11  N1  UNL     1      10.194  19.222  14.392  1.00  0.00    -0.067 NA
HETATM   12  N2  UNL     1       9.254  17.229  15.478  1.00  0.00    -0.067 NA
ATOM     13  H3  UNL     1      12.337  18.273  15.285  1.00  0.00     0.162 HD
ENDBRANCH   8   9
BRANCH   8  14
HETATM   14  C3  UNL     1      12.239  16.957  17.620  1.00  0.00     0.120 C 
BRANCH  14  15
HETATM   15  C4  UNL     1      11.316  17.313  18.674  1.00  0.00     0.137 C 
HETATM   16  N4  UNL     1      11.326  17.058  19.905  1.00  0.00    -0.251 N 
ATOM     17  H4  UNL     1      12.093  16.508  20.292  1.00  0.00     0.196 HD
BRANCH  15  18
HETATM   18  O1  UNL     1      10.199  18.090  18.233  1.00  0.00    -0.348 OA
ATOM     19  H1  UNL     1       9.527  18.213  18.894  1.00  0.00     0.219 HD
ENDBRANCH  15  18
BRANCH  16  20
HETATM   20  O2  UNL     1      10.340  17.498  20.736  1.00  0.00    -0.288 OA
ATOM     21  H2  UNL     1       9.923  16.922  21.366  1.00  0.00     0.244 HD
ENDBRANCH  16  20
ENDBRANCH  14  15
ENDBRANCH   8  14
ENDBRANCH   1   8
BRANCH   6  22
HETATM   22  N6  UNL     1      16.807  16.311  13.117  1.00  0.00    -0.337 N 
HETATM   23  C9  UNL     1      17.371  17.189  12.169  1.00  0.00     0.316 C 
HETATM   24  O4  UNL     1      16.739  18.269  11.912  1.00  0.00    -0.247 OA
HETATM   25  N7  UNL     1      18.586  16.864  11.544  1.00  0.00    -0.339 N 
ATOM     26  H7  UNL     1      19.061  15.991  11.776  1.00  0.00     0.164 HD
ATOM     27  H6  UNL     1      17.294  15.442  13.338  1.00  0.00     0.164 HD
BRANCH  25  28
HETATM   28  C10 UNL     1      19.170  17.777  10.559  1.00  0.00     0.086 C 
HETATM   29  C11 UNL     1      20.623  18.018  10.847  1.00  0.00     0.025 C 
HETATM   30  C12 UNL     1      21.406  17.008  10.036  1.00  0.00     0.002 C 
HETATM   31  C13 UNL     1      20.368  16.133   9.384  1.00  0.00     0.002 C 
HETATM   32  C14 UNL     1      19.199  17.076   9.223  1.00  0.00     0.025 C 
ENDBRANCH  25  28
ENDBRANCH   6  22
TORSDOF 8
ENDMDL
MODEL 5
REMARK VINA RESULT: -6.850761066      2.325      3.336
REMARK  8 active torsions:
REMARK  status: ('A' for Active; 'I' for Inactive)
REMARK    1  A    between atoms: N3_4  and  C2_6 
REMARK    2  A    between atoms: C2_6  and  C3_7 
REMARK    3  A    between atoms: C2_6  and  C5_15 
REMARK    4  A    between atoms: C3_7  and  C4_8 
REMARK    5  A    between atoms: C4_8  and  O1_9 
REMARK    6  A    between atoms: N4_11  and  O2_13 
REMARK       I    between atoms: C5_15  and  N5_17 
REMARK    7  A    between atoms: C8_20  and  N6_21 
REMARK       I    between atoms: N6_21  and  C9_23 
REMARK       I    between atoms: C9_23  and  N7_25 
REMARK    8  A    between atoms: N7_25  and  C10_27 
ROOT
HETATM    1  C5  UNL     1      14.122  17.001  14.997  1.00  0.00     0.243 C 
HETATM    2  O3  UNL     1      13.718  17.030  13.785  1.00  0.00    -0.271 OA
HETATM    3  N5  UNL     1      15.492  16.876  15.248  1.00  0.00    -0.348 N 
HETATM    4  C6  UNL     1      16.193  16.776  16.501  1.00  0.00     0.128 C 
HETATM    5  C7  UNL     1      17.498  17.531  16.266  1.00  0.00     0.047 C 
HETATM    6  C8  UNL     1      17.488  17.904  14.810  1.00  0.00     0.105 C 
HETATM    7  C15 UNL     1      16.567  16.817  14.240  1.00  0.00     0.151 C 
ENDROOT
BRANCH   1   8
HETATM    8  C2  UNL     1      13.129  17.098  16.071  1.00  0.00     0.183 C 
BRANCH   8   9
HETATM    9  N3  UNL     1      12.939  15.659  16.481  1.00  0.00    -0.353 N 
HETATM   10  C1  UNL     1      13.050  15.331  17.711  1.00  0.00     0.197 C 
HETATM   11  N1  UNL     1      12.870  13.985  18.089  1.00  0.00    -0.067 NA
HETATM   12  N2  UNL     1      13.349  16.323  18.670  1.00  0.00    -0.067 NA
ATOM     13  H3  UNL     1      12.721  14.951  15.779  1.00  0.00     0.162 HD
ENDBRANCH   8   9
BRANCH   8  14
HETATM   14  C3  UNL     1      11.752  17.484  15.638  1.00  0.00     0.120 C 
BRANCH  14  15
HETATM   15  C4  UNL     1      10.714  17.658  16.629  1.00  0.00     0.137 C 
HETATM   16  N4  UNL     1      10.747  18.146  17.787  1.00  0.00    -0.251 N 
ATOM     17  H4  UNL     1      11.632  18.499  18.152  1.00  0.00     0.196 HD
BRANCH  15  18
HETATM   18  O1  UNL     1       9.427  17.192  16.212  1.00  0.00    -0.348 OA
ATOM     19  H1  UNL     1       9.444  16.656  15.428  1.00  0.00     0.219 HD
ENDBRANCH  15  18
BRANCH  16  20
HETATM   20  O2  UNL     1       9.632  18.215  18.567  1.00  0.00    -0.288 OA
ATOM     21  H2  UNL     1       9.681  18.434  19.490  1.00  0.00     0.244 HD
ENDBRANCH  16  20
ENDBRANCH  14  15
ENDBRANCH   8  14
ENDBRANCH   1   8
BRANCH   6  22
HETATM   22  N6  UNL     1      18.800  17.857  14.200  1.00  0.00    -0.337 N 
HETATM   23  C9  UNL     1      19.197  18.780  13.211  1.00  0.00     0.316 C 
HETATM   24  O4  UNL     1      18.354  19.674  12.861  1.00  0.00    -0.247 OA
HETATM   25  N7  UNL     1      20.480  18.698  12.646  1.00  0.00    -0.339 N 
ATOM     26  H7  UNL     1      21.127  17.970  12.952  1.00  0.00     0.164 HD
ATOM     27  H6  UNL     1      19.457  17.135  14.494  1.00  0.00     0.164 HD
BRANCH  25  28
HETATM   28  C10 UNL     1      20.890  19.658  11.618  1.00  0.00     0.086 C 
HETATM   29  C11 UNL     1      21.555  20.854  12.236  1.00  0.00     0.025 C 
HETATM   30  C12 UNL     1      23.042  20.574  12.245  1.00  0.00     0.002 C 
HETATM   31  C13 UNL     1      23.185  19.167  11.730  1.00  0.00     0.002 C 
HETATM   32  C14 UNL     1      21.998  19.035  10.804  1.00  0.00     0.025 C 
ENDBRANCH  25  28
ENDBRANCH   6  22
TORSDOF 8
ENDMDL
