MODEL 1
REMARK VINA RESULT: -7.997349488      0.000      0.000
REMARK  8 active torsions:
REMARK  status: ('A' for Active; 'I' for Inactive)
REMARK    1  A    between atoms: N1_1  and  C1_5 
REMARK    2  A    between atoms: C1_5  and  C2_6 
REMARK    3  A    between atoms: C5_9  and  C6_10 
REMARK    4  A    between atoms: C6_10  and  N2_11 
REMARK    5  A    between atoms: N2_11  and  C7_13 
REMARK    6  A    between atoms: C10_19  and  O1_20 
REMARK    7  A    between atoms: O1_20  and  C11_21 
REMARK    8  A    between atoms: C14_25  and  O2_26 
ROOT
HETATM    1  C7  UNL     1     -22.257   3.658  21.301  1.00  0.00     0.077 A 
HETATM    2  C8  UNL     1     -22.362   3.281  22.662  1.00  0.00     0.077 A 
HETATM    3 CL1  UNL     1     -22.350   4.531  23.880  1.00  0.00    -0.080 Cl
HETATM    4  C9  UNL     1     -22.467   1.951  22.945  1.00  0.00     0.116 A 
HETATM    5  N3  UNL     1     -22.472   1.018  21.971  1.00  0.00    -0.343 N 
ATOM      6  H3  UNL     1     -22.553   0.035  22.235  1.00  0.00     0.167 HD
HETATM    7  C10 UNL     1     -22.374   1.326  20.671  1.00  0.00     0.172 A 
HETATM    8  C17 UNL     1     -22.265   2.684  20.336  1.00  0.00     0.113 A 
HETATM    9 CL4  UNL     1     -22.137   3.120  18.643  1.00  0.00    -0.077 Cl
ENDROOT
BRANCH   1  10
HETATM   10  N2  UNL     1     -22.164   4.907  21.127  1.00  0.00    -0.387 N 
ATOM     11  H2  UNL     1     -23.024   5.432  21.282  1.00  0.00     0.159 HD
BRANCH  10  12
HETATM   12  C6  UNL     1     -21.053   5.677  20.753  1.00  0.00     0.124 C 
BRANCH  12  13
HETATM   13  C5  UNL     1     -19.724   4.990  21.123  1.00  0.00     0.003 C 
HETATM   14  C4  UNL     1     -18.738   5.125  19.982  1.00  0.00     0.007 C 
HETATM   15  C3  UNL     1     -17.941   6.397  20.223  1.00  0.00     0.007 C 
HETATM   16  C2  UNL     1     -16.938   6.122  21.321  1.00  0.00     0.011 C 
HETATM   17  C19 UNL     1     -17.637   5.408  22.442  1.00  0.00     0.007 C 
HETATM   18  C18 UNL     1     -19.115   5.605  22.338  1.00  0.00     0.007 C 
BRANCH  16  19
HETATM   19  C1  UNL     1     -16.357   7.413  21.872  1.00  0.00     0.234 C 
BRANCH  19  20
HETATM   20  N1  UNL     1     -16.008   7.195  23.262  1.00  0.00    -0.079 N 
ATOM     21  H13 UNL     1     -16.504   7.822  23.895  1.00  0.00     0.274 HD
ATOM     22  H12 UNL     1     -16.374   6.315  23.626  1.00  0.00     0.274 HD
ATOM     23  H11 UNL     1     -14.994   7.266  23.350  1.00  0.00     0.274 HD
ENDBRANCH  19  20
ENDBRANCH  16  19
ENDBRANCH  12  13
ENDBRANCH  10  12
ENDBRANCH   1  10
BRANCH   7  24
HETATM   24  O1  UNL     1     -22.377   0.402  19.633  1.00  0.00    -0.290 OA
BRANCH  24  25
HETATM   25  C11 UNL     1     -22.655  -0.925  19.734  1.00  0.00     0.101 A 
HETATM   26  C12 UNL     1     -23.720  -1.346  20.497  1.00  0.00     0.065 A 
HETATM   27  C13 UNL     1     -24.043  -2.692  20.629  1.00  0.00     0.070 A 
HETATM   28 CL2  UNL     1     -25.421  -3.143  21.624  1.00  0.00    -0.081 Cl
HETATM   29  C14 UNL     1     -23.272  -3.626  19.975  1.00  0.00     0.089 A 
HETATM   30  C15 UNL     1     -22.214  -3.243  19.214  1.00  0.00     0.065 A 
HETATM   31  C16 UNL     1     -21.905  -1.875  19.094  1.00  0.00     0.070 A 
HETATM   32 CL3  UNL     1     -20.567  -1.451  18.067  1.00  0.00    -0.081 Cl
BRANCH  29  33
HETATM   33  O2  UNL     1     -23.615  -4.981  20.122  1.00  0.00    -0.359 OA
ATOM     34  H2  UNL     1     -23.137  -5.619  19.607  1.00  0.00     0.217 HD
ENDBRANCH  29  33
ENDBRANCH  24  25
ENDBRANCH   7  24
TORSDOF 8
ENDMDL
MODEL 2
REMARK VINA RESULT: -7.735862452      0.865      1.842
REMARK  8 active torsions:
REMARK  status: ('A' for Active; 'I' for Inactive)
REMARK    1  A    between atoms: N1_1  and  C1_5 
REMARK    2  A    between atoms: C1_5  and  C2_6 
REMARK    3  A    between atoms: C5_9  and  C6_10 
REMARK    4  A    between atoms: C6_10  and  N2_11 
REMARK    5  A    between atoms: N2_11  and  C7_13 
REMARK    6  A    between atoms: C10_19  and  O1_20 
REMARK    7  A    between atoms: O1_20  and  C11_21 
REMARK    8  A    between atoms: C14_25  and  O2_26 
ROOT
HETATM    1  C7  UNL     1     -22.307   3.779  21.703  1.00  0.00     0.077 A 
HETATM    2  C8  UNL     1     -22.378   3.333  23.046  1.00  0.00     0.077 A 
HETATM    3 CL1  UNL     1     -22.369   4.521  24.324  1.00  0.00    -0.080 Cl
HETATM    4  C9  UNL     1     -22.449   1.988  23.264  1.00  0.00     0.116 A 
HETATM    5  N3  UNL     1     -22.452   1.104  22.245  1.00  0.00    -0.343 N 
ATOM      6  H3  UNL     1     -22.507   0.109  22.461  1.00  0.00     0.167 HD
HETATM    7  C10 UNL     1     -22.386   1.479  20.961  1.00  0.00     0.172 A 
HETATM    8  C17 UNL     1     -22.313   2.854  20.691  1.00  0.00     0.113 A 
HETATM    9 CL4  UNL     1     -22.227   3.375  19.020  1.00  0.00    -0.077 Cl
ENDROOT
BRANCH   1  10
HETATM   10  N2  UNL     1     -22.244   5.036  21.590  1.00  0.00    -0.387 N 
ATOM     11  H2  UNL     1     -23.115   5.533  21.775  1.00  0.00     0.159 HD
BRANCH  10  12
HETATM   12  C6  UNL     1     -21.154   5.849  21.247  1.00  0.00     0.124 C 
BRANCH  12  13
HETATM   13  C5  UNL     1     -19.809   5.121  21.439  1.00  0.00     0.003 C 
HETATM   14  C4  UNL     1     -18.984   5.221  20.173  1.00  0.00     0.007 C 
HETATM   15  C3  UNL     1     -18.122   6.468  20.294  1.00  0.00     0.007 C 
HETATM   16  C2  UNL     1     -16.988   6.164  21.247  1.00  0.00     0.011 C 
HETATM   17  C19 UNL     1     -17.550   5.478  22.458  1.00  0.00     0.007 C 
HETATM   18  C18 UNL     1     -19.021   5.721  22.555  1.00  0.00     0.007 C 
BRANCH  16  19
HETATM   19  C1  UNL     1     -16.297   7.438  21.704  1.00  0.00     0.234 C 
BRANCH  19  20
HETATM   20  N1  UNL     1     -15.922   7.275  23.094  1.00  0.00    -0.079 N 
ATOM     21  H13 UNL     1     -16.707   7.408  23.732  1.00  0.00     0.274 HD
ATOM     22  H12 UNL     1     -15.713   6.306  23.335  1.00  0.00     0.274 HD
ATOM     23  H11 UNL     1     -15.145   7.906  23.290  1.00  0.00     0.274 HD
ENDBRANCH  19  20
ENDBRANCH  16  19
ENDBRANCH  12  13
ENDBRANCH  10  12
ENDBRANCH   1  10
BRANCH   7  24
HETATM   24  O1  UNL     1     -22.389   0.607  19.877  1.00  0.00    -0.290 OA
BRANCH  24  25
HETATM   25  C11 UNL     1     -22.392  -0.752  19.935  1.00  0.00     0.101 A 
HETATM   26  C12 UNL     1     -21.274  -1.456  19.547  1.00  0.00     0.065 A 
HETATM   27  C13 UNL     1     -21.231  -2.845  19.591  1.00  0.00     0.070 A 
HETATM   28 CL2  UNL     1     -19.763  -3.666  19.076  1.00  0.00    -0.081 Cl
HETATM   29  C14 UNL     1     -22.338  -3.531  20.035  1.00  0.00     0.089 A 
HETATM   30  C15 UNL     1     -23.456  -2.865  20.426  1.00  0.00     0.065 A 
HETATM   31  C16 UNL     1     -23.479  -1.458  20.375  1.00  0.00     0.070 A 
HETATM   32 CL3  UNL     1     -24.924  -0.667  20.933  1.00  0.00    -0.081 Cl
BRANCH  29  33
HETATM   33  O2  UNL     1     -22.272  -4.934  20.070  1.00  0.00    -0.359 OA
ATOM     34  H2  UNL     1     -23.090  -5.417  20.069  1.00  0.00     0.217 HD
ENDBRANCH  29  33
ENDBRANCH  24  25
ENDBRANCH   7  24
TORSDOF 8
ENDMDL
MODEL 3
REMARK VINA RESULT: -7.679592331      3.239      8.169
REMARK  8 active torsions:
REMARK  status: ('A' for Active; 'I' for Inactive)
REMARK    1  A    between atoms: N1_1  and  C1_5 
REMARK    2  A    between atoms: C1_5  and  C2_6 
REMARK    3  A    between atoms: C5_9  and  C6_10 
REMARK    4  A    between atoms: C6_10  and  N2_11 
REMARK    5  A    between atoms: N2_11  and  C7_13 
REMARK    6  A    between atoms: C10_19  and  O1_20 
REMARK    7  A    between atoms: O1_20  and  C11_21 
REMARK    8  A    between atoms: C14_25  and  O2_26 
ROOT
HETATM    1  C7  UNL     1     -22.169   2.816  21.411  1.00  0.00     0.077 A 
HETATM    2  C8  UNL     1     -21.916   3.400  22.677  1.00  0.00     0.077 A 
HETATM    3 CL1  UNL     1     -22.504   2.588  24.106  1.00  0.00    -0.080 Cl
HETATM    4  C9  UNL     1     -21.223   4.574  22.705  1.00  0.00     0.116 A 
HETATM    5  N3  UNL     1     -20.788   5.168  21.575  1.00  0.00    -0.343 N 
ATOM      6  H3  UNL     1     -20.273   6.045  21.650  1.00  0.00     0.167 HD
HETATM    7  C10 UNL     1     -21.004   4.654  20.357  1.00  0.00     0.172 A 
HETATM    8  C17 UNL     1     -21.713   3.446  20.282  1.00  0.00     0.113 A 
HETATM    9 CL4  UNL     1     -22.010   2.747  18.703  1.00  0.00    -0.077 Cl
ENDROOT
BRANCH   1  10
HETATM   10  N2  UNL     1     -22.817   1.732  21.474  1.00  0.00    -0.387 N 
ATOM     11  H2  UNL     1     -23.824   1.834  21.592  1.00  0.00     0.159 HD
BRANCH  10  12
HETATM   12  C6  UNL     1     -22.354   0.409  21.406  1.00  0.00     0.124 C 
BRANCH  12  13
HETATM   13  C5  UNL     1     -23.223  -0.457  20.473  1.00  0.00     0.003 C 
HETATM   14  C4  UNL     1     -22.497  -0.694  19.165  1.00  0.00     0.007 C 
HETATM   15  C3  UNL     1     -21.698  -1.977  19.319  1.00  0.00     0.007 C 
HETATM   16  C2  UNL     1     -22.658  -3.143  19.227  1.00  0.00     0.011 C 
HETATM   17  C19 UNL     1     -23.849  -2.851  20.092  1.00  0.00     0.007 C 
HETATM   18  C18 UNL     1     -23.519  -1.785  21.086  1.00  0.00     0.007 C 
BRANCH  16  19
HETATM   19  C1  UNL     1     -22.014  -4.425  19.725  1.00  0.00     0.234 C 
BRANCH  19  20
HETATM   20  N1  UNL     1     -20.967  -4.797  18.794  1.00  0.00    -0.079 N 
ATOM     21  H13 UNL     1     -20.708  -4.034  18.168  1.00  0.00     0.274 HD
ATOM     22  H12 UNL     1     -20.061  -4.916  19.248  1.00  0.00     0.274 HD
ATOM     23  H11 UNL     1     -21.269  -5.632  18.292  1.00  0.00     0.274 HD
ENDBRANCH  19  20
ENDBRANCH  16  19
ENDBRANCH  12  13
ENDBRANCH  10  12
ENDBRANCH   1  10
BRANCH   7  24
HETATM   24  O1  UNL     1     -20.574   5.226  19.165  1.00  0.00    -0.290 OA
BRANCH  24  25
HETATM   25  C11 UNL     1     -19.320   5.157  18.643  1.00  0.00     0.101 A 
HETATM   26  C12 UNL     1     -18.226   5.306  19.465  1.00  0.00     0.065 A 
HETATM   27  C13 UNL     1     -16.926   5.241  18.976  1.00  0.00     0.070 A 
HETATM   28 CL2  UNL     1     -15.585   5.443  20.096  1.00  0.00    -0.081 Cl
HETATM   29  C14 UNL     1     -16.733   5.022  17.631  1.00  0.00     0.089 A 
HETATM   30  C15 UNL     1     -17.792   4.870  16.794  1.00  0.00     0.065 A 
HETATM   31  C16 UNL     1     -19.099   4.938  17.310  1.00  0.00     0.070 A 
HETATM   32 CL3  UNL     1     -20.408   4.689  16.191  1.00  0.00    -0.081 Cl
BRANCH  29  33
HETATM   33  O2  UNL     1     -15.411   4.961  17.159  1.00  0.00    -0.359 OA
ATOM     34  H2  UNL     1     -14.982   4.113  17.148  1.00  0.00     0.217 HD
ENDBRANCH  29  33
ENDBRANCH  24  25
ENDBRANCH   7  24
TORSDOF 8
ENDMDL
MODEL 4
REMARK VINA RESULT: -7.549807683      3.313      8.924
REMARK  8 active torsions:
REMARK  status: ('A' for Active; 'I' for Inactive)
REMARK    1  A    between atoms: N1_1  and  C1_5 
REMARK    2  A    between atoms: C1_5  and  C2_6 
REMARK    3  A    between atoms: C5_9  and  C6_10 
REMARK    4  A    between atoms: C6_10  and  N2_11 
REMARK    5  A    between atoms: N2_11  and  C7_13 
REMARK    6  A    between atoms: C10_19  and  O1_20 
REMARK    7  A    between atoms: O1_20  and  C11_21 
REMARK    8  A    between atoms: C14_25  and  O2_26 
ROOT
HETATM    1  C7  UNL     1     -22.266   2.121  20.297  1.00  0.00     0.077 A 
HETATM    2  C8  UNL     1     -22.136   2.650  18.990  1.00  0.00     0.077 A 
HETATM    3 CL1  UNL     1     -22.247   1.560  17.631  1.00  0.00    -0.080 Cl
HETATM    4  C9  UNL     1     -21.931   3.993  18.868  1.00  0.00     0.116 A 
HETATM    5  N3  UNL     1     -21.851   4.799  19.947  1.00  0.00    -0.343 N 
ATOM      6  H3  UNL     1     -21.697   5.797  19.802  1.00  0.00     0.167 HD
HETATM    7  C10 UNL     1     -21.967   4.343  21.201  1.00  0.00     0.172 A 
HETATM    8  C17 UNL     1     -22.180   2.967  21.372  1.00  0.00     0.113 A 
HETATM    9 CL4  UNL     1     -22.337   2.342  23.002  1.00  0.00    -0.077 Cl
ENDROOT
BRANCH   1  10
HETATM   10  N2  UNL     1     -22.454   0.871  20.321  1.00  0.00    -0.387 N 
ATOM     11  H2  UNL     1     -21.661   0.306  20.018  1.00  0.00     0.159 HD
BRANCH  10  12
HETATM   12  C6  UNL     1     -23.592   0.145  20.703  1.00  0.00     0.124 C 
BRANCH  12  13
HETATM   13  C5  UNL     1     -23.224  -1.189  21.381  1.00  0.00     0.003 C 
HETATM   14  C4  UNL     1     -24.272  -2.236  21.062  1.00  0.00     0.007 C 
HETATM   15  C3  UNL     1     -23.820  -2.956  19.802  1.00  0.00     0.007 C 
HETATM   16  C2  UNL     1     -22.702  -3.903  20.178  1.00  0.00     0.011 C 
HETATM   17  C19 UNL     1     -21.729  -3.171  21.055  1.00  0.00     0.007 C 
HETATM   18  C18 UNL     1     -21.904  -1.695  20.903  1.00  0.00     0.007 C 
BRANCH  16  19
HETATM   19  C1  UNL     1     -21.957  -4.389  18.946  1.00  0.00     0.234 C 
BRANCH  19  20
HETATM   20  N1  UNL     1     -22.437  -3.640  17.802  1.00  0.00    -0.079 N 
ATOM     21  H13 UNL     1     -22.031  -2.706  17.745  1.00  0.00     0.274 HD
ATOM     22  H12 UNL     1     -22.079  -4.000  16.918  1.00  0.00     0.274 HD
ATOM     23  H11 UNL     1     -23.456  -3.625  17.838  1.00  0.00     0.274 HD
ENDBRANCH  19  20
ENDBRANCH  16  19
ENDBRANCH  12  13
ENDBRANCH  10  12
ENDBRANCH   1  10
BRANCH   7  24
HETATM   24  O1  UNL     1     -21.895   5.133  22.343  1.00  0.00    -0.290 OA
BRANCH  24  25
HETATM   25  C11 UNL     1     -20.772   5.690  22.869  1.00  0.00     0.101 A 
HETATM   26  C12 UNL     1     -19.533   5.263  22.448  1.00  0.00     0.065 A 
HETATM   27  C13 UNL     1     -18.357   5.804  22.957  1.00  0.00     0.070 A 
HETATM   28 CL2  UNL     1     -16.816   5.199  22.364  1.00  0.00    -0.081 Cl
HETATM   29  C14 UNL     1     -18.440   6.795  23.909  1.00  0.00     0.089 A 
HETATM   30  C15 UNL     1     -19.648   7.240  24.344  1.00  0.00     0.065 A 
HETATM   31  C16 UNL     1     -20.826   6.679  23.815  1.00  0.00     0.070 A 
HETATM   32 CL3  UNL     1     -22.337   7.326  24.383  1.00  0.00    -0.081 Cl
BRANCH  29  33
HETATM   33  O2  UNL     1     -17.240   7.328  24.409  1.00  0.00    -0.359 OA
ATOM     34  H2  UNL     1     -17.127   7.359  25.352  1.00  0.00     0.217 HD
ENDBRANCH  29  33
ENDBRANCH  24  25
ENDBRANCH   7  24
TORSDOF 8
ENDMDL
MODEL 5
REMARK VINA RESULT: -7.530970780      1.659      2.960
REMARK  8 active torsions:
REMARK  status: ('A' for Active; 'I' for Inactive)
REMARK    1  A    between atoms: N1_1  and  C1_5 
REMARK    2  A    between atoms: C1_5  and  C2_6 
REMARK    3  A    between atoms: C5_9  and  C6_10 
REMARK    4  A    between atoms: C6_10  and  N2_11 
REMARK    5  A    between atoms: N2_11  and  C7_13 
REMARK    6  A    between atoms: C10_19  and  O1_20 
REMARK    7  A    between atoms: O1_20  and  C11_21 
REMARK    8  A    between atoms: C14_25  and  O2_26 
ROOT
HETATM    1  C7  UNL     1     -22.400   3.728  21.397  1.00  0.00     0.077 A 
HETATM    2  C8  UNL     1     -22.359   3.927  19.995  1.00  0.00     0.077 A 
HETATM    3 CL1  UNL     1     -22.356   5.562  19.383  1.00  0.00    -0.080 Cl
HETATM    4  C9  UNL     1     -22.323   2.821  19.199  1.00  0.00     0.116 A 
HETATM    5  N3  UNL     1     -22.327   1.575  19.716  1.00  0.00    -0.343 N 
ATOM      6  H3  UNL     1     -22.299   0.780  19.076  1.00  0.00     0.167 HD
HETATM    7  C10 UNL     1     -22.366   1.338  21.033  1.00  0.00     0.172 A 
HETATM    8  C17 UNL     1     -22.403   2.448  21.889  1.00  0.00     0.113 A 
HETATM    9 CL4  UNL     1     -22.453   2.170  23.619  1.00  0.00    -0.077 Cl
ENDROOT
BRANCH   1  10
HETATM   10  N2  UNL     1     -22.430   4.803  22.061  1.00  0.00    -0.387 N 
ATOM     11  H2  UNL     1     -23.276   5.362  21.944  1.00  0.00     0.159 HD
BRANCH  10  12
HETATM   12  C6  UNL     1     -21.475   5.342  22.935  1.00  0.00     0.124 C 
BRANCH  12  13
HETATM   13  C5  UNL     1     -20.348   6.071  22.178  1.00  0.00     0.003 C 
HETATM   14  C4  UNL     1     -19.654   7.049  23.104  1.00  0.00     0.007 C 
HETATM   15  C3  UNL     1     -18.496   6.309  23.753  1.00  0.00     0.007 C 
HETATM   16  C2  UNL     1     -17.387   6.182  22.732  1.00  0.00     0.011 C 
HETATM   17  C19 UNL     1     -17.983   5.722  21.433  1.00  0.00     0.007 C 
HETATM   18  C18 UNL     1     -19.326   5.111  21.667  1.00  0.00     0.007 C 
BRANCH  16  19
HETATM   19  C1  UNL     1     -16.353   5.158  23.167  1.00  0.00     0.234 C 
BRANCH  19  20
HETATM   20  N1  UNL     1     -16.951   4.318  24.186  1.00  0.00    -0.079 N 
ATOM     21  H13 UNL     1     -17.793   4.727  24.589  1.00  0.00     0.274 HD
ATOM     22  H12 UNL     1     -17.378   3.475  23.800  1.00  0.00     0.274 HD
ATOM     23  H11 UNL     1     -16.238   4.113  24.887  1.00  0.00     0.274 HD
ENDBRANCH  19  20
ENDBRANCH  16  19
ENDBRANCH  12  13
ENDBRANCH  10  12
ENDBRANCH   1  10
BRANCH   7  24
HETATM   24  O1  UNL     1     -22.370   0.074  21.613  1.00  0.00    -0.290 OA
BRANCH  24  25
HETATM   25  C11 UNL     1     -22.233  -1.113  20.963  1.00  0.00     0.101 A 
HETATM   26  C12 UNL     1     -20.995  -1.507  20.509  1.00  0.00     0.065 A 
HETATM   27  C13 UNL     1     -20.807  -2.713  19.841  1.00  0.00     0.070 A 
HETATM   28 CL2  UNL     1     -19.191  -3.140  19.295  1.00  0.00    -0.081 Cl
HETATM   29  C14 UNL     1     -21.894  -3.530  19.630  1.00  0.00     0.089 A 
HETATM   30  C15 UNL     1     -23.129  -3.170  20.066  1.00  0.00     0.065 A 
HETATM   31  C16 UNL     1     -23.297  -1.946  20.741  1.00  0.00     0.070 A 
HETATM   32 CL3  UNL     1     -24.895  -1.567  21.312  1.00  0.00    -0.081 Cl
BRANCH  29  33
HETATM   33  O2  UNL     1     -21.682  -4.743  18.952  1.00  0.00    -0.359 OA
ATOM     34  H2  UNL     1     -22.403  -5.359  18.908  1.00  0.00     0.217 HD
ENDBRANCH  29  33
ENDBRANCH  24  25
ENDBRANCH   7  24
TORSDOF 8
ENDMDL
