MODEL 1
REMARK VINA RESULT: -3.133109852      0.000      0.000
REMARK  1 active torsions:
REMARK  status: ('A' for Active; 'I' for Inactive)
REMARK    1  A    between atoms: C2_2  and  C3_4 
ROOT
HETATM    1  C3  UNL     1       1.795  -3.112 -22.164  1.00  0.00     0.200 C 
HETATM    2  C4  UNL     1       2.967  -2.186 -22.410  1.00  0.00     0.036 C 
HETATM    3  C5  UNL     1       2.875  -1.289 -21.166  1.00  0.00     0.029 C 
HETATM    4  C6  UNL     1       1.571  -1.647 -20.501  1.00  0.00     0.233 C 
HETATM    5  N1  UNL     1       0.809  -2.179 -21.642  1.00  0.00    -0.070 N 
ATOM      6  H11 UNL     1      -0.109  -2.568 -21.428  1.00  0.00     0.277 HD
ATOM      7  H12 UNL     1       0.448  -1.490 -22.302  1.00  0.00     0.277 HD
ENDROOT
BRANCH   1   8
HETATM    8  C2  UNL     1       1.362  -3.740 -23.458  1.00  0.00     0.085 C 
HETATM    9  C1  UNL     1       1.393  -5.233 -23.423  1.00  0.00     0.024 C 
HETATM   10  S1  UNL     1       2.563  -3.197 -24.732  1.00  0.00    -0.091 SA
ENDBRANCH   1   8
TORSDOF 1
ENDMDL
MODEL 2
REMARK VINA RESULT: -3.099846683      1.322      1.459
REMARK  1 active torsions:
REMARK  status: ('A' for Active; 'I' for Inactive)
REMARK    1  A    between atoms: C2_2  and  C3_4 
ROOT
HETATM    1  C3  UNL     1       2.118  -3.371 -22.244  1.00  0.00     0.200 C 
HETATM    2  C4  UNL     1       3.112  -2.273 -22.557  1.00  0.00     0.036 C 
HETATM    3  C5  UNL     1       2.889  -1.347 -21.351  1.00  0.00     0.029 C 
HETATM    4  C6  UNL     1       1.675  -1.889 -20.640  1.00  0.00     0.233 C 
HETATM    5  N1  UNL     1       0.997  -2.594 -21.740  1.00  0.00    -0.070 N 
ATOM      6  H11 UNL     1       0.161  -3.122 -21.488  1.00  0.00     0.277 HD
ATOM      7  H12 UNL     1       0.514  -2.007 -22.420  1.00  0.00     0.277 HD
ENDROOT
BRANCH   1   8
HETATM    8  C2  UNL     1       1.777  -4.122 -23.499  1.00  0.00     0.085 C 
HETATM    9  C1  UNL     1       0.723  -3.450 -24.316  1.00  0.00     0.024 C 
HETATM   10  S1  UNL     1       1.109  -5.746 -22.973  1.00  0.00    -0.091 SA
ENDBRANCH   1   8
TORSDOF 1
ENDMDL
MODEL 3
REMARK VINA RESULT: -3.046058389      1.554      1.767
REMARK  1 active torsions:
REMARK  status: ('A' for Active; 'I' for Inactive)
REMARK    1  A    between atoms: C2_2  and  C3_4 
ROOT
HETATM    1  C3  UNL     1       2.270  -2.656 -21.377  1.00  0.00     0.200 C 
HETATM    2  C4  UNL     1       2.892  -1.280 -21.485  1.00  0.00     0.036 C 
HETATM    3  C5  UNL     1       1.825  -0.438 -20.768  1.00  0.00     0.029 C 
HETATM    4  C6  UNL     1       0.655  -1.364 -20.549  1.00  0.00     0.233 C 
HETATM    5  N1  UNL     1       0.870  -2.348 -21.621  1.00  0.00    -0.070 N 
ATOM      6  H11 UNL     1       0.231  -3.143 -21.637  1.00  0.00     0.277 HD
ATOM      7  H12 UNL     1       0.636  -2.043 -22.566  1.00  0.00     0.277 HD
ENDROOT
BRANCH   1   8
HETATM    8  C2  UNL     1       2.850  -3.562 -22.425  1.00  0.00     0.085 C 
HETATM    9  C1  UNL     1       3.357  -2.823 -23.621  1.00  0.00     0.024 C 
HETATM   10  S1  UNL     1       1.488  -4.650 -22.991  1.00  0.00    -0.091 SA
ENDBRANCH   1   8
TORSDOF 1
ENDMDL
MODEL 4
REMARK VINA RESULT: -3.013251474     10.927     11.260
REMARK  1 active torsions:
REMARK  status: ('A' for Active; 'I' for Inactive)
REMARK    1  A    between atoms: C2_2  and  C3_4 
ROOT
HETATM    1  C3  UNL     1       7.891  -8.366 -29.408  1.00  0.00     0.200 C 
HETATM    2  C4  UNL     1       8.737  -8.845 -28.247  1.00  0.00     0.036 C 
HETATM    3  C5  UNL     1      10.028  -8.051 -28.500  1.00  0.00     0.029 C 
HETATM    4  C6  UNL     1       9.855  -7.413 -29.855  1.00  0.00     0.233 C 
HETATM    5  N1  UNL     1       8.880  -8.326 -30.473  1.00  0.00    -0.070 N 
ATOM      6  H11 UNL     1       8.537  -8.059 -31.396  1.00  0.00     0.277 HD
ATOM      7  H12 UNL     1       9.243  -9.227 -30.784  1.00  0.00     0.277 HD
ENDROOT
BRANCH   1   8
HETATM    8  C2  UNL     1       6.794  -9.355 -29.681  1.00  0.00     0.085 C 
HETATM    9  C1  UNL     1       6.741  -9.792 -31.108  1.00  0.00     0.024 C 
HETATM   10  S1  UNL     1       5.214  -8.499 -29.312  1.00  0.00    -0.091 SA
ENDBRANCH   1   8
TORSDOF 1
ENDMDL
MODEL 5
REMARK VINA RESULT: -2.930807215      2.463      3.821
REMARK  1 active torsions:
REMARK  status: ('A' for Active; 'I' for Inactive)
REMARK    1  A    between atoms: C2_2  and  C3_4 
ROOT
HETATM    1  C3  UNL     1       1.244  -1.233 -21.878  1.00  0.00     0.200 C 
HETATM    2  C4  UNL     1       2.706  -1.299 -21.491  1.00  0.00     0.036 C 
HETATM    3  C5  UNL     1       3.136  -2.563 -22.251  1.00  0.00     0.029 C 
HETATM    4  C6  UNL     1       1.862  -3.176 -22.775  1.00  0.00     0.233 C 
HETATM    5  N1  UNL     1       0.879  -2.639 -21.821  1.00  0.00    -0.070 N 
ATOM      6  H11 UNL     1      -0.099  -2.858 -22.012  1.00  0.00     0.277 HD
ATOM      7  H12 UNL     1       0.872  -3.065 -20.894  1.00  0.00     0.277 HD
ENDROOT
BRANCH   1   8
HETATM    8  C2  UNL     1       0.489  -0.403 -20.879  1.00  0.00     0.085 C 
HETATM    9  C1  UNL     1       1.281   0.753 -20.362  1.00  0.00     0.024 C 
HETATM   10  S1  UNL     1       0.126  -1.498 -19.455  1.00  0.00    -0.091 SA
ENDBRANCH   1   8
TORSDOF 1
ENDMDL
