MODEL 1
REMARK VINA RESULT: -6.550783196      0.000      0.000
REMARK  11 active torsions:
REMARK  status: ('A' for Active; 'I' for Inactive)
REMARK    1  A    between atoms: C2_2  and  C3_3 
REMARK    2  A    between atoms: C3_3  and  C4_4 
REMARK    3  A    between atoms: C4_4  and  C5_5 
REMARK    4  A    between atoms: C5_5  and  C6_6 
REMARK    5  A    between atoms: C6_6  and  C7_7 
REMARK    6  A    between atoms: N3_20  and  C13_21 
REMARK    7  A    between atoms: C13_21  and  C14_22 
REMARK    8  A    between atoms: C14_22  and  N4_23 
REMARK    9  A    between atoms: C20_29  and  C21_30 
REMARK   10  A    between atoms: N6_35  and  C24_36 
REMARK   11  A    between atoms: C24_36  and  C25_37 
ROOT
HETATM    1  C5  UNL     1      -7.123  17.291  25.497  1.00  0.00     0.099 C 
HETATM    2  C9  UNL     1      -8.217  16.769  26.382  1.00  0.00     0.214 C 
HETATM    3  O1  UNL     1      -8.132  17.314  27.472  1.00  0.00    -0.290 OA
HETATM    4  C10 UNL     1      -9.328  15.842  26.372  1.00  0.00     0.262 C 
HETATM    5  N1  UNL     1     -10.061  15.827  27.611  1.00  0.00    -0.301 N 
ATOM      6  H1  UNL     1     -10.873  16.413  27.811  1.00  0.00     0.167 HD
HETATM    7  C11 UNL     1      -9.496  14.879  28.524  1.00  0.00     0.325 C 
HETATM    8  O2  UNL     1      -9.682  14.837  29.758  1.00  0.00    -0.247 OA
HETATM    9  N2  UNL     1      -8.682  13.997  27.721  1.00  0.00    -0.275 N 
ATOM     10  H2  UNL     1      -8.135  13.204  28.059  1.00  0.00     0.173 HD
HETATM   11  C12 UNL     1      -8.781  14.431  26.393  1.00  0.00     0.283 C 
HETATM   12  O3  UNL     1      -8.483  13.804  25.370  1.00  0.00    -0.268 OA
HETATM   13  N3  UNL     1     -10.191  15.962  25.245  1.00  0.00    -0.315 N 
HETATM   14  C17 UNL     1      -9.675  15.990  23.900  1.00  0.00     0.063 A 
HETATM   15  C18 UNL     1     -10.623  15.515  22.992  1.00  0.00     0.033 A 
HETATM   16  C19 UNL     1     -10.396  15.438  21.627  1.00  0.00     0.019 A 
HETATM   17  C20 UNL     1      -9.200  15.837  21.118  1.00  0.00     0.031 A 
HETATM   18  C22 UNL     1      -8.247  16.310  21.994  1.00  0.00     0.048 A 
HETATM   19  C23 UNL     1      -8.456  16.395  23.369  1.00  0.00     0.059 A 
HETATM   20  N6  UNL     1      -7.320  16.920  24.078  1.00  0.00    -0.357 N 
ENDROOT
BRANCH  13  21
HETATM   21  C13 UNL     1     -11.580  16.083  25.378  1.00  0.00     0.098 C 
BRANCH  21  22
HETATM   22  C14 UNL     1     -12.428  14.861  25.353  1.00  0.00     0.316 C 
BRANCH  22  23
HETATM   23  N4  UNL     1     -12.462  14.243  26.664  1.00  0.00     0.084 N 
HETATM   24  C15 UNL     1     -13.682  14.374  27.377  1.00  0.00     0.309 C 
HETATM   25  C16 UNL     1     -12.174  12.803  26.551  1.00  0.00     0.309 C 
ENDBRANCH  22  23
ENDBRANCH  21  22
ENDBRANCH  13  21
BRANCH   1  26
HETATM   26  C4  UNL     1      -5.837  16.738  25.962  1.00  0.00     0.039 C 
BRANCH  26  27
HETATM   27  C3  UNL     1      -5.644  16.418  27.418  1.00  0.00     0.002 C 
BRANCH  27  28
HETATM   28  C2  UNL     1      -4.360  17.254  27.779  1.00  0.00    -0.004 C 
HETATM   29  C1  UNL     1      -3.567  17.550  26.548  1.00  0.00     0.005 C 
ENDBRANCH  27  28
ENDBRANCH  26  27
ENDBRANCH   1  26
BRANCH   1  30
HETATM   30  C6  UNL     1      -7.190  18.778  25.431  1.00  0.00     0.039 C 
BRANCH  30  31
HETATM   31  C7  UNL     1      -6.650  19.673  26.439  1.00  0.00    -0.002 C 
HETATM   32  C8  UNL     1      -5.438  20.373  25.699  1.00  0.00     0.005 C 
ENDBRANCH  30  31
ENDBRANCH   1  30
BRANCH  20  33
HETATM   33  C24 UNL     1      -6.195  17.119  23.219  1.00  0.00     0.183 C 
BRANCH  33  34
HETATM   34  C25 UNL     1      -5.968  18.455  22.658  1.00  0.00     0.045 A 
HETATM   35  C26 UNL     1      -6.821  19.366  22.115  1.00  0.00     0.115 A 
HETATM   36  N7  UNL     1      -6.157  20.454  21.748  1.00  0.00    -0.360 N 
HETATM   37  C27 UNL     1      -4.867  20.247  22.056  1.00  0.00     0.182 A 
ATOM     38  H7  UNL     1      -6.551  21.289  21.315  1.00  0.00     0.166 HD
HETATM   39  N8  UNL     1      -4.742  19.039  22.607  1.00  0.00    -0.348 N 
HETATM   40  C28 UNL     1      -3.471  18.492  23.060  1.00  0.00     0.157 C 
ENDBRANCH  33  34
ENDBRANCH  20  33
BRANCH  17  41
HETATM   41  C21 UNL     1      -8.876  15.789  19.707  1.00  0.00     0.265 C 
HETATM   42  N5  UNL     1      -7.513  15.781  19.311  1.00  0.00    -0.057 NA
HETATM   43  O4  UNL     1      -9.770  15.753  18.808  1.00  0.00    -0.271 OA
ENDBRANCH  17  41
TORSDOF 11
ENDMDL
MODEL 2
REMARK VINA RESULT: -6.252668135      1.200      1.373
REMARK  11 active torsions:
REMARK  status: ('A' for Active; 'I' for Inactive)
REMARK    1  A    between atoms: C2_2  and  C3_3 
REMARK    2  A    between atoms: C3_3  and  C4_4 
REMARK    3  A    between atoms: C4_4  and  C5_5 
REMARK    4  A    between atoms: C5_5  and  C6_6 
REMARK    5  A    between atoms: C6_6  and  C7_7 
REMARK    6  A    between atoms: N3_20  and  C13_21 
REMARK    7  A    between atoms: C13_21  and  C14_22 
REMARK    8  A    between atoms: C14_22  and  N4_23 
REMARK    9  A    between atoms: C20_29  and  C21_30 
REMARK   10  A    between atoms: N6_35  and  C24_36 
REMARK   11  A    between atoms: C24_36  and  C25_37 
ROOT
HETATM    1  C5  UNL     1      -7.139  17.242  26.390  1.00  0.00     0.099 C 
HETATM    2  C9  UNL     1      -8.141  16.961  27.471  1.00  0.00     0.214 C 
HETATM    3  O1  UNL     1      -7.830  17.593  28.469  1.00  0.00    -0.290 OA
HETATM    4  C10 UNL     1      -9.343  16.194  27.720  1.00  0.00     0.262 C 
HETATM    5  N1  UNL     1      -9.879  16.399  29.040  1.00  0.00    -0.301 N 
ATOM      6  H1  UNL     1     -10.576  17.105  29.281  1.00  0.00     0.167 HD
HETATM    7  C11 UNL     1      -9.300  15.476  29.971  1.00  0.00     0.325 C 
HETATM    8  O2  UNL     1      -9.302  15.580  31.216  1.00  0.00    -0.247 OA
HETATM    9  N2  UNL     1      -8.726  14.420  29.172  1.00  0.00    -0.275 N 
ATOM     10  H2  UNL     1      -8.233  13.597  29.521  1.00  0.00     0.173 HD
HETATM   11  C12 UNL     1      -8.971  14.732  27.829  1.00  0.00     0.283 C 
HETATM   12  O3  UNL     1      -8.907  13.974  26.854  1.00  0.00    -0.268 OA
HETATM   13  N3  UNL     1     -10.346  16.319  26.715  1.00  0.00    -0.315 N 
HETATM   14  C17 UNL     1     -10.038  16.147  25.318  1.00  0.00     0.063 A 
HETATM   15  C18 UNL     1     -11.161  15.718  24.609  1.00  0.00     0.033 A 
HETATM   16  C19 UNL     1     -11.152  15.478  23.244  1.00  0.00     0.019 A 
HETATM   17  C20 UNL     1     -10.008  15.662  22.534  1.00  0.00     0.031 A 
HETATM   18  C22 UNL     1      -8.885  16.085  23.211  1.00  0.00     0.048 A 
HETATM   19  C23 UNL     1      -8.873  16.331  24.582  1.00  0.00     0.059 A 
HETATM   20  N6  UNL     1      -7.589  16.765  25.063  1.00  0.00    -0.357 N 
ENDROOT
BRANCH  13  21
HETATM   21  C13 UNL     1     -11.674  16.637  27.022  1.00  0.00     0.098 C 
BRANCH  21  22
HETATM   22  C14 UNL     1     -12.707  15.568  27.004  1.00  0.00     0.316 C 
BRANCH  22  23
HETATM   23  N4  UNL     1     -12.396  14.549  27.989  1.00  0.00     0.084 N 
HETATM   24  C15 UNL     1     -13.311  14.434  29.068  1.00  0.00     0.309 C 
HETATM   25  C16 UNL     1     -12.315  13.229  27.341  1.00  0.00     0.309 C 
ENDBRANCH  22  23
ENDBRANCH  21  22
ENDBRANCH  13  21
BRANCH   1  26
HETATM   26  C4  UNL     1      -5.872  16.570  26.736  1.00  0.00     0.039 C 
BRANCH  26  27
HETATM   27  C3  UNL     1      -5.014  17.117  27.842  1.00  0.00     0.002 C 
BRANCH  27  28
HETATM   28  C2  UNL     1      -3.631  17.330  27.120  1.00  0.00    -0.004 C 
HETATM   29  C1  UNL     1      -3.688  16.813  25.719  1.00  0.00     0.005 C 
ENDBRANCH  27  28
ENDBRANCH  26  27
ENDBRANCH   1  26
BRANCH   1  30
HETATM   30  C6  UNL     1      -7.038  18.712  26.163  1.00  0.00     0.039 C 
BRANCH  30  31
HETATM   31  C7  UNL     1      -5.896  19.528  26.536  1.00  0.00    -0.002 C 
HETATM   32  C8  UNL     1      -5.395  20.115  25.153  1.00  0.00     0.005 C 
ENDBRANCH  30  31
ENDBRANCH   1  30
BRANCH  20  33
HETATM   33  C24 UNL     1      -6.591  16.727  24.042  1.00  0.00     0.183 C 
BRANCH  33  34
HETATM   34  C25 UNL     1      -6.585  17.784  23.025  1.00  0.00     0.045 A 
HETATM   35  C26 UNL     1      -7.589  18.534  22.494  1.00  0.00     0.115 A 
HETATM   36  N7  UNL     1      -7.101  19.387  21.602  1.00  0.00    -0.360 N 
HETATM   37  C27 UNL     1      -5.775  19.189  21.557  1.00  0.00     0.182 A 
ATOM     38  H7  UNL     1      -7.633  20.064  21.055  1.00  0.00     0.166 HD
HETATM   39  N8  UNL     1      -5.452  18.220  22.415  1.00  0.00    -0.348 N 
HETATM   40  C28 UNL     1      -4.089  17.751  22.618  1.00  0.00     0.157 C 
ENDBRANCH  33  34
ENDBRANCH  20  33
BRANCH  17  41
HETATM   41  C21 UNL     1      -9.907  15.434  21.107  1.00  0.00     0.265 C 
HETATM   42  N5  UNL     1      -8.698  14.918  20.573  1.00  0.00    -0.057 NA
HETATM   43  O4  UNL     1     -10.866  15.679  20.313  1.00  0.00    -0.271 OA
ENDBRANCH  17  41
TORSDOF 11
ENDMDL
MODEL 3
REMARK VINA RESULT: -6.050516976      2.749      6.873
REMARK  11 active torsions:
REMARK  status: ('A' for Active; 'I' for Inactive)
REMARK    1  A    between atoms: C2_2  and  C3_3 
REMARK    2  A    between atoms: C3_3  and  C4_4 
REMARK    3  A    between atoms: C4_4  and  C5_5 
REMARK    4  A    between atoms: C5_5  and  C6_6 
REMARK    5  A    between atoms: C6_6  and  C7_7 
REMARK    6  A    between atoms: N3_20  and  C13_21 
REMARK    7  A    between atoms: C13_21  and  C14_22 
REMARK    8  A    between atoms: C14_22  and  N4_23 
REMARK    9  A    between atoms: C20_29  and  C21_30 
REMARK   10  A    between atoms: N6_35  and  C24_36 
REMARK   11  A    between atoms: C24_36  and  C25_37 
ROOT
HETATM    1  C5  UNL     1      -6.172  18.259  24.732  1.00  0.00     0.099 C 
HETATM    2  C9  UNL     1      -5.024  18.960  24.066  1.00  0.00     0.214 C 
HETATM    3  O1  UNL     1      -4.118  19.085  24.875  1.00  0.00    -0.290 OA
HETATM    4  C10 UNL     1      -4.641  19.533  22.793  1.00  0.00     0.262 C 
HETATM    5  N1  UNL     1      -3.300  20.058  22.792  1.00  0.00    -0.301 N 
ATOM      6  H1  UNL     1      -2.470  19.528  22.524  1.00  0.00     0.167 HD
HETATM    7  C11 UNL     1      -3.290  21.425  23.221  1.00  0.00     0.325 C 
HETATM    8  O2  UNL     1      -2.299  22.067  23.626  1.00  0.00    -0.247 OA
HETATM    9  N2  UNL     1      -4.650  21.890  23.083  1.00  0.00    -0.275 N 
ATOM     10  H2  UNL     1      -4.994  22.826  23.303  1.00  0.00     0.173 HD
HETATM   11  C12 UNL     1      -5.409  20.821  22.591  1.00  0.00     0.283 C 
HETATM   12  O3  UNL     1      -6.529  20.868  22.069  1.00  0.00    -0.268 OA
HETATM   13  N3  UNL     1      -4.884  18.695  21.667  1.00  0.00    -0.315 N 
HETATM   14  C17 UNL     1      -6.163  18.065  21.458  1.00  0.00     0.063 A 
HETATM   15  C18 UNL     1      -6.384  17.823  20.102  1.00  0.00     0.033 A 
HETATM   16  C19 UNL     1      -7.533  17.220  19.615  1.00  0.00     0.019 A 
HETATM   17  C20 UNL     1      -8.510  16.835  20.477  1.00  0.00     0.031 A 
HETATM   18  C22 UNL     1      -8.316  17.062  21.822  1.00  0.00     0.048 A 
HETATM   19  C23 UNL     1      -7.169  17.667  22.332  1.00  0.00     0.059 A 
HETATM   20  N6  UNL     1      -7.191  17.797  23.763  1.00  0.00    -0.357 N 
ENDROOT
BRANCH  13  21
HETATM   21  C13 UNL     1      -3.894  18.417  20.717  1.00  0.00     0.098 C 
BRANCH  21  22
HETATM   22  C14 UNL     1      -2.922  17.320  20.970  1.00  0.00     0.316 C 
BRANCH  22  23
HETATM   23  N4  UNL     1      -2.934  16.372  19.872  1.00  0.00     0.084 N 
HETATM   24  C15 UNL     1      -3.049  16.933  18.574  1.00  0.00     0.309 C 
HETATM   25  C16 UNL     1      -1.704  15.562  19.891  1.00  0.00     0.309 C 
ENDBRANCH  22  23
ENDBRANCH  21  22
ENDBRANCH  13  21
BRANCH   1  26
HETATM   26  C4  UNL     1      -6.804  19.191  25.685  1.00  0.00     0.039 C 
BRANCH  26  27
HETATM   27  C3  UNL     1      -6.548  19.039  27.158  1.00  0.00     0.002 C 
BRANCH  27  28
HETATM   28  C2  UNL     1      -7.856  18.317  27.654  1.00  0.00    -0.004 C 
HETATM   29  C1  UNL     1      -7.520  17.257  28.653  1.00  0.00     0.005 C 
ENDBRANCH  27  28
ENDBRANCH  26  27
ENDBRANCH   1  26
BRANCH   1  30
HETATM   30  C6  UNL     1      -5.706  16.969  25.316  1.00  0.00     0.039 C 
BRANCH  30  31
HETATM   31  C7  UNL     1      -4.317  16.635  25.575  1.00  0.00    -0.002 C 
HETATM   32  C8  UNL     1      -4.238  16.587  27.156  1.00  0.00     0.005 C 
ENDBRANCH  30  31
ENDBRANCH   1  30
BRANCH  20  33
HETATM   33  C24 UNL     1      -8.441  17.385  24.321  1.00  0.00     0.183 C 
BRANCH  33  34
HETATM   34  C25 UNL     1      -8.554  16.027  24.862  1.00  0.00     0.045 A 
HETATM   35  C26 UNL     1      -7.832  14.897  24.629  1.00  0.00     0.115 A 
HETATM   36  N7  UNL     1      -8.297  13.895  25.365  1.00  0.00    -0.360 N 
HETATM   37  C27 UNL     1      -9.325  14.380  26.079  1.00  0.00     0.182 A 
ATOM     38  H7  UNL     1      -7.942  12.940  25.385  1.00  0.00     0.166 HD
HETATM   39  N8  UNL     1      -9.489  15.670  25.782  1.00  0.00    -0.348 N 
HETATM   40  C28 UNL     1     -10.520  16.506  26.380  1.00  0.00     0.157 C 
ENDBRANCH  33  34
ENDBRANCH  20  33
BRANCH  17  41
HETATM   41  C21 UNL     1      -9.743  16.200  20.057  1.00  0.00     0.265 C 
HETATM   42  N5  UNL     1     -10.725  15.885  21.031  1.00  0.00    -0.057 NA
HETATM   43  O4  UNL     1      -9.978  15.916  18.843  1.00  0.00    -0.271 OA
ENDBRANCH  17  41
TORSDOF 11
ENDMDL
MODEL 4
REMARK VINA RESULT: -5.982362816      2.889      8.751
REMARK  11 active torsions:
REMARK  status: ('A' for Active; 'I' for Inactive)
REMARK    1  A    between atoms: C2_2  and  C3_3 
REMARK    2  A    between atoms: C3_3  and  C4_4 
REMARK    3  A    between atoms: C4_4  and  C5_5 
REMARK    4  A    between atoms: C5_5  and  C6_6 
REMARK    5  A    between atoms: C6_6  and  C7_7 
REMARK    6  A    between atoms: N3_20  and  C13_21 
REMARK    7  A    between atoms: C13_21  and  C14_22 
REMARK    8  A    between atoms: C14_22  and  N4_23 
REMARK    9  A    between atoms: C20_29  and  C21_30 
REMARK   10  A    between atoms: N6_35  and  C24_36 
REMARK   11  A    between atoms: C24_36  and  C25_37 
ROOT
HETATM    1  C5  UNL     1     -11.391  14.939  27.627  1.00  0.00     0.099 C 
HETATM    2  C9  UNL     1     -10.525  15.417  26.498  1.00  0.00     0.214 C 
HETATM    3  O1  UNL     1     -11.144  15.299  25.452  1.00  0.00    -0.290 OA
HETATM    4  C10 UNL     1      -9.210  15.965  26.242  1.00  0.00     0.262 C 
HETATM    5  N1  UNL     1      -8.985  16.265  24.852  1.00  0.00    -0.301 N 
ATOM      6  H1  UNL     1      -9.176  17.168  24.415  1.00  0.00     0.167 HD
HETATM    7  C11 UNL     1      -8.458  15.123  24.166  1.00  0.00     0.325 C 
HETATM    8  O2  UNL     1      -8.446  14.942  22.930  1.00  0.00    -0.247 OA
HETATM    9  N2  UNL     1      -7.952  14.246  25.194  1.00  0.00    -0.275 N 
ATOM     10  H2  UNL     1      -7.507  13.339  25.049  1.00  0.00     0.173 HD
HETATM   11  C12 UNL     1      -8.184  14.869  26.426  1.00  0.00     0.283 C 
HETATM   12  O3  UNL     1      -7.663  14.605  27.516  1.00  0.00    -0.268 OA
HETATM   13  N3  UNL     1      -8.846  17.054  27.086  1.00  0.00    -0.315 N 
HETATM   14  C17 UNL     1      -8.980  16.975  28.519  1.00  0.00     0.063 A 
HETATM   15  C18 UNL     1      -8.065  17.817  29.151  1.00  0.00     0.033 A 
HETATM   16  C19 UNL     1      -7.977  17.945  30.529  1.00  0.00     0.019 A 
HETATM   17  C20 UNL     1      -8.810  17.227  31.328  1.00  0.00     0.031 A 
HETATM   18  C22 UNL     1      -9.723  16.388  30.727  1.00  0.00     0.048 A 
HETATM   19  C23 UNL     1      -9.827  16.245  29.345  1.00  0.00     0.059 A 
HETATM   20  N6  UNL     1     -10.851  15.316  28.952  1.00  0.00    -0.357 N 
ENDROOT
BRANCH  13  21
HETATM   21  C13 UNL     1      -8.364  18.265  26.575  1.00  0.00     0.098 C 
BRANCH  21  22
HETATM   22  C14 UNL     1      -6.906  18.553  26.624  1.00  0.00     0.316 C 
BRANCH  22  23
HETATM   23  N4  UNL     1      -6.296  18.296  25.333  1.00  0.00     0.084 N 
HETATM   24  C15 UNL     1      -5.473  19.333  24.823  1.00  0.00     0.309 C 
HETATM   25  C16 UNL     1      -5.474  17.076  25.397  1.00  0.00     0.309 C 
ENDBRANCH  22  23
ENDBRANCH  21  22
ENDBRANCH  13  21
BRANCH   1  26
HETATM   26  C4  UNL     1     -11.493  13.469  27.551  1.00  0.00     0.039 C 
BRANCH  26  27
HETATM   27  C3  UNL     1     -12.152  12.826  26.363  1.00  0.00     0.002 C 
BRANCH  27  28
HETATM   28  C2  UNL     1     -13.069  11.737  27.035  1.00  0.00    -0.004 C 
HETATM   29  C1  UNL     1     -12.780  11.642  28.498  1.00  0.00     0.005 C 
ENDBRANCH  27  28
ENDBRANCH  26  27
ENDBRANCH   1  26
BRANCH   1  30
HETATM   30  C6  UNL     1     -12.690  15.669  27.612  1.00  0.00     0.039 C 
BRANCH  30  31
HETATM   31  C7  UNL     1     -13.981  15.050  27.367  1.00  0.00    -0.002 C 
HETATM   32  C8  UNL     1     -14.527  14.748  28.822  1.00  0.00     0.005 C 
ENDBRANCH  30  31
ENDBRANCH   1  30
BRANCH  20  33
HETATM   33  C24 UNL     1     -11.443  14.661  30.076  1.00  0.00     0.183 C 
BRANCH  33  34
HETATM   34  C25 UNL     1     -10.568  14.189  31.154  1.00  0.00     0.045 A 
HETATM   35  C26 UNL     1      -9.272  13.773  31.152  1.00  0.00     0.115 A 
HETATM   36  N7  UNL     1      -8.893  13.447  32.381  1.00  0.00    -0.360 N 
HETATM   37  C27 UNL     1      -9.949  13.655  33.184  1.00  0.00     0.182 A 
ATOM     38  H7  UNL     1      -7.974  13.105  32.662  1.00  0.00     0.166 HD
HETATM   39  N8  UNL     1     -10.968  14.104  32.450  1.00  0.00    -0.348 N 
HETATM   40  C28 UNL     1     -12.273  14.432  33.008  1.00  0.00     0.157 C 
ENDBRANCH  33  34
ENDBRANCH  20  33
BRANCH  17  41
HETATM   41  C21 UNL     1      -8.786  17.296  32.775  1.00  0.00     0.265 C 
HETATM   42  N5  UNL     1     -10.011  17.244  33.489  1.00  0.00    -0.057 NA
HETATM   43  O4  UNL     1      -7.705  17.401  33.430  1.00  0.00    -0.271 OA
ENDBRANCH  17  41
TORSDOF 11
ENDMDL
MODEL 5
REMARK VINA RESULT: -5.816474389      1.600      2.168
REMARK  11 active torsions:
REMARK  status: ('A' for Active; 'I' for Inactive)
REMARK    1  A    between atoms: C2_2  and  C3_3 
REMARK    2  A    between atoms: C3_3  and  C4_4 
REMARK    3  A    between atoms: C4_4  and  C5_5 
REMARK    4  A    between atoms: C5_5  and  C6_6 
REMARK    5  A    between atoms: C6_6  and  C7_7 
REMARK    6  A    between atoms: N3_20  and  C13_21 
REMARK    7  A    between atoms: C13_21  and  C14_22 
REMARK    8  A    between atoms: C14_22  and  N4_23 
REMARK    9  A    between atoms: C20_29  and  C21_30 
REMARK   10  A    between atoms: N6_35  and  C24_36 
REMARK   11  A    between atoms: C24_36  and  C25_37 
ROOT
HETATM    1  C5  UNL     1      -7.386  17.324  26.135  1.00  0.00     0.099 C 
HETATM    2  C9  UNL     1      -8.256  16.808  27.243  1.00  0.00     0.214 C 
HETATM    3  O1  UNL     1      -7.892  17.311  28.295  1.00  0.00    -0.290 OA
HETATM    4  C10 UNL     1      -9.374  15.919  27.475  1.00  0.00     0.262 C 
HETATM    5  N1  UNL     1      -9.791  15.885  28.853  1.00  0.00    -0.301 N 
ATOM      6  H1  UNL     1     -10.506  16.490  29.258  1.00  0.00     0.167 HD
HETATM    7  C11 UNL     1      -9.063  14.886  29.579  1.00  0.00     0.325 C 
HETATM    8  O2  UNL     1      -8.950  14.808  30.820  1.00  0.00    -0.247 OA
HETATM    9  N2  UNL     1      -8.501  14.007  28.581  1.00  0.00    -0.275 N 
ATOM     10  H2  UNL     1      -7.922  13.185  28.757  1.00  0.00     0.173 HD
HETATM   11  C12 UNL     1      -8.896  14.491  27.328  1.00  0.00     0.283 C 
HETATM   12  O3  UNL     1      -8.877  13.891  26.247  1.00  0.00    -0.268 OA
HETATM   13  N3  UNL     1     -10.476  16.107  26.593  1.00  0.00    -0.315 N 
HETATM   14  C17 UNL     1     -10.296  16.165  25.164  1.00  0.00     0.063 A 
HETATM   15  C18 UNL     1     -11.452  15.755  24.499  1.00  0.00     0.033 A 
HETATM   16  C19 UNL     1     -11.560  15.718  23.117  1.00  0.00     0.019 A 
HETATM   17  C20 UNL     1     -10.506  16.094  22.346  1.00  0.00     0.031 A 
HETATM   18  C22 UNL     1      -9.353  16.504  22.980  1.00  0.00     0.048 A 
HETATM   19  C23 UNL     1      -9.223  16.548  24.367  1.00  0.00     0.059 A 
HETATM   20  N6  UNL     1      -7.931  17.010  24.795  1.00  0.00    -0.357 N 
ENDROOT
BRANCH  13  21
HETATM   21  C13 UNL     1     -11.787  16.269  27.058  1.00  0.00     0.098 C 
BRANCH  21  22
HETATM   22  C14 UNL     1     -12.716  15.108  27.053  1.00  0.00     0.316 C 
BRANCH  22  23
HETATM   23  N4  UNL     1     -12.832  14.548  28.386  1.00  0.00     0.084 N 
HETATM   24  C15 UNL     1     -14.153  14.415  28.887  1.00  0.00     0.309 C 
HETATM   25  C16 UNL     1     -12.213  13.212  28.428  1.00  0.00     0.309 C 
ENDBRANCH  22  23
ENDBRANCH  21  22
ENDBRANCH  13  21
BRANCH   1  26
HETATM   26  C4  UNL     1      -6.049  16.712  26.263  1.00  0.00     0.039 C 
BRANCH  26  27
HETATM   27  C3  UNL     1      -5.248  16.924  27.518  1.00  0.00     0.002 C 
BRANCH  27  28
HETATM   28  C2  UNL     1      -3.815  17.245  26.952  1.00  0.00    -0.004 C 
HETATM   29  C1  UNL     1      -3.776  17.025  25.474  1.00  0.00     0.005 C 
ENDBRANCH  27  28
ENDBRANCH  26  27
ENDBRANCH   1  26
BRANCH   1  30
HETATM   30  C6  UNL     1      -7.406  18.814  26.127  1.00  0.00     0.039 C 
BRANCH  30  31
HETATM   31  C7  UNL     1      -6.264  19.656  26.435  1.00  0.00    -0.002 C 
HETATM   32  C8  UNL     1      -5.616  19.932  25.016  1.00  0.00     0.005 C 
ENDBRANCH  30  31
ENDBRANCH   1  30
BRANCH  20  33
HETATM   33  C24 UNL     1      -7.037  17.201  23.697  1.00  0.00     0.183 C 
BRANCH  33  34
HETATM   34  C25 UNL     1      -7.054  16.227  22.601  1.00  0.00     0.045 A 
HETATM   35  C26 UNL     1      -7.288  14.886  22.585  1.00  0.00     0.115 A 
HETATM   36  N7  UNL     1      -7.208  14.422  21.344  1.00  0.00    -0.360 N 
HETATM   37  C27 UNL     1      -6.921  15.468  20.553  1.00  0.00     0.182 A 
ATOM     38  H7  UNL     1      -7.340  13.455  21.048  1.00  0.00     0.166 HD
HETATM   39  N8  UNL     1      -6.825  16.565  21.304  1.00  0.00    -0.348 N 
HETATM   40  C28 UNL     1      -6.523  17.883  20.763  1.00  0.00     0.157 C 
ENDBRANCH  33  34
ENDBRANCH  20  33
BRANCH  17  41
HETATM   41  C21 UNL     1     -10.530  16.086  20.898  1.00  0.00     0.265 C 
HETATM   42  N5  UNL     1     -10.095  17.237  20.193  1.00  0.00    -0.057 NA
HETATM   43  O4  UNL     1     -10.927  15.080  20.234  1.00  0.00    -0.271 OA
ENDBRANCH  17  41
TORSDOF 11
ENDMDL
