MODEL 1
REMARK VINA RESULT: -6.988334759      0.000      0.000
REMARK  14 active torsions:
REMARK  status: ('A' for Active; 'I' for Inactive)
REMARK    1  A    between atoms: C2_2  and  C3_3 
REMARK       I    between atoms: C3_3  and  N1_5 
REMARK    2  A    between atoms: N1_5  and  C5_7 
REMARK    3  A    between atoms: C6_8  and  C7_9 
REMARK    4  A    between atoms: C7_9  and  N2_11 
REMARK    5  A    between atoms: C12_17  and  N3_18 
REMARK    6  A    between atoms: N3_18  and  C13_20 
REMARK    7  A    between atoms: C17_28  and  O2_29 
REMARK    8  A    between atoms: O2_29  and  C18_30 
REMARK    9  A    between atoms: C20_32  and  O3_33 
REMARK   10  A    between atoms: O3_33  and  C21_34 
REMARK   11  A    between atoms: C21_34  and  C22_35 
REMARK       I    between atoms: C22_35  and  N6_37 
REMARK   12  A    between atoms: N6_37  and  C23_39 
REMARK   13  A    between atoms: C23_39  and  C24_40 
REMARK   14  A    between atoms: C24_40  and  N7_41 
ROOT
HETATM    1  C13 UNL     1      18.240  28.053   9.601  1.00  0.00     0.119 A 
HETATM    2  N4  UNL     1      17.039  28.612   9.401  1.00  0.00    -0.338 N 
ATOM      3  H4  UNL     1      16.572  28.479   8.504  1.00  0.00     0.168 HD
HETATM    4  C14 UNL     1      16.434  29.348  10.355  1.00  0.00     0.182 A 
HETATM    5  N5  UNL     1      17.056  29.519  11.534  1.00  0.00    -0.351 N 
ATOM      6  H5  UNL     1      16.593  30.075  12.253  1.00  0.00     0.166 HD
HETATM    7  C15 UNL     1      18.261  28.989  11.807  1.00  0.00     0.050 A 
HETATM    8  C16 UNL     1      18.901  29.158  13.003  1.00  0.00     0.070 A 
HETATM    9  C17 UNL     1      20.156  28.608  13.291  1.00  0.00     0.104 A 
HETATM   10  C20 UNL     1      20.725  27.868  12.278  1.00  0.00     0.103 A 
HETATM   11  C27 UNL     1      20.126  27.664  11.056  1.00  0.00     0.057 A 
HETATM   12  C28 UNL     1      18.884  28.234  10.831  1.00  0.00     0.038 A 
ENDROOT
BRANCH   1  13
HETATM   13  N3  UNL     1      18.874  27.342   8.739  1.00  0.00    -0.339 N 
ATOM     14  H3  UNL     1      19.888  27.402   8.653  1.00  0.00     0.167 HD
BRANCH  13  15
HETATM   15  C12 UNL     1      18.115  26.466   7.905  1.00  0.00     0.080 A 
HETATM   16  C11 UNL     1      17.559  25.339   8.488  1.00  0.00     0.063 A 
HETATM   17  C10 UNL     1      16.838  24.500   7.685  1.00  0.00     0.043 A 
HETATM   18 CL1  UNL     1      17.775  25.008  10.204  1.00  0.00    -0.082 Cl
HETATM   19  C6  UNL     1      16.636  24.714   6.328  1.00  0.00     0.032 A 
HETATM   20  C5  UNL     1      17.192  25.838   5.748  1.00  0.00     0.074 A 
HETATM   21  C29 UNL     1      17.930  26.700   6.567  1.00  0.00     0.090 A 
HETATM   22 CL2  UNL     1      18.643  28.140   5.836  1.00  0.00    -0.079 Cl
BRANCH  19  23
HETATM   23  C7  UNL     1      15.861  23.738   5.597  1.00  0.00     0.110 C 
HETATM   24  S1  UNL     1      14.243  23.723   5.790  1.00  0.00    -0.060 SA
BRANCH  23  25
HETATM   25  N2  UNL     1      16.452  22.805   4.713  1.00  0.00    -0.380 N 
HETATM   26  C8  UNL     1      15.979  22.695   3.316  1.00  0.00     0.150 C 
HETATM   27  C9  UNL     1      17.532  21.951   5.163  1.00  0.00     0.150 C 
ENDBRANCH  23  25
ENDBRANCH  19  23
BRANCH  20  28
HETATM   28  N1  UNL     1      17.047  26.145   4.369  1.00  0.00    -0.316 N 
HETATM   29  C3  UNL     1      18.005  25.771   3.394  1.00  0.00     0.246 C 
HETATM   30  O1  UNL     1      17.870  26.065   2.180  1.00  0.00    -0.268 OA
HETATM   31  C4  UNL     1      15.867  26.856   3.922  1.00  0.00     0.159 C 
BRANCH  29  32
HETATM   32  C2  UNL     1      19.213  25.016   3.749  1.00  0.00     0.064 C 
HETATM   33  C1  UNL     1      19.742  24.120   2.954  1.00  0.00     0.017 C 
ENDBRANCH  29  32
ENDBRANCH  20  28
ENDBRANCH  13  15
ENDBRANCH   1  13
BRANCH  10  34
HETATM   34  O3  UNL     1      21.967  27.290  12.487  1.00  0.00    -0.339 OA
BRANCH  34  35
HETATM   35  C21 UNL     1      23.164  27.861  12.016  1.00  0.00     0.278 C 
BRANCH  35  36
HETATM   36  C22 UNL     1      23.849  26.870  11.150  1.00  0.00     0.241 C 
HETATM   37  O4  UNL     1      24.497  25.906  11.689  1.00  0.00    -0.271 OA
HETATM   38  N6  UNL     1      23.788  26.990   9.735  1.00  0.00    -0.358 N 
ATOM     39  H6  UNL     1      23.267  27.776   9.346  1.00  0.00     0.162 HD
BRANCH  38  40
HETATM   40  C23 UNL     1      24.418  26.072   8.812  1.00  0.00     0.152 C 
BRANCH  40  41
HETATM   41  C24 UNL     1      23.492  24.952   8.495  1.00  0.00     0.290 C 
BRANCH  41  42
HETATM   42  N7  UNL     1      22.127  25.419   8.328  1.00  0.00     0.081 N 
HETATM   43  C25 UNL     1      21.726  25.579   6.964  1.00  0.00     0.309 C 
HETATM   44  C26 UNL     1      21.205  24.578   9.070  1.00  0.00     0.309 C 
ENDBRANCH  41  42
ENDBRANCH  40  41
ENDBRANCH  38  40
ENDBRANCH  35  36
ENDBRANCH  34  35
ENDBRANCH  10  34
BRANCH   9  45
HETATM   45  O2  UNL     1      20.755  28.811  14.516  1.00  0.00    -0.349 OA
BRANCH  45  46
HETATM   46  C18 UNL     1      21.023  30.139  14.921  1.00  0.00     0.171 C 
HETATM   47  C19 UNL     1      22.168  30.753  14.187  1.00  0.00     0.034 C 
ENDBRANCH  45  46
ENDBRANCH   9  45
TORSDOF 14
ENDMDL
MODEL 2
REMARK VINA RESULT: -6.808734319      2.737      5.654
REMARK  14 active torsions:
REMARK  status: ('A' for Active; 'I' for Inactive)
REMARK    1  A    between atoms: C2_2  and  C3_3 
REMARK       I    between atoms: C3_3  and  N1_5 
REMARK    2  A    between atoms: N1_5  and  C5_7 
REMARK    3  A    between atoms: C6_8  and  C7_9 
REMARK    4  A    between atoms: C7_9  and  N2_11 
REMARK    5  A    between atoms: C12_17  and  N3_18 
REMARK    6  A    between atoms: N3_18  and  C13_20 
REMARK    7  A    between atoms: C17_28  and  O2_29 
REMARK    8  A    between atoms: O2_29  and  C18_30 
REMARK    9  A    between atoms: C20_32  and  O3_33 
REMARK   10  A    between atoms: O3_33  and  C21_34 
REMARK   11  A    between atoms: C21_34  and  C22_35 
REMARK       I    between atoms: C22_35  and  N6_37 
REMARK   12  A    between atoms: N6_37  and  C23_39 
REMARK   13  A    between atoms: C23_39  and  C24_40 
REMARK   14  A    between atoms: C24_40  and  N7_41 
ROOT
HETATM    1  C13 UNL     1      19.620  26.246  10.868  1.00  0.00     0.119 A 
HETATM    2  N4  UNL     1      20.479  25.223  10.758  1.00  0.00    -0.338 N 
ATOM      3  H4  UNL     1      20.148  24.334  10.386  1.00  0.00     0.168 HD
HETATM    4  C14 UNL     1      21.771  25.342  11.126  1.00  0.00     0.182 A 
HETATM    5  N5  UNL     1      22.201  26.518  11.613  1.00  0.00    -0.351 N 
ATOM      6  H5  UNL     1      23.179  26.604  11.889  1.00  0.00     0.166 HD
HETATM    7  C15 UNL     1      21.398  27.588  11.754  1.00  0.00     0.050 A 
HETATM    8  C16 UNL     1      21.825  28.787  12.250  1.00  0.00     0.070 A 
HETATM    9  C17 UNL     1      20.992  29.903  12.398  1.00  0.00     0.104 A 
HETATM   10  C20 UNL     1      19.684  29.721  12.005  1.00  0.00     0.103 A 
HETATM   11  C27 UNL     1      19.199  28.537  11.499  1.00  0.00     0.057 A 
HETATM   12  C28 UNL     1      20.073  27.469  11.377  1.00  0.00     0.038 A 
ENDROOT
BRANCH   1  13
HETATM   13  N3  UNL     1      18.380  26.204  10.538  1.00  0.00    -0.339 N 
ATOM     14  H3  UNL     1      17.678  26.718  11.069  1.00  0.00     0.167 HD
BRANCH  13  15
HETATM   15  C12 UNL     1      18.014  25.416   9.405  1.00  0.00     0.080 A 
HETATM   16  C11 UNL     1      17.534  24.137   9.635  1.00  0.00     0.063 A 
HETATM   17  C10 UNL     1      17.189  23.383   8.547  1.00  0.00     0.043 A 
HETATM   18 CL1  UNL     1      17.373  23.512  11.273  1.00  0.00    -0.082 Cl
HETATM   19  C6  UNL     1      17.296  23.827   7.236  1.00  0.00     0.032 A 
HETATM   20  C5  UNL     1      17.775  25.103   7.008  1.00  0.00     0.074 A 
HETATM   21  C29 UNL     1      18.128  25.877   8.119  1.00  0.00     0.090 A 
HETATM   22 CL2  UNL     1      18.741  27.509   7.838  1.00  0.00    -0.079 Cl
BRANCH  19  23
HETATM   23  C7  UNL     1      16.905  22.920   6.182  1.00  0.00     0.110 C 
HETATM   24  S1  UNL     1      17.921  21.712   5.775  1.00  0.00    -0.060 SA
BRANCH  23  25
HETATM   25  N2  UNL     1      15.671  23.033   5.499  1.00  0.00    -0.380 N 
HETATM   26  C8  UNL     1      14.430  23.335   6.244  1.00  0.00     0.150 C 
HETATM   27  C9  UNL     1      15.610  22.861   4.063  1.00  0.00     0.150 C 
ENDBRANCH  23  25
ENDBRANCH  19  23
BRANCH  20  28
HETATM   28  N1  UNL     1      17.925  25.647   5.705  1.00  0.00    -0.316 N 
HETATM   29  C3  UNL     1      19.117  25.516   4.950  1.00  0.00     0.246 C 
HETATM   30  O1  UNL     1      19.239  26.019   3.805  1.00  0.00    -0.268 OA
HETATM   31  C4  UNL     1      16.815  26.357   5.102  1.00  0.00     0.159 C 
BRANCH  29  32
HETATM   32  C2  UNL     1      20.280  24.783   5.465  1.00  0.00     0.064 C 
HETATM   33  C1  UNL     1      21.340  25.388   5.938  1.00  0.00     0.017 C 
ENDBRANCH  29  32
ENDBRANCH  20  28
ENDBRANCH  13  15
ENDBRANCH   1  13
BRANCH  10  34
HETATM   34  O3  UNL     1      18.797  30.779  12.120  1.00  0.00    -0.339 OA
BRANCH  34  35
HETATM   35  C21 UNL     1      17.652  30.731  12.938  1.00  0.00     0.278 C 
BRANCH  35  36
HETATM   36  C22 UNL     1      18.037  31.142  14.310  1.00  0.00     0.241 C 
HETATM   37  O4  UNL     1      17.516  30.544  15.315  1.00  0.00    -0.271 OA
HETATM   38  N6  UNL     1      18.974  32.192  14.508  1.00  0.00    -0.358 N 
ATOM     39  H6  UNL     1      19.361  32.647  13.682  1.00  0.00     0.162 HD
BRANCH  38  40
HETATM   40  C23 UNL     1      19.413  32.658  15.805  1.00  0.00     0.152 C 
BRANCH  40  41
HETATM   41  C24 UNL     1      18.702  33.913  16.164  1.00  0.00     0.290 C 
BRANCH  41  42
HETATM   42  N7  UNL     1      17.798  33.713  17.284  1.00  0.00     0.081 N 
HETATM   43  C25 UNL     1      17.893  34.715  18.300  1.00  0.00     0.309 C 
HETATM   44  C26 UNL     1      16.434  33.542  16.815  1.00  0.00     0.309 C 
ENDBRANCH  41  42
ENDBRANCH  40  41
ENDBRANCH  38  40
ENDBRANCH  35  36
ENDBRANCH  34  35
ENDBRANCH  10  34
BRANCH   9  45
HETATM   45  O2  UNL     1      21.479  31.090  12.904  1.00  0.00    -0.349 OA
BRANCH  45  46
HETATM   46  C18 UNL     1      22.292  31.044  14.059  1.00  0.00     0.171 C 
HETATM   47  C19 UNL     1      22.883  32.369  14.409  1.00  0.00     0.034 C 
ENDBRANCH  45  46
ENDBRANCH   9  45
TORSDOF 14
ENDMDL
MODEL 3
REMARK VINA RESULT: -6.794578573      3.141      6.097
REMARK  14 active torsions:
REMARK  status: ('A' for Active; 'I' for Inactive)
REMARK    1  A    between atoms: C2_2  and  C3_3 
REMARK       I    between atoms: C3_3  and  N1_5 
REMARK    2  A    between atoms: N1_5  and  C5_7 
REMARK    3  A    between atoms: C6_8  and  C7_9 
REMARK    4  A    between atoms: C7_9  and  N2_11 
REMARK    5  A    between atoms: C12_17  and  N3_18 
REMARK    6  A    between atoms: N3_18  and  C13_20 
REMARK    7  A    between atoms: C17_28  and  O2_29 
REMARK    8  A    between atoms: O2_29  and  C18_30 
REMARK    9  A    between atoms: C20_32  and  O3_33 
REMARK   10  A    between atoms: O3_33  and  C21_34 
REMARK   11  A    between atoms: C21_34  and  C22_35 
REMARK       I    between atoms: C22_35  and  N6_37 
REMARK   12  A    between atoms: N6_37  and  C23_39 
REMARK   13  A    between atoms: C23_39  and  C24_40 
REMARK   14  A    between atoms: C24_40  and  N7_41 
ROOT
HETATM    1  C13 UNL     1      19.722  26.270  10.983  1.00  0.00     0.119 A 
HETATM    2  N4  UNL     1      20.642  25.303  10.867  1.00  0.00    -0.338 N 
ATOM      3  H4  UNL     1      20.353  24.377  10.552  1.00  0.00     0.168 HD
HETATM    4  C14 UNL     1      21.940  25.524  11.156  1.00  0.00     0.182 A 
HETATM    5  N5  UNL     1      22.314  26.746  11.569  1.00  0.00    -0.351 N 
ATOM      6  H5  UNL     1      23.297  26.909  11.785  1.00  0.00     0.166 HD
HETATM    7  C15 UNL     1      21.448  27.766  11.710  1.00  0.00     0.050 A 
HETATM    8  C16 UNL     1      21.818  29.012  12.130  1.00  0.00     0.070 A 
HETATM    9  C17 UNL     1      20.919  30.075  12.279  1.00  0.00     0.104 A 
HETATM   10  C20 UNL     1      19.608  29.789  11.969  1.00  0.00     0.103 A 
HETATM   11  C27 UNL     1      19.179  28.554  11.541  1.00  0.00     0.057 A 
HETATM   12  C28 UNL     1      20.116  27.542  11.414  1.00  0.00     0.038 A 
ENDROOT
BRANCH   1  13
HETATM   13  N3  UNL     1      18.472  26.130  10.725  1.00  0.00    -0.339 N 
ATOM     14  H3  UNL     1      17.762  26.538  11.333  1.00  0.00     0.167 HD
BRANCH  13  15
HETATM   15  C12 UNL     1      18.105  25.388   9.562  1.00  0.00     0.080 A 
HETATM   16  C11 UNL     1      17.610  24.107   9.743  1.00  0.00     0.063 A 
HETATM   17  C10 UNL     1      17.265  23.397   8.626  1.00  0.00     0.043 A 
HETATM   18 CL1  UNL     1      17.432  23.425  11.356  1.00  0.00    -0.082 Cl
HETATM   19  C6  UNL     1      17.385  23.886   7.332  1.00  0.00     0.032 A 
HETATM   20  C5  UNL     1      17.879  25.164   7.154  1.00  0.00     0.074 A 
HETATM   21  C29 UNL     1      18.232  25.895   8.294  1.00  0.00     0.090 A 
HETATM   22 CL2  UNL     1      18.864  27.529   8.077  1.00  0.00    -0.079 Cl
BRANCH  19  23
HETATM   23  C7  UNL     1      16.992  23.022   6.243  1.00  0.00     0.110 C 
HETATM   24  S1  UNL     1      17.997  21.817   5.801  1.00  0.00    -0.060 SA
BRANCH  23  25
HETATM   25  N2  UNL     1      15.765  23.174   5.556  1.00  0.00    -0.380 N 
HETATM   26  C8  UNL     1      15.720  23.100   4.080  1.00  0.00     0.150 C 
HETATM   27  C9  UNL     1      14.538  23.398   6.291  1.00  0.00     0.150 C 
ENDBRANCH  23  25
ENDBRANCH  19  23
BRANCH  20  28
HETATM   28  N1  UNL     1      18.043  25.754   5.873  1.00  0.00    -0.316 N 
HETATM   29  C3  UNL     1      19.241  25.644   5.124  1.00  0.00     0.246 C 
HETATM   30  O1  UNL     1      19.376  26.187   3.998  1.00  0.00    -0.268 OA
HETATM   31  C4  UNL     1      16.942  26.490   5.286  1.00  0.00     0.159 C 
BRANCH  29  32
HETATM   32  C2  UNL     1      20.396  24.887   5.622  1.00  0.00     0.064 C 
HETATM   33  C1  UNL     1      21.463  25.470   6.106  1.00  0.00     0.017 C 
ENDBRANCH  29  32
ENDBRANCH  20  28
ENDBRANCH  13  15
ENDBRANCH   1  13
BRANCH  10  34
HETATM   34  O3  UNL     1      18.657  30.791  12.089  1.00  0.00    -0.339 OA
BRANCH  34  35
HETATM   35  C21 UNL     1      17.580  30.717  12.993  1.00  0.00     0.278 C 
BRANCH  35  36
HETATM   36  C22 UNL     1      17.735  31.798  13.998  1.00  0.00     0.241 C 
HETATM   37  O4  UNL     1      18.524  32.776  13.752  1.00  0.00    -0.271 OA
HETATM   38  N6  UNL     1      17.016  31.747  15.222  1.00  0.00    -0.358 N 
ATOM     39  H6  UNL     1      16.402  30.948  15.382  1.00  0.00     0.162 HD
BRANCH  38  40
HETATM   40  C23 UNL     1      17.098  32.754  16.258  1.00  0.00     0.152 C 
BRANCH  40  41
HETATM   41  C24 UNL     1      15.750  33.323  16.523  1.00  0.00     0.290 C 
BRANCH  41  42
HETATM   42  N7  UNL     1      15.736  34.115  17.742  1.00  0.00     0.081 N 
HETATM   43  C25 UNL     1      17.006  34.665  18.098  1.00  0.00     0.309 C 
HETATM   44  C26 UNL     1      14.701  35.133  17.677  1.00  0.00     0.309 C 
ENDBRANCH  41  42
ENDBRANCH  40  41
ENDBRANCH  38  40
ENDBRANCH  35  36
ENDBRANCH  34  35
ENDBRANCH  10  34
BRANCH   9  45
HETATM   45  O2  UNL     1      21.349  31.313  12.706  1.00  0.00    -0.349 OA
BRANCH  45  46
HETATM   46  C18 UNL     1      21.868  31.429  14.017  1.00  0.00     0.171 C 
HETATM   47  C19 UNL     1      22.585  32.717  14.249  1.00  0.00     0.034 C 
ENDBRANCH  45  46
ENDBRANCH   9  45
TORSDOF 14
ENDMDL
MODEL 4
REMARK VINA RESULT: -6.788817681      2.753      5.621
REMARK  14 active torsions:
REMARK  status: ('A' for Active; 'I' for Inactive)
REMARK    1  A    between atoms: C2_2  and  C3_3 
REMARK       I    between atoms: C3_3  and  N1_5 
REMARK    2  A    between atoms: N1_5  and  C5_7 
REMARK    3  A    between atoms: C6_8  and  C7_9 
REMARK    4  A    between atoms: C7_9  and  N2_11 
REMARK    5  A    between atoms: C12_17  and  N3_18 
REMARK    6  A    between atoms: N3_18  and  C13_20 
REMARK    7  A    between atoms: C17_28  and  O2_29 
REMARK    8  A    between atoms: O2_29  and  C18_30 
REMARK    9  A    between atoms: C20_32  and  O3_33 
REMARK   10  A    between atoms: O3_33  and  C21_34 
REMARK   11  A    between atoms: C21_34  and  C22_35 
REMARK       I    between atoms: C22_35  and  N6_37 
REMARK   12  A    between atoms: N6_37  and  C23_39 
REMARK   13  A    between atoms: C23_39  and  C24_40 
REMARK   14  A    between atoms: C24_40  and  N7_41 
ROOT
HETATM    1  C13 UNL     1      19.625  26.295  10.899  1.00  0.00     0.119 A 
HETATM    2  N4  UNL     1      20.491  25.279  10.781  1.00  0.00    -0.338 N 
ATOM      3  H4  UNL     1      20.168  24.393  10.394  1.00  0.00     0.168 HD
HETATM    4  C14 UNL     1      21.779  25.400  11.162  1.00  0.00     0.182 A 
HETATM    5  N5  UNL     1      22.198  26.572  11.670  1.00  0.00    -0.351 N 
ATOM      6  H5  UNL     1      23.173  26.659  11.955  1.00  0.00     0.166 HD
HETATM    7  C15 UNL     1      21.387  27.634  11.819  1.00  0.00     0.050 A 
HETATM    8  C16 UNL     1      21.804  28.829  12.335  1.00  0.00     0.070 A 
HETATM    9  C17 UNL     1      20.963  29.938  12.492  1.00  0.00     0.104 A 
HETATM   10  C20 UNL     1      19.659  29.754  12.086  1.00  0.00     0.103 A 
HETATM   11  C27 UNL     1      19.185  28.574  11.559  1.00  0.00     0.057 A 
HETATM   12  C28 UNL     1      20.067  27.513  11.430  1.00  0.00     0.038 A 
ENDROOT
BRANCH   1  13
HETATM   13  N3  UNL     1      18.388  26.250  10.558  1.00  0.00    -0.339 N 
ATOM     14  H3  UNL     1      17.681  26.770  11.078  1.00  0.00     0.167 HD
BRANCH  13  15
HETATM   15  C12 UNL     1      18.032  25.453   9.429  1.00  0.00     0.080 A 
HETATM   16  C11 UNL     1      17.565  24.170   9.665  1.00  0.00     0.063 A 
HETATM   17  C10 UNL     1      17.230  23.407   8.580  1.00  0.00     0.043 A 
HETATM   18 CL1  UNL     1      17.408  23.552  11.306  1.00  0.00    -0.082 Cl
HETATM   19  C6  UNL     1      17.334  23.845   7.267  1.00  0.00     0.032 A 
HETATM   20  C5  UNL     1      17.800  25.125   7.032  1.00  0.00     0.074 A 
HETATM   21  C29 UNL     1      18.143  25.909   8.140  1.00  0.00     0.090 A 
HETATM   22 CL2  UNL     1      18.740  27.545   7.852  1.00  0.00    -0.079 Cl
BRANCH  19  23
HETATM   23  C7  UNL     1      16.955  22.928   6.216  1.00  0.00     0.110 C 
HETATM   24  S1  UNL     1      17.996  21.746   5.799  1.00  0.00    -0.060 SA
BRANCH  23  25
HETATM   25  N2  UNL     1      15.711  23.011   5.547  1.00  0.00    -0.380 N 
HETATM   26  C8  UNL     1      15.625  22.755   4.093  1.00  0.00     0.150 C 
HETATM   27  C9  UNL     1      14.506  23.340   6.280  1.00  0.00     0.150 C 
ENDBRANCH  23  25
ENDBRANCH  19  23
BRANCH  20  28
HETATM   28  N1  UNL     1      17.946  25.664   5.727  1.00  0.00    -0.316 N 
HETATM   29  C3  UNL     1      19.141  25.541   4.975  1.00  0.00     0.246 C 
HETATM   30  O1  UNL     1      19.259  26.040   3.827  1.00  0.00    -0.268 OA
HETATM   31  C4  UNL     1      16.830  26.358   5.119  1.00  0.00     0.159 C 
BRANCH  29  32
HETATM   32  C2  UNL     1      20.311  24.823   5.495  1.00  0.00     0.064 C 
HETATM   33  C1  UNL     1      21.364  25.443   5.966  1.00  0.00     0.017 C 
ENDBRANCH  29  32
ENDBRANCH  20  28
ENDBRANCH  13  15
ENDBRANCH   1  13
BRANCH  10  34
HETATM   34  O3  UNL     1      18.765  30.805  12.209  1.00  0.00    -0.339 OA
BRANCH  34  35
HETATM   35  C21 UNL     1      17.622  30.745  13.029  1.00  0.00     0.278 C 
BRANCH  35  36
HETATM   36  C22 UNL     1      17.711  31.828  14.039  1.00  0.00     0.241 C 
HETATM   37  O4  UNL     1      16.690  32.100  14.761  1.00  0.00    -0.271 OA
HETATM   38  N6  UNL     1      18.919  32.559  14.202  1.00  0.00    -0.358 N 
ATOM     39  H6  UNL     1      19.708  32.315  13.603  1.00  0.00     0.162 HD
BRANCH  38  40
HETATM   40  C23 UNL     1      19.103  33.626  15.161  1.00  0.00     0.152 C 
BRANCH  40  41
HETATM   41  C24 UNL     1      19.975  33.167  16.274  1.00  0.00     0.290 C 
BRANCH  41  42
HETATM   42  N7  UNL     1      20.663  34.279  16.908  1.00  0.00     0.081 N 
HETATM   43  C25 UNL     1      19.840  35.056  17.782  1.00  0.00     0.309 C 
HETATM   44  C26 UNL     1      21.874  33.821  17.566  1.00  0.00     0.309 C 
ENDBRANCH  41  42
ENDBRANCH  40  41
ENDBRANCH  38  40
ENDBRANCH  35  36
ENDBRANCH  34  35
ENDBRANCH  10  34
BRANCH   9  45
HETATM   45  O2  UNL     1      21.438  31.120  13.019  1.00  0.00    -0.349 OA
BRANCH  45  46
HETATM   46  C18 UNL     1      22.258  31.061  14.170  1.00  0.00     0.171 C 
HETATM   47  C19 UNL     1      23.038  32.313  14.394  1.00  0.00     0.034 C 
ENDBRANCH  45  46
ENDBRANCH   9  45
TORSDOF 14
ENDMDL
MODEL 5
REMARK VINA RESULT: -6.666605191      5.067      8.905
REMARK  14 active torsions:
REMARK  status: ('A' for Active; 'I' for Inactive)
REMARK    1  A    between atoms: C2_2  and  C3_3 
REMARK       I    between atoms: C3_3  and  N1_5 
REMARK    2  A    between atoms: N1_5  and  C5_7 
REMARK    3  A    between atoms: C6_8  and  C7_9 
REMARK    4  A    between atoms: C7_9  and  N2_11 
REMARK    5  A    between atoms: C12_17  and  N3_18 
REMARK    6  A    between atoms: N3_18  and  C13_20 
REMARK    7  A    between atoms: C17_28  and  O2_29 
REMARK    8  A    between atoms: O2_29  and  C18_30 
REMARK    9  A    between atoms: C20_32  and  O3_33 
REMARK   10  A    between atoms: O3_33  and  C21_34 
REMARK   11  A    between atoms: C21_34  and  C22_35 
REMARK       I    between atoms: C22_35  and  N6_37 
REMARK   12  A    between atoms: N6_37  and  C23_39 
REMARK   13  A    between atoms: C23_39  and  C24_40 
REMARK   14  A    between atoms: C24_40  and  N7_41 
ROOT
HETATM    1  C13 UNL     1      18.893  30.428  12.872  1.00  0.00     0.119 A 
HETATM    2  N4  UNL     1      19.980  30.503  12.092  1.00  0.00    -0.338 N 
ATOM      3  H4  UNL     1      20.090  29.838  11.326  1.00  0.00     0.168 HD
HETATM    4  C14 UNL     1      20.932  31.436  12.294  1.00  0.00     0.182 A 
HETATM    5  N5  UNL     1      20.781  32.309  13.303  1.00  0.00    -0.351 N 
ATOM      6  H5  UNL     1      21.503  33.014  13.451  1.00  0.00     0.166 HD
HETATM    7  C15 UNL     1      19.718  32.296  14.127  1.00  0.00     0.050 A 
HETATM    8  C16 UNL     1      19.556  33.179  15.157  1.00  0.00     0.070 A 
HETATM    9  C17 UNL     1      18.451  33.168  16.017  1.00  0.00     0.104 A 
HETATM   10  C20 UNL     1      17.512  32.192  15.761  1.00  0.00     0.103 A 
HETATM   11  C27 UNL     1      17.623  31.278  14.739  1.00  0.00     0.057 A 
HETATM   12  C28 UNL     1      18.740  31.341  13.923  1.00  0.00     0.038 A 
ENDROOT
BRANCH   1  13
HETATM   13  N3  UNL     1      17.949  29.568  12.737  1.00  0.00    -0.339 N 
ATOM     14  H3  UNL     1      17.089  29.644  13.279  1.00  0.00     0.167 HD
BRANCH  13  15
HETATM   15  C12 UNL     1      18.140  28.503  11.806  1.00  0.00     0.080 A 
HETATM   16  C11 UNL     1      17.270  28.419  10.732  1.00  0.00     0.063 A 
HETATM   17  C10 UNL     1      17.453  27.393   9.846  1.00  0.00     0.043 A 
HETATM   18 CL1  UNL     1      15.977  29.596  10.521  1.00  0.00    -0.082 Cl
HETATM   19  C6  UNL     1      18.455  26.440   9.964  1.00  0.00     0.032 A 
HETATM   20  C5  UNL     1      19.323  26.525  11.037  1.00  0.00     0.074 A 
HETATM   21  C29 UNL     1      19.140  27.573  11.945  1.00  0.00     0.090 A 
HETATM   22 CL2  UNL     1      20.243  27.691  13.318  1.00  0.00    -0.079 Cl
BRANCH  19  23
HETATM   23  C7  UNL     1      18.525  25.405   8.960  1.00  0.00     0.110 C 
HETATM   24  S1  UNL     1      17.495  24.146   9.061  1.00  0.00    -0.060 SA
BRANCH  23  25
HETATM   25  N2  UNL     1      19.445  25.449   7.885  1.00  0.00    -0.380 N 
HETATM   26  C8  UNL     1      20.483  24.404   7.746  1.00  0.00     0.150 C 
HETATM   27  C9  UNL     1      19.377  26.514   6.907  1.00  0.00     0.150 C 
ENDBRANCH  23  25
ENDBRANCH  19  23
BRANCH  20  28
HETATM   28  N1  UNL     1      20.377  25.598  11.249  1.00  0.00    -0.316 N 
HETATM   29  C3  UNL     1      21.728  25.884  10.929  1.00  0.00     0.246 C 
HETATM   30  O1  UNL     1      22.647  25.046  11.107  1.00  0.00    -0.268 OA
HETATM   31  C4  UNL     1      20.077  24.306  11.831  1.00  0.00     0.159 C 
BRANCH  29  32
HETATM   32  C2  UNL     1      22.130  27.180  10.369  1.00  0.00     0.064 C 
HETATM   33  C1  UNL     1      22.947  27.993  10.992  1.00  0.00     0.017 C 
ENDBRANCH  29  32
ENDBRANCH  20  28
ENDBRANCH  13  15
ENDBRANCH   1  13
BRANCH  10  34
HETATM   34  O3  UNL     1      16.388  32.116  16.569  1.00  0.00    -0.339 OA
BRANCH  34  35
HETATM   35  C21 UNL     1      15.247  32.916  16.369  1.00  0.00     0.278 C 
BRANCH  35  36
HETATM   36  C22 UNL     1      15.322  34.079  17.286  1.00  0.00     0.241 C 
HETATM   37  O4  UNL     1      15.150  33.902  18.542  1.00  0.00    -0.271 OA
HETATM   38  N6  UNL     1      15.581  35.380  16.776  1.00  0.00    -0.358 N 
ATOM     39  H6  UNL     1      15.708  35.480  15.768  1.00  0.00     0.162 HD
BRANCH  38  40
HETATM   40  C23 UNL     1      15.678  36.571  17.590  1.00  0.00     0.152 C 
BRANCH  40  41
HETATM   41  C24 UNL     1      16.809  37.417  17.125  1.00  0.00     0.290 C 
BRANCH  41  42
HETATM   42  N7  UNL     1      17.016  38.559  18.000  1.00  0.00     0.081 N 
HETATM   43  C25 UNL     1      18.381  38.771  18.372  1.00  0.00     0.309 C 
HETATM   44  C26 UNL     1      16.416  39.753  17.431  1.00  0.00     0.309 C 
ENDBRANCH  41  42
ENDBRANCH  40  41
ENDBRANCH  38  40
ENDBRANCH  35  36
ENDBRANCH  34  35
ENDBRANCH  10  34
BRANCH   9  45
HETATM   45  O2  UNL     1      18.339  34.085  17.040  1.00  0.00    -0.349 OA
BRANCH  45  46
HETATM   46  C18 UNL     1      19.509  34.742  17.485  1.00  0.00     0.171 C 
HETATM   47  C19 UNL     1      19.390  35.267  18.877  1.00  0.00     0.034 C 
ENDBRANCH  45  46
ENDBRANCH   9  45
TORSDOF 14
ENDMDL
