MODEL 1
REMARK VINA RESULT: -6.377083045      0.000      0.000
REMARK  17 active torsions:
REMARK  status: ('A' for Active; 'I' for Inactive)
REMARK    1  A    between atoms: C2_2  and  C3_3 
REMARK    2  A    between atoms: C4_4  and  S1_5 
REMARK    3  A    between atoms: S1_5  and  C5_6 
REMARK    4  A    between atoms: C8_9  and  O1_10 
REMARK    5  A    between atoms: O1_10  and  C9_11 
REMARK    6  A    between atoms: C11_15  and  O3_16 
REMARK    7  A    between atoms: O3_16  and  C12_17 
REMARK       I    between atoms: C12_17  and  N2_19 
REMARK    8  A    between atoms: N2_19  and  C14_21 
REMARK    9  A    between atoms: C14_21  and  C15_22 
REMARK       I    between atoms: C15_22  and  N3_24 
REMARK   10  A    between atoms: N3_24  and  C16_26 
REMARK   11  A    between atoms: C16_26  and  C17_27 
REMARK   12  A    between atoms: C21_31  and  C22_32 
REMARK   13  A    between atoms: C22_32  and  C23_33 
REMARK   14  A    between atoms: C22_32  and  N4_36 
REMARK   15  A    between atoms: N4_36  and  C26_38 
REMARK   16  A    between atoms: C29_41  and  O7_42 
REMARK   17  A    between atoms: O7_42  and  C30_43 
ROOT
HETATM    1  C3  UNL     1      18.659  27.080   6.728  1.00  0.00     0.009 C 
HETATM    2  C4  UNL     1      19.099  27.521   8.105  1.00  0.00     0.082 C 
HETATM    3  C8  UNL     1      19.934  26.298   8.527  1.00  0.00     0.154 C 
HETATM    4  C10 UNL     1      20.751  26.053   7.301  1.00  0.00     0.054 C 
HETATM    5  C11 UNL     1      21.200  24.574   7.174  1.00  0.00     0.150 C 
HETATM    6  C21 UNL     1      20.591  24.065   5.951  1.00  0.00     0.086 C 
HETATM    7  C29 UNL     1      19.469  24.998   5.583  1.00  0.00     0.146 C 
HETATM    8  C32 UNL     1      19.872  26.352   6.121  1.00  0.00     0.030 C 
ENDROOT
BRANCH   5   9
HETATM    9  O3  UNL     1      22.583  24.540   7.330  1.00  0.00    -0.297 OA
BRANCH   9  10
HETATM   10  C12 UNL     1      23.344  25.605   7.822  1.00  0.00     0.363 C 
HETATM   11  O4  UNL     1      23.843  26.387   6.979  1.00  0.00    -0.238 OA
HETATM   12  N2  UNL     1      23.560  25.817   9.199  1.00  0.00    -0.324 N 
HETATM   13  C13 UNL     1      22.960  24.913  10.152  1.00  0.00     0.155 C 
BRANCH  12  14
HETATM   14  C14 UNL     1      24.373  26.909   9.644  1.00  0.00     0.230 C 
BRANCH  14  15
HETATM   15  C15 UNL     1      23.895  27.592  10.848  1.00  0.00     0.235 C 
HETATM   16  O5  UNL     1      24.664  27.643  11.857  1.00  0.00    -0.272 OA
HETATM   17  N3  UNL     1      22.614  28.197  10.925  1.00  0.00    -0.356 N 
ATOM     18  H3  UNL     1      21.986  28.162  10.122  1.00  0.00     0.162 HD
BRANCH  17  19
HETATM   19  C16 UNL     1      22.191  28.870  12.154  1.00  0.00     0.150 C 
BRANCH  19  20
HETATM   20  C17 UNL     1      21.150  29.863  11.866  1.00  0.00    -0.005 C 
HETATM   21  C18 UNL     1      20.986  30.934  12.619  1.00  0.00    -0.090 C 
HETATM   22  C19 UNL     1      21.873  31.144  13.785  1.00  0.00     0.042 C 
HETATM   23  C20 UNL     1      19.933  31.947  12.333  1.00  0.00     0.042 C 
ENDBRANCH  19  20
ENDBRANCH  17  19
ENDBRANCH  14  15
ENDBRANCH  12  14
ENDBRANCH   9  10
ENDBRANCH   5   9
BRANCH   6  24
HETATM   24  C22 UNL     1      21.365  23.413   4.885  1.00  0.00     0.300 C 
BRANCH  24  25
HETATM   25  C23 UNL     1      21.623  22.001   5.438  1.00  0.00     0.157 C 
HETATM   26  C24 UNL     1      20.726  20.872   5.089  1.00  0.00     0.093 C 
HETATM   27  O6  UNL     1      22.548  21.822   6.148  1.00  0.00    -0.296 OA
ENDBRANCH  24  25
BRANCH  24  28
HETATM   28  N4  UNL     1      22.704  23.888   4.618  1.00  0.00     0.100 N 
HETATM   29  C25 UNL     1      22.818  25.193   4.045  1.00  0.00     0.311 C 
BRANCH  28  30
HETATM   30  C26 UNL     1      23.356  23.018   3.621  1.00  0.00     0.215 C 
HETATM   31  C27 UNL     1      22.926  23.501   2.261  1.00  0.00     0.042 C 
HETATM   32  C28 UNL     1      24.853  23.168   3.747  1.00  0.00     0.042 C 
ENDBRANCH  28  30
ENDBRANCH  24  28
ENDBRANCH   6  24
BRANCH   3  33
HETATM   33  O1  UNL     1      18.976  25.254   8.664  1.00  0.00    -0.299 OA
BRANCH  33  34
HETATM   34  C9  UNL     1      18.887  24.402   9.730  1.00  0.00     0.373 C 
HETATM   35  N1  UNL     1      17.874  23.417   9.724  1.00  0.00    -0.032 NA
HETATM   36  O2  UNL     1      19.699  24.518  10.673  1.00  0.00    -0.242 OA
ENDBRANCH  33  34
ENDBRANCH   3  33
BRANCH   7  37
HETATM   37  O7  UNL     1      19.012  24.954   4.287  1.00  0.00    -0.315 OA
BRANCH  37  38
HETATM   38  C30 UNL     1      17.816  24.405   3.858  1.00  0.00     0.255 C 
HETATM   39  C31 UNL     1      16.712  24.226   4.813  1.00  0.00     0.126 C 
HETATM   40  O8  UNL     1      17.731  24.083   2.651  1.00  0.00    -0.266 OA
ENDBRANCH  37  38
ENDBRANCH   7  37
BRANCH   2  41
HETATM   41  S1  UNL     1      17.623  27.599   9.163  1.00  0.00    -0.157 SA
BRANCH  41  42
HETATM   42  C5  UNL     1      18.049  28.518  10.658  1.00  0.00     0.039 C 
HETATM   43  C6  UNL     1      18.215  27.549  11.832  1.00  0.00     0.021 C 
HETATM   44  C7  UNL     1      16.893  29.469  10.967  1.00  0.00     0.021 C 
ENDBRANCH  41  42
ENDBRANCH   2  41
BRANCH   1  45
HETATM   45  C2  UNL     1      18.317  28.299   5.904  1.00  0.00     0.002 C 
HETATM   46  C1  UNL     1      17.299  27.943   4.868  1.00  0.00     0.005 C 
ENDBRANCH   1  45
TORSDOF 17
ENDMDL
MODEL 2
REMARK VINA RESULT: -6.337980274      8.817     15.250
REMARK  17 active torsions:
REMARK  status: ('A' for Active; 'I' for Inactive)
REMARK    1  A    between atoms: C2_2  and  C3_3 
REMARK    2  A    between atoms: C4_4  and  S1_5 
REMARK    3  A    between atoms: S1_5  and  C5_6 
REMARK    4  A    between atoms: C8_9  and  O1_10 
REMARK    5  A    between atoms: O1_10  and  C9_11 
REMARK    6  A    between atoms: C11_15  and  O3_16 
REMARK    7  A    between atoms: O3_16  and  C12_17 
REMARK       I    between atoms: C12_17  and  N2_19 
REMARK    8  A    between atoms: N2_19  and  C14_21 
REMARK    9  A    between atoms: C14_21  and  C15_22 
REMARK       I    between atoms: C15_22  and  N3_24 
REMARK   10  A    between atoms: N3_24  and  C16_26 
REMARK   11  A    between atoms: C16_26  and  C17_27 
REMARK   12  A    between atoms: C21_31  and  C22_32 
REMARK   13  A    between atoms: C22_32  and  C23_33 
REMARK   14  A    between atoms: C22_32  and  N4_36 
REMARK   15  A    between atoms: N4_36  and  C26_38 
REMARK   16  A    between atoms: C29_41  and  O7_42 
REMARK   17  A    between atoms: O7_42  and  C30_43 
ROOT
HETATM    1  C3  UNL     1      20.354  39.415  18.157  1.00  0.00     0.009 C 
HETATM    2  C4  UNL     1      21.793  38.953  18.115  1.00  0.00     0.082 C 
HETATM    3  C8  UNL     1      21.588  37.427  18.147  1.00  0.00     0.154 C 
HETATM    4  C10 UNL     1      20.503  37.249  17.137  1.00  0.00     0.054 C 
HETATM    5  C11 UNL     1      19.662  35.970  17.392  1.00  0.00     0.150 C 
HETATM    6  C21 UNL     1      18.301  36.421  17.659  1.00  0.00     0.086 C 
HETATM    7  C29 UNL     1      18.371  37.883  18.011  1.00  0.00     0.146 C 
HETATM    8  C32 UNL     1      19.576  38.422  17.275  1.00  0.00     0.030 C 
ENDROOT
BRANCH   5   9
HETATM    9  O3  UNL     1      19.911  35.088  16.343  1.00  0.00    -0.297 OA
BRANCH   9  10
HETATM   10  C12 UNL     1      20.855  34.058  16.390  1.00  0.00     0.363 C 
HETATM   11  O4  UNL     1      21.568  33.985  17.418  1.00  0.00    -0.238 OA
HETATM   12  N2  UNL     1      21.022  33.127  15.346  1.00  0.00    -0.324 N 
HETATM   13  C13 UNL     1      20.176  33.221  14.178  1.00  0.00     0.155 C 
BRANCH  12  14
HETATM   14  C14 UNL     1      22.026  32.110  15.436  1.00  0.00     0.230 C 
BRANCH  14  15
HETATM   15  C15 UNL     1      21.650  30.811  14.874  1.00  0.00     0.235 C 
HETATM   16  O5  UNL     1      22.276  30.393  13.852  1.00  0.00    -0.272 OA
HETATM   17  N3  UNL     1      20.620  30.008  15.428  1.00  0.00    -0.356 N 
ATOM     18  H3  UNL     1      20.108  30.331  16.248  1.00  0.00     0.162 HD
BRANCH  17  19
HETATM   19  C16 UNL     1      20.290  28.715  14.825  1.00  0.00     0.150 C 
BRANCH  19  20
HETATM   20  C17 UNL     1      18.957  28.755  14.217  1.00  0.00    -0.005 C 
HETATM   21  C18 UNL     1      18.779  28.571  12.922  1.00  0.00    -0.090 C 
HETATM   22  C19 UNL     1      19.954  28.319  12.058  1.00  0.00     0.042 C 
HETATM   23  C20 UNL     1      17.428  28.610  12.297  1.00  0.00     0.042 C 
ENDBRANCH  19  20
ENDBRANCH  17  19
ENDBRANCH  14  15
ENDBRANCH  12  14
ENDBRANCH   9  10
ENDBRANCH   5   9
BRANCH   6  24
HETATM   24  C22 UNL     1      17.133  35.911  16.927  1.00  0.00     0.300 C 
BRANCH  24  25
HETATM   25  C23 UNL     1      16.218  35.372  18.039  1.00  0.00     0.157 C 
HETATM   26  C24 UNL     1      14.743  35.501  17.939  1.00  0.00     0.093 C 
HETATM   27  O6  UNL     1      16.702  34.849  18.979  1.00  0.00    -0.296 OA
ENDBRANCH  24  25
BRANCH  24  28
HETATM   28  N4  UNL     1      17.304  34.752  16.080  1.00  0.00     0.100 N 
HETATM   29  C25 UNL     1      16.685  34.804  14.793  1.00  0.00     0.311 C 
BRANCH  28  30
HETATM   30  C26 UNL     1      16.683  33.573  16.712  1.00  0.00     0.215 C 
HETATM   31  C27 UNL     1      15.599  33.090  15.785  1.00  0.00     0.042 C 
HETATM   32  C28 UNL     1      17.726  32.491  16.856  1.00  0.00     0.042 C 
ENDBRANCH  28  30
ENDBRANCH  24  28
ENDBRANCH   6  24
BRANCH   3  33
HETATM   33  O1  UNL     1      21.063  37.174  19.444  1.00  0.00    -0.299 OA
BRANCH  33  34
HETATM   34  C9  UNL     1      21.422  36.128  20.249  1.00  0.00     0.373 C 
HETATM   35  N1  UNL     1      22.743  36.080  20.745  1.00  0.00    -0.032 NA
HETATM   36  O2  UNL     1      20.575  35.249  20.520  1.00  0.00    -0.242 OA
ENDBRANCH  33  34
ENDBRANCH   3  33
BRANCH   7  37
HETATM   37  O7  UNL     1      17.208  38.610  17.918  1.00  0.00    -0.315 OA
BRANCH  37  38
HETATM   38  C30 UNL     1      16.659  39.408  18.907  1.00  0.00     0.255 C 
HETATM   39  C31 UNL     1      15.277  39.892  18.769  1.00  0.00     0.126 C 
HETATM   40  O8  UNL     1      17.382  39.682  19.892  1.00  0.00    -0.266 OA
ENDBRANCH  37  38
ENDBRANCH   7  37
BRANCH   2  41
HETATM   41  S1  UNL     1      22.585  39.458  19.672  1.00  0.00    -0.157 SA
BRANCH  41  42
HETATM   42  C5  UNL     1      23.768  40.770  19.302  1.00  0.00     0.039 C 
HETATM   43  C6  UNL     1      23.150  42.132  19.631  1.00  0.00     0.021 C 
HETATM   44  C7  UNL     1      24.072  40.719  17.805  1.00  0.00     0.021 C 
ENDBRANCH  41  42
ENDBRANCH   2  41
BRANCH   1  45
HETATM   45  C2  UNL     1      20.264  40.808  17.578  1.00  0.00     0.002 C 
HETATM   46  C1  UNL     1      19.894  40.734  16.131  1.00  0.00     0.005 C 
ENDBRANCH   1  45
TORSDOF 17
ENDMDL
MODEL 3
REMARK VINA RESULT: -6.326492194      0.972      1.249
REMARK  17 active torsions:
REMARK  status: ('A' for Active; 'I' for Inactive)
REMARK    1  A    between atoms: C2_2  and  C3_3 
REMARK    2  A    between atoms: C4_4  and  S1_5 
REMARK    3  A    between atoms: S1_5  and  C5_6 
REMARK    4  A    between atoms: C8_9  and  O1_10 
REMARK    5  A    between atoms: O1_10  and  C9_11 
REMARK    6  A    between atoms: C11_15  and  O3_16 
REMARK    7  A    between atoms: O3_16  and  C12_17 
REMARK       I    between atoms: C12_17  and  N2_19 
REMARK    8  A    between atoms: N2_19  and  C14_21 
REMARK    9  A    between atoms: C14_21  and  C15_22 
REMARK       I    between atoms: C15_22  and  N3_24 
REMARK   10  A    between atoms: N3_24  and  C16_26 
REMARK   11  A    between atoms: C16_26  and  C17_27 
REMARK   12  A    between atoms: C21_31  and  C22_32 
REMARK   13  A    between atoms: C22_32  and  C23_33 
REMARK   14  A    between atoms: C22_32  and  N4_36 
REMARK   15  A    between atoms: N4_36  and  C26_38 
REMARK   16  A    between atoms: C29_41  and  O7_42 
REMARK   17  A    between atoms: O7_42  and  C30_43 
ROOT
HETATM    1  C3  UNL     1      18.595  27.147   7.066  1.00  0.00     0.009 C 
HETATM    2  C4  UNL     1      18.865  27.538   8.501  1.00  0.00     0.082 C 
HETATM    3  C8  UNL     1      19.619  26.286   8.986  1.00  0.00     0.154 C 
HETATM    4  C10 UNL     1      20.580  26.061   7.865  1.00  0.00     0.054 C 
HETATM    5  C11 UNL     1      21.017  24.577   7.748  1.00  0.00     0.150 C 
HETATM    6  C21 UNL     1      20.559  24.117   6.442  1.00  0.00     0.086 C 
HETATM    7  C29 UNL     1      19.507  25.083   5.966  1.00  0.00     0.146 C 
HETATM    8  C32 UNL     1      19.862  26.412   6.594  1.00  0.00     0.030 C 
ENDROOT
BRANCH   5   9
HETATM    9  O3  UNL     1      22.369  24.511   8.076  1.00  0.00    -0.297 OA
BRANCH   9  10
HETATM   10  C12 UNL     1      22.902  24.926   9.300  1.00  0.00     0.363 C 
HETATM   11  O4  UNL     1      22.306  24.552  10.337  1.00  0.00    -0.238 OA
HETATM   12  N2  UNL     1      24.056  25.729   9.397  1.00  0.00    -0.324 N 
HETATM   13  C13 UNL     1      24.735  26.133   8.188  1.00  0.00     0.155 C 
BRANCH  12  14
HETATM   14  C14 UNL     1      24.539  26.148  10.678  1.00  0.00     0.230 C 
BRANCH  14  15
HETATM   15  C15 UNL     1      23.854  27.307  11.255  1.00  0.00     0.235 C 
HETATM   16  O5  UNL     1      24.404  27.909  12.227  1.00  0.00    -0.272 OA
HETATM   17  N3  UNL     1      22.607  27.777  10.768  1.00  0.00    -0.356 N 
ATOM     18  H3  UNL     1      22.154  27.302   9.988  1.00  0.00     0.162 HD
BRANCH  17  19
HETATM   19  C16 UNL     1      21.970  28.943  11.382  1.00  0.00     0.150 C 
BRANCH  19  20
HETATM   20  C17 UNL     1      21.140  28.538  12.521  1.00  0.00    -0.005 C 
HETATM   21  C18 UNL     1      21.178  29.182  13.672  1.00  0.00    -0.090 C 
HETATM   22  C19 UNL     1      22.082  30.345  13.821  1.00  0.00     0.042 C 
HETATM   23  C20 UNL     1      20.338  28.777  14.832  1.00  0.00     0.042 C 
ENDBRANCH  19  20
ENDBRANCH  17  19
ENDBRANCH  14  15
ENDBRANCH  12  14
ENDBRANCH   9  10
ENDBRANCH   5   9
BRANCH   6  24
HETATM   24  C22 UNL     1      21.450  23.481   5.462  1.00  0.00     0.300 C 
BRANCH  24  25
HETATM   25  C23 UNL     1      21.452  22.002   5.882  1.00  0.00     0.157 C 
HETATM   26  C24 UNL     1      20.605  21.010   5.175  1.00  0.00     0.093 C 
HETATM   27  O6  UNL     1      22.139  21.659   6.778  1.00  0.00    -0.296 OA
ENDBRANCH  24  25
BRANCH  24  28
HETATM   28  N4  UNL     1      22.857  23.812   5.495  1.00  0.00     0.100 N 
HETATM   29  C25 UNL     1      23.220  25.114   5.030  1.00  0.00     0.311 C 
BRANCH  28  30
HETATM   30  C26 UNL     1      23.606  22.909   4.602  1.00  0.00     0.215 C 
HETATM   31  C27 UNL     1      23.538  23.496   3.216  1.00  0.00     0.042 C 
HETATM   32  C28 UNL     1      25.048  22.866   5.048  1.00  0.00     0.042 C 
ENDBRANCH  28  30
ENDBRANCH  24  28
ENDBRANCH   6  24
BRANCH   3  33
HETATM   33  O1  UNL     1      18.635  25.258   8.968  1.00  0.00    -0.299 OA
BRANCH  33  34
HETATM   34  C9  UNL     1      18.445  24.332   9.956  1.00  0.00     0.373 C 
HETATM   35  N1  UNL     1      17.600  23.230   9.696  1.00  0.00    -0.032 NA
HETATM   36  O2  UNL     1      19.020  24.486  11.055  1.00  0.00    -0.242 OA
ENDBRANCH  33  34
ENDBRANCH   3  33
BRANCH   7  37
HETATM   37  O7  UNL     1      19.217  25.087   4.622  1.00  0.00    -0.315 OA
BRANCH  37  38
HETATM   38  C30 UNL     1      18.265  24.308   3.988  1.00  0.00     0.255 C 
HETATM   39  C31 UNL     1      16.841  24.500   4.301  1.00  0.00     0.126 C 
HETATM   40  O8  UNL     1      18.672  23.462   3.160  1.00  0.00    -0.266 OA
ENDBRANCH  37  38
ENDBRANCH   7  37
BRANCH   2  41
HETATM   41  S1  UNL     1      17.268  27.615   9.367  1.00  0.00    -0.157 SA
BRANCH  41  42
HETATM   42  C5  UNL     1      17.482  28.614  10.856  1.00  0.00     0.039 C 
HETATM   43  C6  UNL     1      17.574  27.703  12.083  1.00  0.00     0.021 C 
HETATM   44  C7  UNL     1      16.251  29.509  11.000  1.00  0.00     0.021 C 
ENDBRANCH  41  42
ENDBRANCH   2  41
BRANCH   1  45
HETATM   45  C2  UNL     1      18.379  28.396   6.245  1.00  0.00     0.002 C 
HETATM   46  C1  UNL     1      17.544  28.078   5.045  1.00  0.00     0.005 C 
ENDBRANCH   1  45
TORSDOF 17
ENDMDL
MODEL 4
REMARK VINA RESULT: -6.270918894      2.721      6.048
REMARK  17 active torsions:
REMARK  status: ('A' for Active; 'I' for Inactive)
REMARK    1  A    between atoms: C2_2  and  C3_3 
REMARK    2  A    between atoms: C4_4  and  S1_5 
REMARK    3  A    between atoms: S1_5  and  C5_6 
REMARK    4  A    between atoms: C8_9  and  O1_10 
REMARK    5  A    between atoms: O1_10  and  C9_11 
REMARK    6  A    between atoms: C11_15  and  O3_16 
REMARK    7  A    between atoms: O3_16  and  C12_17 
REMARK       I    between atoms: C12_17  and  N2_19 
REMARK    8  A    between atoms: N2_19  and  C14_21 
REMARK    9  A    between atoms: C14_21  and  C15_22 
REMARK       I    between atoms: C15_22  and  N3_24 
REMARK   10  A    between atoms: N3_24  and  C16_26 
REMARK   11  A    between atoms: C16_26  and  C17_27 
REMARK   12  A    between atoms: C21_31  and  C22_32 
REMARK   13  A    between atoms: C22_32  and  C23_33 
REMARK   14  A    between atoms: C22_32  and  N4_36 
REMARK   15  A    between atoms: N4_36  and  C26_38 
REMARK   16  A    between atoms: C29_41  and  O7_42 
REMARK   17  A    between atoms: O7_42  and  C30_43 
ROOT
HETATM    1  C3  UNL     1      21.179  24.989   5.092  1.00  0.00     0.009 C 
HETATM    2  C4  UNL     1      20.016  25.836   4.625  1.00  0.00     0.082 C 
HETATM    3  C8  UNL     1      19.287  26.054   5.964  1.00  0.00     0.154 C 
HETATM    4  C10 UNL     1      20.420  26.410   6.869  1.00  0.00     0.054 C 
HETATM    5  C11 UNL     1      20.120  26.073   8.354  1.00  0.00     0.150 C 
HETATM    6  C21 UNL     1      21.108  25.077   8.754  1.00  0.00     0.086 C 
HETATM    7  C29 UNL     1      21.686  24.484   7.498  1.00  0.00     0.146 C 
HETATM    8  C32 UNL     1      21.594  25.573   6.454  1.00  0.00     0.030 C 
ENDROOT
BRANCH   5   9
HETATM    9  O3  UNL     1      20.023  27.277   9.047  1.00  0.00    -0.297 OA
BRANCH   9  10
HETATM   10  C12 UNL     1      18.840  27.766   9.609  1.00  0.00     0.363 C 
HETATM   11  O4  UNL     1      17.763  27.302   9.166  1.00  0.00    -0.238 OA
HETATM   12  N2  UNL     1      18.826  28.738  10.630  1.00  0.00    -0.324 N 
HETATM   13  C13 UNL     1      20.080  29.245  11.136  1.00  0.00     0.155 C 
BRANCH  12  14
HETATM   14  C14 UNL     1      17.583  29.224  11.148  1.00  0.00     0.230 C 
BRANCH  14  15
HETATM   15  C15 UNL     1      17.617  29.658  12.547  1.00  0.00     0.235 C 
HETATM   16  O5  UNL     1      17.704  28.770  13.450  1.00  0.00    -0.272 OA
HETATM   17  N3  UNL     1      17.560  31.024  12.925  1.00  0.00    -0.356 N 
ATOM     18  H3  UNL     1      17.489  31.747  12.209  1.00  0.00     0.162 HD
BRANCH  17  19
HETATM   19  C16 UNL     1      17.603  31.398  14.339  1.00  0.00     0.150 C 
BRANCH  19  20
HETATM   20  C17 UNL     1      17.493  32.853  14.491  1.00  0.00    -0.005 C 
HETATM   21  C18 UNL     1      16.533  33.406  15.208  1.00  0.00    -0.090 C 
HETATM   22  C19 UNL     1      15.538  32.538  15.878  1.00  0.00     0.042 C 
HETATM   23  C20 UNL     1      16.416  34.881  15.368  1.00  0.00     0.042 C 
ENDBRANCH  19  20
ENDBRANCH  17  19
ENDBRANCH  14  15
ENDBRANCH  12  14
ENDBRANCH   9  10
ENDBRANCH   5   9
BRANCH   6  24
HETATM   24  C22 UNL     1      21.964  25.234   9.938  1.00  0.00     0.300 C 
BRANCH  24  25
HETATM   25  C23 UNL     1      20.973  25.170  11.112  1.00  0.00     0.157 C 
HETATM   26  C24 UNL     1      20.012  24.046  11.235  1.00  0.00     0.093 C 
HETATM   27  O6  UNL     1      20.984  26.028  11.921  1.00  0.00    -0.296 OA
ENDBRANCH  24  25
BRANCH  24  28
HETATM   28  N4  UNL     1      22.613  26.508  10.153  1.00  0.00     0.100 N 
HETATM   29  C25 UNL     1      23.502  26.955   9.127  1.00  0.00     0.311 C 
BRANCH  28  30
HETATM   30  C26 UNL     1      23.478  26.434  11.346  1.00  0.00     0.215 C 
HETATM   31  C27 UNL     1      24.854  26.041  10.875  1.00  0.00     0.042 C 
HETATM   32  C28 UNL     1      23.547  27.801  11.984  1.00  0.00     0.042 C 
ENDBRANCH  28  30
ENDBRANCH  24  28
ENDBRANCH   6  24
BRANCH   3  33
HETATM   33  O1  UNL     1      18.803  24.762   6.311  1.00  0.00    -0.299 OA
BRANCH  33  34
HETATM   34  C9  UNL     1      17.659  24.513   7.018  1.00  0.00     0.373 C 
HETATM   35  N1  UNL     1      17.658  23.449   7.948  1.00  0.00    -0.032 NA
HETATM   36  O2  UNL     1      16.653  25.229   6.823  1.00  0.00    -0.242 OA
ENDBRANCH  33  34
ENDBRANCH   3  33
BRANCH   7  37
HETATM   37  O7  UNL     1      22.889  23.826   7.607  1.00  0.00    -0.315 OA
BRANCH  37  38
HETATM   38  C30 UNL     1      23.239  22.648   6.970  1.00  0.00     0.255 C 
HETATM   39  C31 UNL     1      24.653  22.370   6.678  1.00  0.00     0.126 C 
HETATM   40  O8  UNL     1      22.314  21.860   6.668  1.00  0.00    -0.266 OA
ENDBRANCH  37  38
ENDBRANCH   7  37
BRANCH   2  41
HETATM   41  S1  UNL     1      18.965  24.801   3.562  1.00  0.00    -0.157 SA
BRANCH  41  42
HETATM   42  C5  UNL     1      17.462  25.728   3.184  1.00  0.00     0.039 C 
HETATM   43  C6  UNL     1      16.240  24.819   3.343  1.00  0.00     0.021 C 
HETATM   44  C7  UNL     1      17.548  26.184   1.728  1.00  0.00     0.021 C 
ENDBRANCH  41  42
ENDBRANCH   2  41
BRANCH   1  45
HETATM   45  C2  UNL     1      22.312  25.116   4.101  1.00  0.00     0.002 C 
HETATM   46  C1  UNL     1      22.636  23.774   3.525  1.00  0.00     0.005 C 
ENDBRANCH   1  45
TORSDOF 17
ENDMDL
MODEL 5
REMARK VINA RESULT: -6.202470022      1.244      1.385
REMARK  17 active torsions:
REMARK  status: ('A' for Active; 'I' for Inactive)
REMARK    1  A    between atoms: C2_2  and  C3_3 
REMARK    2  A    between atoms: C4_4  and  S1_5 
REMARK    3  A    between atoms: S1_5  and  C5_6 
REMARK    4  A    between atoms: C8_9  and  O1_10 
REMARK    5  A    between atoms: O1_10  and  C9_11 
REMARK    6  A    between atoms: C11_15  and  O3_16 
REMARK    7  A    between atoms: O3_16  and  C12_17 
REMARK       I    between atoms: C12_17  and  N2_19 
REMARK    8  A    between atoms: N2_19  and  C14_21 
REMARK    9  A    between atoms: C14_21  and  C15_22 
REMARK       I    between atoms: C15_22  and  N3_24 
REMARK   10  A    between atoms: N3_24  and  C16_26 
REMARK   11  A    between atoms: C16_26  and  C17_27 
REMARK   12  A    between atoms: C21_31  and  C22_32 
REMARK   13  A    between atoms: C22_32  and  C23_33 
REMARK   14  A    between atoms: C22_32  and  N4_36 
REMARK   15  A    between atoms: N4_36  and  C26_38 
REMARK   16  A    between atoms: C29_41  and  O7_42 
REMARK   17  A    between atoms: O7_42  and  C30_43 
ROOT
HETATM    1  C3  UNL     1      18.573  25.919   7.022  1.00  0.00     0.009 C 
HETATM    2  C4  UNL     1      19.054  26.873   8.093  1.00  0.00     0.082 C 
HETATM    3  C8  UNL     1      20.275  26.095   8.620  1.00  0.00     0.154 C 
HETATM    4  C10 UNL     1      20.938  25.680   7.348  1.00  0.00     0.054 C 
HETATM    5  C11 UNL     1      21.794  24.397   7.518  1.00  0.00     0.150 C 
HETATM    6  C21 UNL     1      21.198  23.390   6.649  1.00  0.00     0.086 C 
HETATM    7  C29 UNL     1      19.803  23.848   6.316  1.00  0.00     0.146 C 
HETATM    8  C32 UNL     1      19.849  25.358   6.368  1.00  0.00     0.030 C 
ENDROOT
BRANCH   5   9
HETATM    9  O3  UNL     1      23.129  24.758   7.353  1.00  0.00    -0.297 OA
BRANCH   9  10
HETATM   10  C12 UNL     1      23.733  25.847   7.989  1.00  0.00     0.363 C 
HETATM   11  O4  UNL     1      23.906  26.883   7.305  1.00  0.00    -0.238 OA
HETATM   12  N2  UNL     1      24.140  25.813   9.338  1.00  0.00    -0.324 N 
HETATM   13  C13 UNL     1      23.914  24.614  10.111  1.00  0.00     0.155 C 
BRANCH  12  14
HETATM   14  C14 UNL     1      24.780  26.949   9.929  1.00  0.00     0.230 C 
BRANCH  14  15
HETATM   15  C15 UNL     1      24.106  27.504  11.105  1.00  0.00     0.235 C 
HETATM   16  O5  UNL     1      24.790  27.694  12.157  1.00  0.00    -0.272 OA
HETATM   17  N3  UNL     1      22.727  27.835  11.109  1.00  0.00    -0.356 N 
ATOM     18  H3  UNL     1      22.165  27.686  10.271  1.00  0.00     0.162 HD
BRANCH  17  19
HETATM   19  C16 UNL     1      22.107  28.390  12.314  1.00  0.00     0.150 C 
BRANCH  19  20
HETATM   20  C17 UNL     1      21.255  29.535  11.975  1.00  0.00    -0.005 C 
HETATM   21  C18 UNL     1      21.186  30.602  12.748  1.00  0.00    -0.090 C 
HETATM   22  C19 UNL     1      21.987  30.647  13.993  1.00  0.00     0.042 C 
HETATM   23  C20 UNL     1      20.325  31.768  12.411  1.00  0.00     0.042 C 
ENDBRANCH  19  20
ENDBRANCH  17  19
ENDBRANCH  14  15
ENDBRANCH  12  14
ENDBRANCH   9  10
ENDBRANCH   5   9
BRANCH   6  24
HETATM   24  C22 UNL     1      21.969  22.643   5.646  1.00  0.00     0.300 C 
BRANCH  24  25
HETATM   25  C23 UNL     1      22.705  21.577   6.475  1.00  0.00     0.157 C 
HETATM   26  C24 UNL     1      24.076  21.825   6.986  1.00  0.00     0.093 C 
HETATM   27  O6  UNL     1      22.165  20.554   6.704  1.00  0.00    -0.296 OA
ENDBRANCH  24  25
BRANCH  24  28
HETATM   28  N4  UNL     1      23.059  23.317   4.975  1.00  0.00     0.100 N 
HETATM   29  C25 UNL     1      22.717  24.459   4.187  1.00  0.00     0.311 C 
BRANCH  28  30
HETATM   30  C26 UNL     1      23.687  22.405   4.000  1.00  0.00     0.215 C 
HETATM   31  C27 UNL     1      22.776  22.335   2.803  1.00  0.00     0.042 C 
HETATM   32  C28 UNL     1      25.015  22.986   3.575  1.00  0.00     0.042 C 
ENDBRANCH  28  30
ENDBRANCH  24  28
ENDBRANCH   6  24
BRANCH   3  33
HETATM   33  O1  UNL     1      19.711  24.948   9.246  1.00  0.00    -0.299 OA
BRANCH  33  34
HETATM   34  C9  UNL     1      19.983  24.534  10.521  1.00  0.00     0.373 C 
HETATM   35  N1  UNL     1      19.296  23.407  11.026  1.00  0.00    -0.032 NA
HETATM   36  O2  UNL     1      20.826  25.160  11.199  1.00  0.00    -0.242 OA
ENDBRANCH  33  34
ENDBRANCH   3  33
BRANCH   7  37
HETATM   37  O7  UNL     1      19.197  23.280   5.220  1.00  0.00    -0.315 OA
BRANCH  37  38
HETATM   38  C30 UNL     1      18.231  22.290   5.240  1.00  0.00     0.255 C 
HETATM   39  C31 UNL     1      17.316  22.142   4.098  1.00  0.00     0.126 C 
HETATM   40  O8  UNL     1      18.184  21.553   6.250  1.00  0.00    -0.266 OA
ENDBRANCH  37  38
ENDBRANCH   7  37
BRANCH   2  41
HETATM   41  S1  UNL     1      17.795  26.919   9.404  1.00  0.00    -0.157 SA
BRANCH  41  42
HETATM   42  C5  UNL     1      18.380  28.021  10.708  1.00  0.00     0.039 C 
HETATM   43  C6  UNL     1      18.181  27.359  12.074  1.00  0.00     0.021 C 
HETATM   44  C7  UNL     1      17.539  29.296  10.655  1.00  0.00     0.021 C 
ENDBRANCH  41  42
ENDBRANCH   2  41
BRANCH   1  45
HETATM   45  C2  UNL     1      17.759  26.686   6.007  1.00  0.00     0.002 C 
HETATM   46  C1  UNL     1      18.464  27.954   5.643  1.00  0.00     0.005 C 
ENDBRANCH   1  45
TORSDOF 17
ENDMDL
