MODEL 1
REMARK VINA RESULT: -9.481352506      0.000      0.000
REMARK  6 active torsions:
REMARK  status: ('A' for Active; 'I' for Inactive)
REMARK    1  A    between atoms: C2_2  and  C3_3 
REMARK    2  A    between atoms: C3_3  and  C4_4 
REMARK    3  A    between atoms: C24_29  and  C26_31 
REMARK    4  A    between atoms: C28_34  and  C29_35 
REMARK    5  A    between atoms: C33_40  and  O7_41 
REMARK    6  A    between atoms: C34_43  and  O8_44 
ROOT
HETATM    1  C3  UNL     1      28.647   6.751  38.605  1.00  0.00     0.154 C 
HETATM    2  O4  UNL     1      28.367   5.783  39.674  1.00  0.00    -0.223 OA
HETATM    3  O5  UNL     1      27.094   5.499  39.677  1.00  0.00    -0.226 OA
HETATM    4  C19 UNL     1      26.808   4.416  38.841  1.00  0.00     0.127 C 
HETATM    5  C20 UNL     1      27.138   3.240  39.744  1.00  0.00     0.052 C 
HETATM    6  C21 UNL     1      25.334   4.288  38.572  1.00  0.00     0.044 C 
HETATM    7  C22 UNL     1      25.103   3.292  37.442  1.00  0.00     0.010 C 
HETATM    8  C23 UNL     1      25.689   3.941  36.247  1.00  0.00     0.013 C 
HETATM    9  C24 UNL     1      25.389   3.477  34.904  1.00  0.00     0.025 C 
HETATM   10  C25 UNL     1      24.224   4.341  34.354  1.00  0.00     0.024 C 
HETATM   11  C28 UNL     1      26.625   3.854  34.105  1.00  0.00     0.016 C 
HETATM   12  C30 UNL     1      27.575   4.556  35.091  1.00  0.00     0.019 C 
HETATM   13  C31 UNL     1      27.190   3.950  36.384  1.00  0.00    -0.002 C 
HETATM   14  C32 UNL     1      27.715   2.506  36.290  1.00  0.00     0.019 C 
HETATM   15  C33 UNL     1      27.683   4.596  37.651  1.00  0.00     0.128 C 
HETATM   16  C34 UNL     1      28.153   6.044  37.444  1.00  0.00     0.197 C 
ENDROOT
BRANCH   1  17
HETATM   17  C2  UNL     1      27.428   7.652  39.085  1.00  0.00     0.042 C 
HETATM   18  C1  UNL     1      27.681   9.102  38.910  1.00  0.00     0.008 C 
ENDBRANCH   1  17
BRANCH   1  19
HETATM   19  C4  UNL     1      29.893   7.413  38.837  1.00  0.00     0.212 C 
HETATM   20  O1  UNL     1      30.494   7.909  37.661  1.00  0.00    -0.231 OA
HETATM   21  O2  UNL     1      31.234   7.114  37.029  1.00  0.00    -0.233 OA
HETATM   22  C5  UNL     1      32.154   6.305  37.508  1.00  0.00     0.187 C 
HETATM   23  C6  UNL     1      33.298   7.165  38.042  1.00  0.00     0.204 C 
HETATM   24  C17 UNL     1      31.796   5.268  38.506  1.00  0.00     0.017 C 
HETATM   25  O3  UNL     1      32.689   8.264  38.518  1.00  0.00    -0.373 OA
HETATM   26  C7  UNL     1      32.036   8.198  39.731  1.00  0.00     0.085 C 
HETATM   27  C8  UNL     1      33.159   7.994  40.715  1.00  0.00     0.051 C 
HETATM   28  C9  UNL     1      31.576   9.598  39.961  1.00  0.00     0.008 C 
HETATM   29  C15 UNL     1      30.916   7.203  39.873  1.00  0.00     0.028 C 
HETATM   30  C10 UNL     1      30.784   9.834  40.966  1.00  0.00    -0.019 C 
HETATM   31  C11 UNL     1      30.348   8.768  41.849  1.00  0.00    -0.029 C 
HETATM   32  C12 UNL     1      31.092   8.856  43.165  1.00  0.00     0.019 C 
HETATM   33  C13 UNL     1      28.920   9.151  42.294  1.00  0.00     0.019 C 
HETATM   34  C14 UNL     1      30.466   7.390  41.322  1.00  0.00     0.028 C 
HETATM   35  C16 UNL     1      31.548   5.827  39.845  1.00  0.00     0.022 C 
HETATM   36  C18 UNL     1      33.022   4.337  38.596  1.00  0.00     0.012 C 
ENDBRANCH   1  19
BRANCH  16  37
HETATM   37  O8  UNL     1      26.973   6.699  36.961  1.00  0.00    -0.389 OA
ATOM     38  H8  UNL     1      27.169   7.127  36.136  1.00  0.00     0.210 HD
ENDBRANCH  16  37
BRANCH  15  39
HETATM   39  O7  UNL     1      28.850   3.894  37.928  1.00  0.00    -0.383 OA
ATOM     40  H7  UNL     1      29.555   4.527  37.860  1.00  0.00     0.210 HD
ENDBRANCH  15  39
BRANCH   9  41
HETATM   41  C26 UNL     1      24.951   2.112  34.678  1.00  0.00     0.132 C 
HETATM   42  C27 UNL     1      23.669   1.641  35.261  1.00  0.00     0.091 C 
HETATM   43  O6  UNL     1      25.608   1.346  34.024  1.00  0.00    -0.298 OA
ENDBRANCH   9  41
BRANCH  11  44
HETATM   44  C29 UNL     1      26.269   4.837  32.975  1.00  0.00     0.120 C 
HETATM   45 CL1  UNL     1      27.075   6.378  33.441  1.00  0.00    -0.130 Cl
ENDBRANCH  11  44
TORSDOF 6
ENDMDL
MODEL 2
REMARK VINA RESULT: -8.765675910      2.235      7.714
REMARK  6 active torsions:
REMARK  status: ('A' for Active; 'I' for Inactive)
REMARK    1  A    between atoms: C2_2  and  C3_3 
REMARK    2  A    between atoms: C3_3  and  C4_4 
REMARK    3  A    between atoms: C24_29  and  C26_31 
REMARK    4  A    between atoms: C28_34  and  C29_35 
REMARK    5  A    between atoms: C33_40  and  O7_41 
REMARK    6  A    between atoms: C34_43  and  O8_44 
ROOT
HETATM    1  C3  UNL     1      27.684   4.955  38.479  1.00  0.00     0.154 C 
HETATM    2  O4  UNL     1      27.040   6.182  37.990  1.00  0.00    -0.223 OA
HETATM    3  O5  UNL     1      26.654   6.901  39.007  1.00  0.00    -0.226 OA
HETATM    4  C19 UNL     1      27.655   7.783  39.421  1.00  0.00     0.127 C 
HETATM    5  C20 UNL     1      27.465   8.937  38.452  1.00  0.00     0.052 C 
HETATM    6  C21 UNL     1      27.361   8.371  40.775  1.00  0.00     0.044 C 
HETATM    7  C22 UNL     1      28.599   9.085  41.304  1.00  0.00     0.010 C 
HETATM    8  C23 UNL     1      29.586   8.005  41.526  1.00  0.00     0.013 C 
HETATM    9  C24 UNL     1      30.776   8.214  42.332  1.00  0.00     0.025 C 
HETATM   10  C25 UNL     1      30.465   7.729  43.772  1.00  0.00     0.024 C 
HETATM   11  C28 UNL     1      31.784   7.236  41.753  1.00  0.00     0.016 C 
HETATM   12  C30 UNL     1      31.056   6.492  40.620  1.00  0.00     0.019 C 
HETATM   13  C31 UNL     1      30.047   7.483  40.190  1.00  0.00    -0.002 C 
HETATM   14  C32 UNL     1      30.873   8.572  39.479  1.00  0.00     0.019 C 
HETATM   15  C33 UNL     1      28.927   7.021  39.296  1.00  0.00     0.128 C 
HETATM   16  C34 UNL     1      28.737   5.497  39.309  1.00  0.00     0.197 C 
ENDROOT
BRANCH   1  17
HETATM   17  C2  UNL     1      26.470   4.700  39.473  1.00  0.00     0.042 C 
HETATM   18  C1  UNL     1      25.326   4.018  38.821  1.00  0.00     0.008 C 
ENDBRANCH   1  17
BRANCH   1  19
HETATM   19  C4  UNL     1      27.720   3.960  37.453  1.00  0.00     0.212 C 
HETATM   20  O1  UNL     1      28.014   2.666  37.932  1.00  0.00    -0.231 OA
HETATM   21  O2  UNL     1      29.230   2.365  38.026  1.00  0.00    -0.233 OA
HETATM   22  C5  UNL     1      30.191   2.576  37.151  1.00  0.00     0.187 C 
HETATM   23  C6  UNL     1      29.919   1.689  35.938  1.00  0.00     0.204 C 
HETATM   24  C17 UNL     1      30.509   3.954  36.705  1.00  0.00     0.017 C 
HETATM   25  O3  UNL     1      28.579   1.647  35.854  1.00  0.00    -0.373 OA
HETATM   26  C7  UNL     1      27.904   2.733  35.338  1.00  0.00     0.085 C 
HETATM   27  C8  UNL     1      28.322   2.742  33.891  1.00  0.00     0.051 C 
HETATM   28  C9  UNL     1      26.480   2.290  35.322  1.00  0.00     0.008 C 
HETATM   29  C15 UNL     1      28.075   4.060  36.028  1.00  0.00     0.028 C 
HETATM   30  C10 UNL     1      25.561   3.162  35.026  1.00  0.00    -0.019 C 
HETATM   31  C11 UNL     1      25.900   4.540  34.721  1.00  0.00    -0.029 C 
HETATM   32  C12 UNL     1      25.784   4.777  33.229  1.00  0.00     0.019 C 
HETATM   33  C13 UNL     1      24.720   5.387  35.243  1.00  0.00     0.019 C 
HETATM   34  C14 UNL     1      27.228   5.007  35.180  1.00  0.00     0.028 C 
HETATM   35  C16 UNL     1      29.503   4.501  35.779  1.00  0.00     0.022 C 
HETATM   36  C18 UNL     1      31.848   3.847  35.949  1.00  0.00     0.012 C 
ENDBRANCH   1  19
BRANCH  16  37
HETATM   37  O8  UNL     1      28.442   5.221  40.684  1.00  0.00    -0.389 OA
ATOM     38  H8  UNL     1      28.652   5.985  41.208  1.00  0.00     0.210 HD
ENDBRANCH  16  37
BRANCH  15  39
HETATM   39  O7  UNL     1      29.408   7.295  38.021  1.00  0.00    -0.383 OA
ATOM     40  H7  UNL     1      28.661   7.609  37.525  1.00  0.00     0.210 HD
ENDBRANCH  15  39
BRANCH   9  41
HETATM   41  C26 UNL     1      31.312   9.550  42.520  1.00  0.00     0.132 C 
HETATM   42  C27 UNL     1      30.739  10.436  43.565  1.00  0.00     0.091 C 
HETATM   43  O6  UNL     1      32.217   9.961  41.842  1.00  0.00    -0.298 OA
ENDBRANCH   9  41
BRANCH  11  44
HETATM   44  C29 UNL     1      32.228   6.213  42.813  1.00  0.00     0.120 C 
HETATM   45 CL1  UNL     1      31.575   4.640  42.229  1.00  0.00    -0.130 Cl
ENDBRANCH  11  44
TORSDOF 6
ENDMDL
MODEL 3
REMARK VINA RESULT: -8.743080775      3.082      8.205
REMARK  6 active torsions:
REMARK  status: ('A' for Active; 'I' for Inactive)
REMARK    1  A    between atoms: C2_2  and  C3_3 
REMARK    2  A    between atoms: C3_3  and  C4_4 
REMARK    3  A    between atoms: C24_29  and  C26_31 
REMARK    4  A    between atoms: C28_34  and  C29_35 
REMARK    5  A    between atoms: C33_40  and  O7_41 
REMARK    6  A    between atoms: C34_43  and  O8_44 
ROOT
HETATM    1  C3  UNL     1      29.398   6.714  39.119  1.00  0.00     0.154 C 
HETATM    2  O4  UNL     1      30.195   7.801  38.537  1.00  0.00    -0.223 OA
HETATM    3  O5  UNL     1      30.108   8.857  39.299  1.00  0.00    -0.226 OA
HETATM    4  C19 UNL     1      31.105   8.866  40.277  1.00  0.00     0.127 C 
HETATM    5  C20 UNL     1      32.282   9.441  39.508  1.00  0.00     0.052 C 
HETATM    6  C21 UNL     1      30.825   9.877  41.355  1.00  0.00     0.044 C 
HETATM    7  C22 UNL     1      31.769   9.651  42.530  1.00  0.00     0.010 C 
HETATM    8  C23 UNL     1      31.369   8.336  43.080  1.00  0.00     0.013 C 
HETATM    9  C24 UNL     1      31.794   7.902  44.399  1.00  0.00     0.025 C 
HETATM   10  C25 UNL     1      30.664   8.257  45.401  1.00  0.00     0.024 C 
HETATM   11  C28 UNL     1      31.820   6.386  44.293  1.00  0.00     0.016 C 
HETATM   12  C30 UNL     1      31.368   6.051  42.861  1.00  0.00     0.019 C 
HETATM   13  C31 UNL     1      31.777   7.257  42.111  1.00  0.00    -0.002 C 
HETATM   14  C32 UNL     1      33.314   7.168  42.070  1.00  0.00     0.019 C 
HETATM   15  C33 UNL     1      31.237   7.451  40.719  1.00  0.00     0.128 C 
HETATM   16  C34 UNL     1      29.992   6.598  40.434  1.00  0.00     0.197 C 
ENDROOT
BRANCH   1  17
HETATM   17  C2  UNL     1      28.168   7.702  39.312  1.00  0.00     0.042 C 
HETATM   18  C1  UNL     1      26.910   7.174  38.733  1.00  0.00     0.008 C 
ENDBRANCH   1  17
BRANCH   1  19
HETATM   19  C4  UNL     1      29.104   5.720  38.135  1.00  0.00     0.212 C 
HETATM   20  O1  UNL     1      28.692   4.487  38.685  1.00  0.00    -0.231 OA
HETATM   21  O2  UNL     1      29.601   3.673  38.984  1.00  0.00    -0.233 OA
HETATM   22  C5  UNL     1      30.657   3.336  38.275  1.00  0.00     0.187 C 
HETATM   23  C6  UNL     1      30.169   2.560  37.053  1.00  0.00     0.204 C 
HETATM   24  C17 UNL     1      31.639   4.366  37.857  1.00  0.00     0.017 C 
HETATM   25  O3  UNL     1      28.990   3.129  36.750  1.00  0.00    -0.373 OA
HETATM   26  C7  UNL     1      28.977   4.348  36.107  1.00  0.00     0.085 C 
HETATM   27  C8  UNL     1      29.543   4.026  34.748  1.00  0.00     0.051 C 
HETATM   28  C9  UNL     1      27.529   4.606  35.866  1.00  0.00     0.008 C 
HETATM   29  C15 UNL     1      29.654   5.508  36.787  1.00  0.00     0.028 C 
HETATM   30  C10 UNL     1      27.173   5.770  35.404  1.00  0.00    -0.019 C 
HETATM   31  C11 UNL     1      28.154   6.803  35.129  1.00  0.00    -0.029 C 
HETATM   32  C12 UNL     1      28.366   6.922  33.634  1.00  0.00     0.019 C 
HETATM   33  C13 UNL     1      27.448   8.142  35.432  1.00  0.00     0.019 C 
HETATM   34  C14 UNL     1      29.470   6.652  35.790  1.00  0.00     0.028 C 
HETATM   35  C16 UNL     1      31.141   5.220  36.766  1.00  0.00     0.022 C 
HETATM   36  C18 UNL     1      32.862   3.586  37.334  1.00  0.00     0.012 C 
ENDBRANCH   1  19
BRANCH  16  37
HETATM   37  O8  UNL     1      29.054   7.057  41.416  1.00  0.00    -0.389 OA
ATOM     38  H8  UNL     1      28.871   7.976  41.267  1.00  0.00     0.210 HD
ENDBRANCH  16  37
BRANCH  15  39
HETATM   39  O7  UNL     1      32.225   6.894  39.917  1.00  0.00    -0.383 OA
ATOM     40  H7  UNL     1      33.027   6.938  40.426  1.00  0.00     0.210 HD
ENDBRANCH  15  39
BRANCH   9  41
HETATM   41  C26 UNL     1      32.989   8.457  45.008  1.00  0.00     0.132 C 
HETATM   42  C27 UNL     1      34.079   7.553  45.453  1.00  0.00     0.091 C 
HETATM   43  O6  UNL     1      33.118   9.643  45.162  1.00  0.00    -0.298 OA
ENDBRANCH   9  41
BRANCH  11  44
HETATM   44  C29 UNL     1      30.832   5.750  45.286  1.00  0.00     0.120 C 
HETATM   45 CL1  UNL     1      31.874   5.045  46.575  1.00  0.00    -0.130 Cl
ENDBRANCH  11  44
TORSDOF 6
ENDMDL
MODEL 4
REMARK VINA RESULT: -8.710135038      3.117      8.101
REMARK  6 active torsions:
REMARK  status: ('A' for Active; 'I' for Inactive)
REMARK    1  A    between atoms: C2_2  and  C3_3 
REMARK    2  A    between atoms: C3_3  and  C4_4 
REMARK    3  A    between atoms: C24_29  and  C26_31 
REMARK    4  A    between atoms: C28_34  and  C29_35 
REMARK    5  A    between atoms: C33_40  and  O7_41 
REMARK    6  A    between atoms: C34_43  and  O8_44 
ROOT
HETATM    1  C3  UNL     1      29.339   7.197  38.801  1.00  0.00     0.154 C 
HETATM    2  O4  UNL     1      30.437   6.868  37.883  1.00  0.00    -0.223 OA
HETATM    3  O5  UNL     1      31.519   7.491  38.261  1.00  0.00    -0.226 OA
HETATM    4  C19 UNL     1      32.261   6.728  39.166  1.00  0.00     0.127 C 
HETATM    5  C20 UNL     1      33.037   5.817  38.231  1.00  0.00     0.052 C 
HETATM    6  C21 UNL     1      33.314   7.547  39.861  1.00  0.00     0.044 C 
HETATM    7  C22 UNL     1      33.891   6.756  41.029  1.00  0.00     0.010 C 
HETATM    8  C23 UNL     1      32.768   6.628  41.984  1.00  0.00     0.013 C 
HETATM    9  C24 UNL     1      32.983   6.235  43.365  1.00  0.00     0.025 C 
HETATM   10  C25 UNL     1      33.082   7.527  44.217  1.00  0.00     0.024 C 
HETATM   11  C28 UNL     1      31.681   5.556  43.757  1.00  0.00     0.016 C 
HETATM   12  C30 UNL     1      30.769   5.634  42.520  1.00  0.00     0.019 C 
HETATM   13  C31 UNL     1      31.746   5.680  41.411  1.00  0.00    -0.002 C 
HETATM   14  C32 UNL     1      32.338   4.259  41.376  1.00  0.00     0.019 C 
HETATM   15  C33 UNL     1      31.255   6.067  40.042  1.00  0.00     0.128 C 
HETATM   16  C34 UNL     1      29.897   6.785  40.071  1.00  0.00     0.197 C 
ENDROOT
BRANCH   1  17
HETATM   17  C2  UNL     1      29.688   8.744  38.684  1.00  0.00     0.042 C 
HETATM   18  C1  UNL     1      28.645   9.515  37.967  1.00  0.00     0.008 C 
ENDBRANCH   1  17
BRANCH   1  19
HETATM   19  C4  UNL     1      28.075   6.912  38.199  1.00  0.00     0.212 C 
HETATM   20  O1  UNL     1      26.979   7.116  39.065  1.00  0.00    -0.231 OA
HETATM   21  O2  UNL     1      26.654   6.147  39.796  1.00  0.00    -0.233 OA
HETATM   22  C5  UNL     1      26.527   4.881  39.460  1.00  0.00     0.187 C 
HETATM   23  C6  UNL     1      25.323   4.764  38.527  1.00  0.00     0.204 C 
HETATM   24  C17 UNL     1      27.678   4.138  38.892  1.00  0.00     0.017 C 
HETATM   25  O3  UNL     1      25.334   5.914  37.831  1.00  0.00    -0.373 OA
HETATM   26  C7  UNL     1      26.242   6.070  36.805  1.00  0.00     0.085 C 
HETATM   27  C8  UNL     1      25.777   5.069  35.779  1.00  0.00     0.051 C 
HETATM   28  C9  UNL     1      25.897   7.400  36.227  1.00  0.00     0.008 C 
HETATM   29  C15 UNL     1      27.706   5.960  37.140  1.00  0.00     0.028 C 
HETATM   30  C10 UNL     1      26.685   7.908  35.324  1.00  0.00    -0.019 C 
HETATM   31  C11 UNL     1      27.878   7.208  34.885  1.00  0.00    -0.029 C 
HETATM   32  C12 UNL     1      27.645   6.613  33.511  1.00  0.00     0.019 C 
HETATM   33  C13 UNL     1      28.911   8.307  34.556  1.00  0.00     0.019 C 
HETATM   34  C14 UNL     1      28.388   6.150  35.786  1.00  0.00     0.028 C 
HETATM   35  C16 UNL     1      27.965   4.511  37.497  1.00  0.00     0.022 C 
HETATM   36  C18 UNL     1      27.265   2.652  38.915  1.00  0.00     0.012 C 
ENDBRANCH   1  19
BRANCH  16  37
HETATM   37  O8  UNL     1      30.164   7.947  40.867  1.00  0.00    -0.389 OA
ATOM     38  H8  UNL     1      30.467   8.649  40.303  1.00  0.00     0.210 HD
ENDBRANCH  16  37
BRANCH  15  39
HETATM   39  O7  UNL     1      30.981   4.842  39.447  1.00  0.00    -0.383 OA
ATOM     40  H7  UNL     1      30.328   4.426  39.999  1.00  0.00     0.210 HD
ENDBRANCH  15  39
BRANCH   9  41
HETATM   41  C26 UNL     1      34.163   5.476  43.739  1.00  0.00     0.132 C 
HETATM   42  C27 UNL     1      35.426   6.187  44.062  1.00  0.00     0.091 C 
HETATM   43  O6  UNL     1      34.142   4.275  43.793  1.00  0.00    -0.298 OA
ENDBRANCH   9  41
BRANCH  11  44
HETATM   44  C29 UNL     1      31.003   6.299  44.921  1.00  0.00     0.120 C 
HETATM   45 CL1  UNL     1      31.261   5.238  46.352  1.00  0.00    -0.130 Cl
ENDBRANCH  11  44
TORSDOF 6
ENDMDL
MODEL 5
REMARK VINA RESULT: -8.402680453      1.250      1.367
REMARK  6 active torsions:
REMARK  status: ('A' for Active; 'I' for Inactive)
REMARK    1  A    between atoms: C2_2  and  C3_3 
REMARK    2  A    between atoms: C3_3  and  C4_4 
REMARK    3  A    between atoms: C24_29  and  C26_31 
REMARK    4  A    between atoms: C28_34  and  C29_35 
REMARK    5  A    between atoms: C33_40  and  O7_41 
REMARK    6  A    between atoms: C34_43  and  O8_44 
ROOT
HETATM    1  C3  UNL     1      29.117   6.691  38.280  1.00  0.00     0.154 C 
HETATM    2  O4  UNL     1      28.397   6.548  39.552  1.00  0.00    -0.223 OA
HETATM    3  O5  UNL     1      27.115   6.483  39.318  1.00  0.00    -0.226 OA
HETATM    4  C19 UNL     1      26.696   5.166  39.116  1.00  0.00     0.127 C 
HETATM    5  C20 UNL     1      26.523   4.679  40.544  1.00  0.00     0.052 C 
HETATM    6  C21 UNL     1      25.316   5.100  38.522  1.00  0.00     0.044 C 
HETATM    7  C22 UNL     1      25.024   3.679  38.055  1.00  0.00     0.010 C 
HETATM    8  C23 UNL     1      25.968   3.453  36.938  1.00  0.00     0.013 C 
HETATM    9  C24 UNL     1      25.796   2.353  36.006  1.00  0.00     0.025 C 
HETATM   10  C25 UNL     1      25.031   2.894  34.770  1.00  0.00     0.024 C 
HETATM   11  C28 UNL     1      27.209   2.045  35.541  1.00  0.00     0.016 C 
HETATM   12  C30 UNL     1      28.125   3.052  36.259  1.00  0.00     0.019 C 
HETATM   13  C31 UNL     1      27.365   3.343  37.494  1.00  0.00    -0.002 C 
HETATM   14  C32 UNL     1      27.481   2.047  38.318  1.00  0.00     0.019 C 
HETATM   15  C33 UNL     1      27.784   4.523  38.329  1.00  0.00     0.128 C 
HETATM   16  C34 UNL     1      28.662   5.522  37.561  1.00  0.00     0.197 C 
ENDROOT
BRANCH   1  17
HETATM   17  C2  UNL     1      28.128   7.855  37.838  1.00  0.00     0.042 C 
HETATM   18  C1  UNL     1      28.601   9.198  38.248  1.00  0.00     0.008 C 
ENDBRANCH   1  17
BRANCH   1  19
HETATM   19  C4  UNL     1      30.435   7.199  38.501  1.00  0.00     0.212 C 
HETATM   20  O1  UNL     1      31.104   7.565  37.314  1.00  0.00    -0.231 OA
HETATM   21  O2  UNL     1      31.741   6.656  36.725  1.00  0.00    -0.233 OA
HETATM   22  C5  UNL     1      32.548   5.758  37.248  1.00  0.00     0.187 C 
HETATM   23  C6  UNL     1      33.788   6.488  37.762  1.00  0.00     0.204 C 
HETATM   24  C17 UNL     1      32.053   4.818  38.283  1.00  0.00     0.017 C 
HETATM   25  O3  UNL     1      33.319   7.674  38.185  1.00  0.00    -0.373 OA
HETATM   26  C7  UNL     1      32.654   7.743  39.391  1.00  0.00     0.085 C 
HETATM   27  C8  UNL     1      33.734   7.440  40.397  1.00  0.00     0.051 C 
HETATM   28  C9  UNL     1      32.374   9.198  39.557  1.00  0.00     0.008 C 
HETATM   29  C15 UNL     1      31.415   6.905  39.559  1.00  0.00     0.028 C 
HETATM   30  C10 UNL     1      31.611   9.575  40.542  1.00  0.00    -0.019 C 
HETATM   31  C11 UNL     1      31.035   8.611  41.461  1.00  0.00    -0.029 C 
HETATM   32  C12 UNL     1      31.774   8.659  42.782  1.00  0.00     0.019 C 
HETATM   33  C13 UNL     1      29.664   9.190  41.872  1.00  0.00     0.019 C 
HETATM   34  C14 UNL     1      30.981   7.208  40.992  1.00  0.00     0.028 C 
HETATM   35  C16 UNL     1      31.867   5.459  39.595  1.00  0.00     0.022 C 
HETATM   36  C18 UNL     1      33.150   3.743  38.427  1.00  0.00     0.012 C 
ENDBRANCH   1  19
BRANCH  16  37
HETATM   37  O8  UNL     1      27.814   5.934  36.482  1.00  0.00    -0.389 OA
ATOM     38  H8  UNL     1      28.241   6.628  35.996  1.00  0.00     0.210 HD
ENDBRANCH  16  37
BRANCH  15  39
HETATM   39  O7  UNL     1      28.644   3.958  39.263  1.00  0.00    -0.383 OA
ATOM     40  H7  UNL     1      29.513   4.263  39.032  1.00  0.00     0.210 HD
ENDBRANCH  15  39
BRANCH   9  41
HETATM   41  C26 UNL     1      25.047   1.171  36.393  1.00  0.00     0.132 C 
HETATM   42  C27 UNL     1      23.569   1.153  36.248  1.00  0.00     0.091 C 
HETATM   43  O6  UNL     1      25.600   0.198  36.833  1.00  0.00    -0.298 OA
ENDBRANCH   9  41
BRANCH  11  44
HETATM   44  C29 UNL     1      27.344   2.249  34.022  1.00  0.00     0.120 C 
HETATM   45 CL1  UNL     1      28.448   3.660  33.848  1.00  0.00    -0.130 Cl
ENDBRANCH  11  44
TORSDOF 6
ENDMDL
