MODEL 1
REMARK VINA RESULT: -8.263995115      0.000      0.000
REMARK  10 active torsions:
REMARK  status: ('A' for Active; 'I' for Inactive)
REMARK    1  A    between atoms: C2_2  and  C3_3 
REMARK    2  A    between atoms: C3_3  and  C4_4 
REMARK    3  A    between atoms: C6_6  and  C7_7 
REMARK    4  A    between atoms: C7_7  and  C8_8 
REMARK    5  A    between atoms: C9_9  and  O1_10 
REMARK    6  A    between atoms: C10_13  and  C11_14 
REMARK    7  A    between atoms: C11_14  and  O3_17 
REMARK    8  A    between atoms: C14_19  and  O4_21 
REMARK    9  A    between atoms: C27_36  and  O6_37 
REMARK   10  A    between atoms: O6_37  and  C28_38 
ROOT
HETATM    1  C8  UNL     1      27.340   4.143  37.950  1.00  0.00     0.047 C 
HETATM    2  C9  UNL     1      28.459   4.831  37.192  1.00  0.00     0.269 C 
HETATM    3  O2  UNL     1      28.152   5.477  36.055  1.00  0.00    -0.349 OA
HETATM    4  C10 UNL     1      28.261   6.653  35.380  1.00  0.00     0.192 C 
HETATM    5  C14 UNL     1      26.982   7.114  34.665  1.00  0.00     0.083 C 
HETATM    6  C15 UNL     1      27.095   8.620  34.424  1.00  0.00     0.049 C 
HETATM    7  C16 UNL     1      25.826   6.957  35.603  1.00  0.00     0.042 C 
HETATM    8  C17 UNL     1      25.101   5.688  35.536  1.00  0.00     0.036 C 
HETATM    9  C18 UNL     1      25.788   4.409  35.713  1.00  0.00     0.132 C 
HETATM   10  O5  UNL     1      24.708   3.525  35.381  1.00  0.00    -0.374 OA
HETATM   11  C19 UNL     1      24.762   2.218  35.543  1.00  0.00     0.058 C 
HETATM   12  C20 UNL     1      25.066   1.680  34.111  1.00  0.00     0.046 C 
HETATM   13  C21 UNL     1      23.442   1.518  35.816  1.00  0.00     0.046 C 
HETATM   14  C22 UNL     1      25.771   1.618  36.470  1.00  0.00     0.029 C 
HETATM   15  C23 UNL     1      25.505   1.451  37.898  1.00  0.00     0.014 C 
HETATM   16  C24 UNL     1      26.443   1.940  38.911  1.00  0.00     0.009 C 
HETATM   17  C25 UNL     1      27.020   0.748  39.701  1.00  0.00     0.012 C 
HETATM   18  C26 UNL     1      27.593   2.858  38.647  1.00  0.00     0.084 C 
HETATM   19 CL1  UNL     1      28.255   3.077  40.294  1.00  0.00    -0.115 Cl
HETATM   20  C27 UNL     1      28.628   1.953  37.960  1.00  0.00     0.186 C 
HETATM   21  C30 UNL     1      28.203   2.152  36.578  1.00  0.00    -0.047 C 
HETATM   22  C31 UNL     1      29.082   1.843  35.651  1.00  0.00    -0.025 C 
HETATM   23  C32 UNL     1      28.926   1.939  34.187  1.00  0.00     0.036 C 
HETATM   24  C33 UNL     1      26.850   2.645  36.334  1.00  0.00     0.035 C 
HETATM   25  C34 UNL     1      26.288   3.870  36.967  1.00  0.00     0.005 C 
HETATM   26  C35 UNL     1      25.113   4.166  37.713  1.00  0.00     0.020 C 
ENDROOT
BRANCH   1  27
HETATM   27  C7  UNL     1      27.080   5.241  38.984  1.00  0.00     0.044 C 
BRANCH  27  28
HETATM   28  C6  UNL     1      26.985   6.618  38.520  1.00  0.00    -0.023 C 
HETATM   29  C4  UNL     1      27.576   7.621  39.157  1.00  0.00    -0.084 C 
HETATM   30  C5  UNL     1      28.343   7.333  40.392  1.00  0.00     0.043 C 
BRANCH  29  31
HETATM   31  C3  UNL     1      27.488   9.045  38.696  1.00  0.00     0.059 C 
BRANCH  31  32
HETATM   32  C2  UNL     1      28.530   9.449  37.776  1.00  0.00    -0.033 C 
HETATM   33  C1  UNL     1      28.545  10.548  37.065  1.00  0.00     0.007 C 
ENDBRANCH  31  32
ENDBRANCH  29  31
ENDBRANCH  27  28
ENDBRANCH   1  27
BRANCH   2  34
HETATM   34  O1  UNL     1      29.641   4.733  37.728  1.00  0.00    -0.370 OA
ATOM     35  H1  UNL     1      29.802   5.303  38.471  1.00  0.00     0.212 HD
ENDBRANCH   2  34
BRANCH  20  36
HETATM   36  O6  UNL     1      29.838   2.106  38.433  1.00  0.00    -0.310 OA
BRANCH  36  37
HETATM   37  C28 UNL     1      30.900   1.345  38.772  1.00  0.00     0.255 C 
HETATM   38  C29 UNL     1      32.285   1.813  39.004  1.00  0.00     0.126 C 
HETATM   39  O7  UNL     1      30.566   0.149  38.873  1.00  0.00    -0.266 OA
ENDBRANCH  36  37
ENDBRANCH  20  36
BRANCH   4  40
HETATM   40  C11 UNL     1      29.317   6.441  34.280  1.00  0.00     0.079 C 
HETATM   41  C12 UNL     1      30.678   6.081  34.800  1.00  0.00     0.048 C 
HETATM   42  C13 UNL     1      28.899   5.219  33.423  1.00  0.00     0.048 C 
BRANCH  40  43
HETATM   43  O3  UNL     1      29.345   7.478  33.368  1.00  0.00    -0.388 OA
ATOM     44  H3  UNL     1      30.165   7.518  32.890  1.00  0.00     0.210 HD
ENDBRANCH  40  43
ENDBRANCH   4  40
BRANCH   5  45
HETATM   45  O4  UNL     1      26.806   6.525  33.443  1.00  0.00    -0.388 OA
ATOM     46  H4  UNL     1      26.442   7.115  32.792  1.00  0.00     0.210 HD
ENDBRANCH   5  45
TORSDOF 10
ENDMDL
MODEL 2
REMARK VINA RESULT: -8.105774621      2.002      3.871
REMARK  10 active torsions:
REMARK  status: ('A' for Active; 'I' for Inactive)
REMARK    1  A    between atoms: C2_2  and  C3_3 
REMARK    2  A    between atoms: C3_3  and  C4_4 
REMARK    3  A    between atoms: C6_6  and  C7_7 
REMARK    4  A    between atoms: C7_7  and  C8_8 
REMARK    5  A    between atoms: C9_9  and  O1_10 
REMARK    6  A    between atoms: C10_13  and  C11_14 
REMARK    7  A    between atoms: C11_14  and  O3_17 
REMARK    8  A    between atoms: C14_19  and  O4_21 
REMARK    9  A    between atoms: C27_36  and  O6_37 
REMARK   10  A    between atoms: O6_37  and  C28_38 
ROOT
HETATM    1  C8  UNL     1      27.879   4.546  38.041  1.00  0.00     0.047 C 
HETATM    2  C9  UNL     1      29.260   4.098  38.480  1.00  0.00     0.269 C 
HETATM    3  O2  UNL     1      30.327   4.722  37.955  1.00  0.00    -0.349 OA
HETATM    4  C10 UNL     1      31.490   5.367  38.240  1.00  0.00     0.192 C 
HETATM    5  C14 UNL     1      31.750   6.638  37.417  1.00  0.00     0.083 C 
HETATM    6  C15 UNL     1      32.760   7.495  38.181  1.00  0.00     0.049 C 
HETATM    7  C16 UNL     1      30.496   7.452  37.385  1.00  0.00     0.042 C 
HETATM    8  C17 UNL     1      29.592   7.214  36.258  1.00  0.00     0.036 C 
HETATM    9  C18 UNL     1      29.072   5.878  35.970  1.00  0.00     0.132 C 
HETATM   10  O5  UNL     1      28.425   6.152  34.719  1.00  0.00    -0.374 OA
HETATM   11  C19 UNL     1      27.646   5.289  34.099  1.00  0.00     0.058 C 
HETATM   12  C20 UNL     1      28.567   4.688  32.993  1.00  0.00     0.046 C 
HETATM   13  C21 UNL     1      26.543   5.877  33.237  1.00  0.00     0.046 C 
HETATM   14  C22 UNL     1      27.045   4.144  34.852  1.00  0.00     0.029 C 
HETATM   15  C23 UNL     1      25.777   4.272  35.567  1.00  0.00     0.014 C 
HETATM   16  C24 UNL     1      25.648   3.871  36.970  1.00  0.00     0.009 C 
HETATM   17  C25 UNL     1      24.668   2.686  37.083  1.00  0.00     0.012 C 
HETATM   18  C26 UNL     1      26.790   3.553  37.882  1.00  0.00     0.084 C 
HETATM   19 CL1  UNL     1      25.932   3.206  39.413  1.00  0.00    -0.115 Cl
HETATM   20  C27 UNL     1      27.254   2.166  37.408  1.00  0.00     0.186 C 
HETATM   21  C30 UNL     1      28.225   2.596  36.408  1.00  0.00    -0.047 C 
HETATM   22  C31 UNL     1      29.118   1.703  36.044  1.00  0.00    -0.025 C 
HETATM   23  C32 UNL     1      30.206   1.857  35.060  1.00  0.00     0.036 C 
HETATM   24  C33 UNL     1      28.118   3.953  35.876  1.00  0.00     0.035 C 
HETATM   25  C34 UNL     1      28.051   5.173  36.728  1.00  0.00     0.005 C 
HETATM   26  C35 UNL     1      27.168   6.285  36.820  1.00  0.00     0.020 C 
ENDROOT
BRANCH   1  27
HETATM   27  C7  UNL     1      27.568   5.459  39.229  1.00  0.00     0.044 C 
BRANCH  27  28
HETATM   28  C6  UNL     1      28.681   6.022  39.979  1.00  0.00    -0.023 C 
HETATM   29  C4  UNL     1      28.688   7.281  40.396  1.00  0.00    -0.084 C 
HETATM   30  C5  UNL     1      27.532   8.150  40.071  1.00  0.00     0.043 C 
BRANCH  29  31
HETATM   31  C3  UNL     1      29.826   7.879  41.168  1.00  0.00     0.059 C 
BRANCH  31  32
HETATM   32  C2  UNL     1      29.977   9.310  41.011  1.00  0.00    -0.033 C 
HETATM   33  C1  UNL     1      30.781   9.911  40.169  1.00  0.00     0.007 C 
ENDBRANCH  31  32
ENDBRANCH  29  31
ENDBRANCH  27  28
ENDBRANCH   1  27
BRANCH   2  34
HETATM   34  O1  UNL     1      29.285   3.129  39.348  1.00  0.00    -0.370 OA
ATOM     35  H1  UNL     1      29.938   2.457  39.193  1.00  0.00     0.212 HD
ENDBRANCH   2  34
BRANCH  20  36
HETATM   36  O6  UNL     1      27.468   1.333  38.394  1.00  0.00    -0.310 OA
BRANCH  36  37
HETATM   37  C28 UNL     1      27.371   0.010  38.644  1.00  0.00     0.255 C 
HETATM   38  C29 UNL     1      26.125  -0.784  38.736  1.00  0.00     0.126 C 
HETATM   39  O7  UNL     1      28.502  -0.490  38.796  1.00  0.00    -0.266 OA
ENDBRANCH  36  37
ENDBRANCH  20  36
BRANCH   4  40
HETATM   40  C11 UNL     1      32.634   4.394  37.905  1.00  0.00     0.079 C 
HETATM   41  C12 UNL     1      33.985   4.856  38.367  1.00  0.00     0.048 C 
HETATM   42  C13 UNL     1      32.399   3.069  38.676  1.00  0.00     0.048 C 
BRANCH  40  43
HETATM   43  O3  UNL     1      32.623   4.001  36.581  1.00  0.00    -0.388 OA
ATOM     44  H3  UNL     1      31.742   3.916  36.235  1.00  0.00     0.210 HD
ENDBRANCH  40  43
ENDBRANCH   4  40
BRANCH   5  45
HETATM   45  O4  UNL     1      32.292   6.381  36.187  1.00  0.00    -0.388 OA
ATOM     46  H4  UNL     1      33.172   6.725  36.087  1.00  0.00     0.210 HD
ENDBRANCH   5  45
TORSDOF 10
ENDMDL
MODEL 3
REMARK VINA RESULT: -8.018325212      2.256      5.798
REMARK  10 active torsions:
REMARK  status: ('A' for Active; 'I' for Inactive)
REMARK    1  A    between atoms: C2_2  and  C3_3 
REMARK    2  A    between atoms: C3_3  and  C4_4 
REMARK    3  A    between atoms: C6_6  and  C7_7 
REMARK    4  A    between atoms: C7_7  and  C8_8 
REMARK    5  A    between atoms: C9_9  and  O1_10 
REMARK    6  A    between atoms: C10_13  and  C11_14 
REMARK    7  A    between atoms: C11_14  and  O3_17 
REMARK    8  A    between atoms: C14_19  and  O4_21 
REMARK    9  A    between atoms: C27_36  and  O6_37 
REMARK   10  A    between atoms: O6_37  and  C28_38 
ROOT
HETATM    1  C8  UNL     1      28.945   3.504  37.940  1.00  0.00     0.047 C 
HETATM    2  C9  UNL     1      27.486   3.831  37.688  1.00  0.00     0.269 C 
HETATM    3  O2  UNL     1      27.196   4.788  36.791  1.00  0.00    -0.349 OA
HETATM    4  C10 UNL     1      26.467   5.088  35.683  1.00  0.00     0.192 C 
HETATM    5  C14 UNL     1      27.221   5.873  34.599  1.00  0.00     0.083 C 
HETATM    6  C15 UNL     1      26.484   5.674  33.274  1.00  0.00     0.049 C 
HETATM    7  C16 UNL     1      28.561   5.240  34.396  1.00  0.00     0.042 C 
HETATM    8  C17 UNL     1      29.664   5.778  35.193  1.00  0.00     0.036 C 
HETATM    9  C18 UNL     1      29.592   5.830  36.653  1.00  0.00     0.132 C 
HETATM   10  O5  UNL     1      30.788   6.580  36.912  1.00  0.00    -0.374 OA
HETATM   11  C19 UNL     1      31.280   6.770  38.119  1.00  0.00     0.058 C 
HETATM   12  C20 UNL     1      30.817   8.213  38.485  1.00  0.00     0.046 C 
HETATM   13  C21 UNL     1      32.786   6.941  38.213  1.00  0.00     0.046 C 
HETATM   14  C22 UNL     1      30.875   5.871  39.245  1.00  0.00     0.029 C 
HETATM   15  C23 UNL     1      31.571   4.615  39.519  1.00  0.00     0.014 C 
HETATM   16  C24 UNL     1      30.839   3.354  39.663  1.00  0.00     0.009 C 
HETATM   17  C25 UNL     1      31.002   2.823  41.102  1.00  0.00     0.012 C 
HETATM   18  C26 UNL     1      29.403   3.146  39.305  1.00  0.00     0.084 C 
HETATM   19 CL1  UNL     1      29.195   1.409  39.677  1.00  0.00    -0.115 Cl
HETATM   20  C27 UNL     1      28.642   3.851  40.438  1.00  0.00     0.186 C 
HETATM   21  C30 UNL     1      28.557   5.181  39.845  1.00  0.00    -0.047 C 
HETATM   22  C31 UNL     1      27.640   5.981  40.342  1.00  0.00    -0.025 C 
HETATM   23  C32 UNL     1      27.334   7.367  39.942  1.00  0.00     0.036 C 
HETATM   24  C33 UNL     1      29.496   5.526  38.780  1.00  0.00     0.035 C 
HETATM   25  C34 UNL     1      29.704   4.699  37.559  1.00  0.00     0.005 C 
HETATM   26  C35 UNL     1      30.837   4.128  36.914  1.00  0.00     0.020 C 
ENDROOT
BRANCH   1  27
HETATM   27  C7  UNL     1      29.046   2.278  37.030  1.00  0.00     0.044 C 
BRANCH  27  28
HETATM   28  C6  UNL     1      27.837   1.806  36.370  1.00  0.00    -0.023 C 
HETATM   29  C4  UNL     1      27.810   1.504  35.078  1.00  0.00    -0.084 C 
HETATM   30  C5  UNL     1      29.044   1.672  34.276  1.00  0.00     0.043 C 
BRANCH  29  31
HETATM   31  C3  UNL     1      26.574   1.018  34.381  1.00  0.00     0.059 C 
BRANCH  31  32
HETATM   32  C2  UNL     1      25.527   2.008  34.246  1.00  0.00    -0.033 C 
HETATM   33  C1  UNL     1      24.443   2.085  34.976  1.00  0.00     0.007 C 
ENDBRANCH  31  32
ENDBRANCH  29  31
ENDBRANCH  27  28
ENDBRANCH   1  27
BRANCH   2  34
HETATM   34  O1  UNL     1      26.629   3.135  38.377  1.00  0.00    -0.370 OA
ATOM     35  H1  UNL     1      26.348   3.528  39.195  1.00  0.00     0.212 HD
ENDBRANCH   2  34
BRANCH  20  36
HETATM   36  O6  UNL     1      27.648   3.142  40.907  1.00  0.00    -0.310 OA
BRANCH  36  37
HETATM   37  C28 UNL     1      27.092   2.834  42.098  1.00  0.00     0.255 C 
HETATM   38  C29 UNL     1      27.622   1.884  43.102  1.00  0.00     0.126 C 
HETATM   39  O7  UNL     1      26.035   3.471  42.265  1.00  0.00    -0.266 OA
ENDBRANCH  36  37
ENDBRANCH  20  36
BRANCH   4  40
HETATM   40  C11 UNL     1      25.308   5.993  36.143  1.00  0.00     0.079 C 
HETATM   41  C12 UNL     1      24.208   6.138  35.133  1.00  0.00     0.048 C 
HETATM   42  C13 UNL     1      24.622   5.333  37.366  1.00  0.00     0.048 C 
BRANCH  40  43
HETATM   43  O3  UNL     1      25.749   7.205  36.637  1.00  0.00    -0.388 OA
ATOM     44  H3  UNL     1      25.701   7.900  35.992  1.00  0.00     0.210 HD
ENDBRANCH  40  43
ENDBRANCH   4  40
BRANCH   5  45
HETATM   45  O4  UNL     1      27.260   7.220  34.837  1.00  0.00    -0.388 OA
ATOM     46  H4  UNL     1      27.850   7.686  34.257  1.00  0.00     0.210 HD
ENDBRANCH   5  45
TORSDOF 10
ENDMDL
MODEL 4
REMARK VINA RESULT: -7.969829676      1.939      3.044
REMARK  10 active torsions:
REMARK  status: ('A' for Active; 'I' for Inactive)
REMARK    1  A    between atoms: C2_2  and  C3_3 
REMARK    2  A    between atoms: C3_3  and  C4_4 
REMARK    3  A    between atoms: C6_6  and  C7_7 
REMARK    4  A    between atoms: C7_7  and  C8_8 
REMARK    5  A    between atoms: C9_9  and  O1_10 
REMARK    6  A    between atoms: C10_13  and  C11_14 
REMARK    7  A    between atoms: C11_14  and  O3_17 
REMARK    8  A    between atoms: C14_19  and  O4_21 
REMARK    9  A    between atoms: C27_36  and  O6_37 
REMARK   10  A    between atoms: O6_37  and  C28_38 
ROOT
HETATM    1  C8  UNL     1      29.119   4.038  37.892  1.00  0.00     0.047 C 
HETATM    2  C9  UNL     1      28.951   4.612  36.498  1.00  0.00     0.269 C 
HETATM    3  O2  UNL     1      27.719   4.637  35.966  1.00  0.00    -0.349 OA
HETATM    4  C10 UNL     1      26.782   5.420  35.366  1.00  0.00     0.192 C 
HETATM    5  C14 UNL     1      25.344   5.212  35.863  1.00  0.00     0.083 C 
HETATM    6  C15 UNL     1      24.539   6.464  35.510  1.00  0.00     0.049 C 
HETATM    7  C16 UNL     1      25.356   5.169  37.358  1.00  0.00     0.042 C 
HETATM    8  C17 UNL     1      25.487   3.846  37.971  1.00  0.00     0.036 C 
HETATM    9  C18 UNL     1      26.612   2.968  37.650  1.00  0.00     0.132 C 
HETATM   10  O5  UNL     1      26.179   1.786  38.338  1.00  0.00    -0.374 OA
HETATM   11  C19 UNL     1      26.936   0.719  38.498  1.00  0.00     0.058 C 
HETATM   12  C20 UNL     1      26.429  -0.262  37.397  1.00  0.00     0.046 C 
HETATM   13  C21 UNL     1      26.673  -0.115  39.740  1.00  0.00     0.046 C 
HETATM   14  C22 UNL     1      28.422   0.824  38.353  1.00  0.00     0.029 C 
HETATM   15  C23 UNL     1      29.282   1.194  39.475  1.00  0.00     0.014 C 
HETATM   16  C24 UNL     1      30.267   2.273  39.357  1.00  0.00     0.009 C 
HETATM   17  C25 UNL     1      31.689   1.695  39.503  1.00  0.00     0.012 C 
HETATM   18  C26 UNL     1      30.333   3.259  38.235  1.00  0.00     0.084 C 
HETATM   19 CL1  UNL     1      31.701   4.290  38.752  1.00  0.00    -0.115 Cl
HETATM   20  C27 UNL     1      30.918   2.443  37.072  1.00  0.00     0.186 C 
HETATM   21  C30 UNL     1      29.667   1.946  36.508  1.00  0.00    -0.047 C 
HETATM   22  C31 UNL     1      29.719   1.515  35.268  1.00  0.00    -0.025 C 
HETATM   23  C32 UNL     1      28.621   0.962  34.453  1.00  0.00     0.036 C 
HETATM   24  C33 UNL     1      28.479   1.940  37.359  1.00  0.00     0.035 C 
HETATM   25  C34 UNL     1      27.985   3.133  38.101  1.00  0.00     0.005 C 
HETATM   26  C35 UNL     1      27.645   3.403  39.456  1.00  0.00     0.020 C 
ENDROOT
BRANCH   1  27
HETATM   27  C7  UNL     1      29.125   5.359  38.664  1.00  0.00     0.044 C 
BRANCH  27  28
HETATM   28  C6  UNL     1      28.801   6.582  37.944  1.00  0.00    -0.023 C 
HETATM   29  C4  UNL     1      27.986   7.502  38.444  1.00  0.00    -0.084 C 
HETATM   30  C5  UNL     1      27.370   7.268  39.772  1.00  0.00     0.043 C 
BRANCH  29  31
HETATM   31  C3  UNL     1      27.638   8.766  37.717  1.00  0.00     0.059 C 
BRANCH  31  32
HETATM   32  C2  UNL     1      28.279   8.919  36.429  1.00  0.00    -0.033 C 
HETATM   33  C1  UNL     1      27.677   8.931  35.266  1.00  0.00     0.007 C 
ENDBRANCH  31  32
ENDBRANCH  29  31
ENDBRANCH  27  28
ENDBRANCH   1  27
BRANCH   2  34
HETATM   34  O1  UNL     1      30.043   5.041  35.934  1.00  0.00    -0.370 OA
ATOM     35  H1  UNL     1      29.924   5.699  35.260  1.00  0.00     0.212 HD
ENDBRANCH   2  34
BRANCH  20  36
HETATM   36  O6  UNL     1      31.866   3.073  36.428  1.00  0.00    -0.310 OA
BRANCH  36  37
HETATM   37  C28 UNL     1      33.104   2.830  35.948  1.00  0.00     0.255 C 
HETATM   38  C29 UNL     1      34.376   2.913  36.700  1.00  0.00     0.126 C 
HETATM   39  O7  UNL     1      33.051   2.512  34.745  1.00  0.00    -0.266 OA
ENDBRANCH  36  37
ENDBRANCH  20  36
BRANCH   4  40
HETATM   40  C11 UNL     1      26.780   5.049  33.872  1.00  0.00     0.079 C 
HETATM   41  C12 UNL     1      26.509   6.205  32.955  1.00  0.00     0.048 C 
HETATM   42  C13 UNL     1      28.202   4.573  33.478  1.00  0.00     0.048 C 
BRANCH  40  43
HETATM   43  O3  UNL     1      25.989   3.949  33.602  1.00  0.00    -0.388 OA
ATOM     44  H3  UNL     1      25.137   4.191  33.256  1.00  0.00     0.210 HD
ENDBRANCH  40  43
ENDBRANCH   4  40
BRANCH   5  45
HETATM   45  O4  UNL     1      24.716   4.152  35.269  1.00  0.00    -0.388 OA
ATOM     46  H4  UNL     1      23.794   4.308  35.101  1.00  0.00     0.210 HD
ENDBRANCH   5  45
TORSDOF 10
ENDMDL
MODEL 5
REMARK VINA RESULT: -7.950608153      2.153      5.479
REMARK  10 active torsions:
REMARK  status: ('A' for Active; 'I' for Inactive)
REMARK    1  A    between atoms: C2_2  and  C3_3 
REMARK    2  A    between atoms: C3_3  and  C4_4 
REMARK    3  A    between atoms: C6_6  and  C7_7 
REMARK    4  A    between atoms: C7_7  and  C8_8 
REMARK    5  A    between atoms: C9_9  and  O1_10 
REMARK    6  A    between atoms: C10_13  and  C11_14 
REMARK    7  A    between atoms: C11_14  and  O3_17 
REMARK    8  A    between atoms: C14_19  and  O4_21 
REMARK    9  A    between atoms: C27_36  and  O6_37 
REMARK   10  A    between atoms: O6_37  and  C28_38 
ROOT
HETATM    1  C8  UNL     1      27.662   5.258  37.193  1.00  0.00     0.047 C 
HETATM    2  C9  UNL     1      28.691   4.151  37.075  1.00  0.00     0.269 C 
HETATM    3  O2  UNL     1      29.982   4.496  36.947  1.00  0.00    -0.349 OA
HETATM    4  C10 UNL     1      31.237   4.308  37.436  1.00  0.00     0.192 C 
HETATM    5  C14 UNL     1      32.076   5.586  37.589  1.00  0.00     0.083 C 
HETATM    6  C15 UNL     1      33.190   5.300  38.597  1.00  0.00     0.049 C 
HETATM    7  C16 UNL     1      31.230   6.637  38.235  1.00  0.00     0.042 C 
HETATM    8  C17 UNL     1      30.499   7.530  37.335  1.00  0.00     0.036 C 
HETATM    9  C18 UNL     1      29.580   7.005  36.326  1.00  0.00     0.132 C 
HETATM   10  O5  UNL     1      29.292   8.225  35.627  1.00  0.00    -0.374 OA
HETATM   11  C19 UNL     1      28.363   8.329  34.698  1.00  0.00     0.058 C 
HETATM   12  C20 UNL     1      29.166   8.265  33.363  1.00  0.00     0.046 C 
HETATM   13  C21 UNL     1      27.707   9.691  34.550  1.00  0.00     0.046 C 
HETATM   14  C22 UNL     1      27.270   7.311  34.612  1.00  0.00     0.029 C 
HETATM   15  C23 UNL     1      26.038   7.432  35.389  1.00  0.00     0.014 C 
HETATM   16  C24 UNL     1      25.545   6.328  36.216  1.00  0.00     0.009 C 
HETATM   17  C25 UNL     1      24.194   5.830  35.663  1.00  0.00     0.012 C 
HETATM   18  C26 UNL     1      26.325   5.102  36.569  1.00  0.00     0.084 C 
HETATM   19 CL1  UNL     1      25.163   4.234  37.615  1.00  0.00    -0.115 Cl
HETATM   20  C27 UNL     1      26.320   4.284  35.268  1.00  0.00     0.186 C 
HETATM   21  C30 UNL     1      27.531   4.832  34.665  1.00  0.00    -0.047 C 
HETATM   22  C31 UNL     1      28.080   4.115  33.711  1.00  0.00    -0.025 C 
HETATM   23  C32 UNL     1      29.294   4.422  32.931  1.00  0.00     0.036 C 
HETATM   24  C33 UNL     1      28.016   6.126  35.140  1.00  0.00     0.035 C 
HETATM   25  C34 UNL     1      28.263   6.443  36.574  1.00  0.00     0.005 C 
HETATM   26  C35 UNL     1      27.846   7.475  37.460  1.00  0.00     0.020 C 
ENDROOT
BRANCH   1  27
HETATM   27  C7  UNL     1      27.517   5.249  38.717  1.00  0.00     0.044 C 
BRANCH  27  28
HETATM   28  C6  UNL     1      28.373   4.358  39.487  1.00  0.00    -0.023 C 
HETATM   29  C4  UNL     1      29.126   4.793  40.489  1.00  0.00    -0.084 C 
HETATM   30  C5  UNL     1      29.110   6.237  40.824  1.00  0.00     0.043 C 
BRANCH  29  31
HETATM   31  C3  UNL     1      30.016   3.892  41.293  1.00  0.00     0.059 C 
BRANCH  31  32
HETATM   32  C2  UNL     1      30.484   2.719  40.586  1.00  0.00    -0.033 C 
HETATM   33  C1  UNL     1      31.725   2.307  40.519  1.00  0.00     0.007 C 
ENDBRANCH  31  32
ENDBRANCH  29  31
ENDBRANCH  27  28
ENDBRANCH   1  27
BRANCH   2  34
HETATM   34  O1  UNL     1      28.217   2.939  37.114  1.00  0.00    -0.370 OA
ATOM     35  H1  UNL     1      28.448   2.434  37.884  1.00  0.00     0.212 HD
ENDBRANCH   2  34
BRANCH  20  36
HETATM   36  O6  UNL     1      26.050   3.018  35.460  1.00  0.00    -0.310 OA
BRANCH  36  37
HETATM   37  C28 UNL     1      25.256   2.059  34.939  1.00  0.00     0.255 C 
HETATM   38  C29 UNL     1      23.860   1.760  35.327  1.00  0.00     0.126 C 
HETATM   39  O7  UNL     1      25.860   1.425  34.053  1.00  0.00    -0.266 OA
ENDBRANCH  36  37
ENDBRANCH  20  36
BRANCH   4  40
HETATM   40  C11 UNL     1      31.984   3.421  36.422  1.00  0.00     0.079 C 
HETATM   41  C12 UNL     1      33.422   3.173  36.770  1.00  0.00     0.048 C 
HETATM   42  C13 UNL     1      31.340   2.012  36.429  1.00  0.00     0.048 C 
BRANCH  40  43
HETATM   43  O3  UNL     1      31.810   3.847  35.120  1.00  0.00    -0.388 OA
ATOM     44  H3  UNL     1      31.522   3.148  34.545  1.00  0.00     0.210 HD
ENDBRANCH  40  43
ENDBRANCH   4  40
BRANCH   5  45
HETATM   45  O4  UNL     1      32.679   5.978  36.425  1.00  0.00    -0.388 OA
ATOM     46  H4  UNL     1      33.626   5.915  36.455  1.00  0.00     0.210 HD
ENDBRANCH   5  45
TORSDOF 10
ENDMDL
