MODEL 1
REMARK VINA RESULT: -5.600394349      0.000      0.000
REMARK  8 active torsions:
REMARK  status: ('A' for Active; 'I' for Inactive)
REMARK    1  A    between atoms: C2_2  and  N1_4 
REMARK    2  A    between atoms: C4_11  and  N5_12 
REMARK       I    between atoms: N5_12  and  C5_13 
REMARK       I    between atoms: C5_13  and  N8_18 
REMARK    3  A    between atoms: N8_18  and  C7_20 
REMARK    4  A    between atoms: C7_20  and  C8_21 
REMARK    5  A    between atoms: C8_21  and  S1_22 
REMARK    6  A    between atoms: S1_22  and  C9_23 
REMARK    7  A    between atoms: C9_23  and  C10_24 
REMARK    8  A    between atoms: C12_27  and  N9_28 
ROOT
HETATM    1  N5  UNL     1     -16.207  -8.702   5.637  1.00  0.00    -0.332 NA
HETATM    2  C5  UNL     1     -16.899  -8.060   4.728  1.00  0.00     0.267 C 
HETATM    3  N6  UNL     1     -18.163  -8.227   4.438  1.00  0.00    -0.253 N 
ATOM      4  H6  UNL     1     -18.716  -8.918   4.945  1.00  0.00     0.182 HD
HETATM    5  C6  UNL     1     -18.752  -7.466   3.441  1.00  0.00     0.185 C 
HETATM    6  N7  UNL     1     -19.266  -6.836   2.615  1.00  0.00    -0.172 NA
HETATM    7  N8  UNL     1     -16.200  -7.042   3.937  1.00  0.00    -0.349 N 
ATOM      8  H8  UNL     1     -16.294  -6.051   4.161  1.00  0.00     0.163 HD
ENDROOT
BRANCH   1   9
HETATM    9  C4  UNL     1     -15.670  -9.417   6.427  1.00  0.00     0.297 A 
HETATM   10  N1  UNL     1     -16.133 -10.527   7.076  1.00  0.00    -0.229 N 
HETATM   11  N2  UNL     1     -15.190 -11.029   7.833  1.00  0.00    -0.222 N 
HETATM   12  N3  UNL     1     -14.135 -10.268   7.688  1.00  0.00    -0.224 N 
ATOM     13  H2  UNL     1     -15.264 -11.857   8.425  1.00  0.00     0.210 HD
HETATM   14  N4  UNL     1     -14.341  -9.295   6.874  1.00  0.00    -0.242 N 
ATOM     15  H3  UNL     1     -13.249 -10.430   8.166  1.00  0.00     0.210 HD
ATOM     16  H4  UNL     1     -13.671  -8.575   6.605  1.00  0.00     0.192 HD
BRANCH  10  17
HETATM   17  C2  UNL     1     -17.479 -11.070   6.963  1.00  0.00     0.106 C 
HETATM   18  C1  UNL     1     -17.596 -11.999   5.794  1.00  0.00     0.034 C 
HETATM   19  C3  UNL     1     -17.890 -11.736   8.266  1.00  0.00     0.034 C 
ENDBRANCH  10  17
ENDBRANCH   1   9
BRANCH   7  20
HETATM   20  C7  UNL     1     -15.376  -7.470   2.836  1.00  0.00     0.134 C 
BRANCH  20  21
HETATM   21  C8  UNL     1     -13.959  -7.064   3.113  1.00  0.00     0.094 C 
BRANCH  21  22
HETATM   22  S1  UNL     1     -12.935  -8.491   3.453  1.00  0.00    -0.161 SA
BRANCH  22  23
HETATM   23  C9  UNL     1     -13.873  -9.999   2.973  1.00  0.00     0.131 C 
BRANCH  23  24
HETATM   24  C10 UNL     1     -13.413 -11.068   3.951  1.00  0.00     0.027 A 
HETATM   25  C11 UNL     1     -12.130 -11.117   4.407  1.00  0.00     0.079 A 
HETATM   26  S2  UNL     1     -12.170 -12.480   5.436  1.00  0.00    -0.064 SA
HETATM   27  C12 UNL     1     -13.803 -12.905   5.228  1.00  0.00     0.142 A 
HETATM   28  N10 UNL     1     -14.254 -11.988   4.379  1.00  0.00    -0.339 N 
ATOM     29  H10 UNL     1     -15.224 -11.996   4.066  1.00  0.00     0.168 HD
BRANCH  27  30
HETATM   30  N9  UNL     1     -14.417 -13.909   5.800  1.00  0.00    -0.380 N 
ATOM     31  H92 UNL     1     -15.206 -13.922   6.448  1.00  0.00     0.158 HD
ATOM     32  H91 UNL     1     -14.191 -14.897   5.683  1.00  0.00     0.158 HD
ENDBRANCH  27  30
ENDBRANCH  23  24
ENDBRANCH  22  23
ENDBRANCH  21  22
ENDBRANCH  20  21
ENDBRANCH   7  20
TORSDOF 8
ENDMDL
MODEL 2
REMARK VINA RESULT: -5.507923309      3.379      5.318
REMARK  8 active torsions:
REMARK  status: ('A' for Active; 'I' for Inactive)
REMARK    1  A    between atoms: C2_2  and  N1_4 
REMARK    2  A    between atoms: C4_11  and  N5_12 
REMARK       I    between atoms: N5_12  and  C5_13 
REMARK       I    between atoms: C5_13  and  N8_18 
REMARK    3  A    between atoms: N8_18  and  C7_20 
REMARK    4  A    between atoms: C7_20  and  C8_21 
REMARK    5  A    between atoms: C8_21  and  S1_22 
REMARK    6  A    between atoms: S1_22  and  C9_23 
REMARK    7  A    between atoms: C9_23  and  C10_24 
REMARK    8  A    between atoms: C12_27  and  N9_28 
ROOT
HETATM    1  N5  UNL     1     -15.539  -8.440   1.216  1.00  0.00    -0.332 NA
HETATM    2  C5  UNL     1     -15.945  -7.916   2.347  1.00  0.00     0.267 C 
HETATM    3  N6  UNL     1     -17.101  -7.353   2.582  1.00  0.00    -0.253 N 
ATOM      4  H6  UNL     1     -17.799  -7.290   1.841  1.00  0.00     0.182 HD
HETATM    5  C6  UNL     1     -17.378  -6.841   3.840  1.00  0.00     0.185 C 
HETATM    6  N7  UNL     1     -17.634  -6.411   4.886  1.00  0.00    -0.172 NA
HETATM    7  N8  UNL     1     -15.016  -7.951   3.482  1.00  0.00    -0.349 N 
ATOM      8  H8  UNL     1     -15.114  -8.655   4.214  1.00  0.00     0.163 HD
ENDROOT
BRANCH   1   9
HETATM    9  C4  UNL     1     -15.256  -8.798   0.114  1.00  0.00     0.297 A 
HETATM   10  N1  UNL     1     -16.044  -8.982  -0.988  1.00  0.00    -0.229 N 
HETATM   11  N2  UNL     1     -15.310  -9.351  -2.007  1.00  0.00    -0.222 N 
HETATM   12  N3  UNL     1     -14.072  -9.411  -1.587  1.00  0.00    -0.224 N 
ATOM     13  H2  UNL     1     -15.641  -9.554  -2.951  1.00  0.00     0.210 HD
HETATM   14  N4  UNL     1     -13.960  -9.099  -0.346  1.00  0.00    -0.242 N 
ATOM     15  H3  UNL     1     -13.284  -9.675  -2.178  1.00  0.00     0.210 HD
ATOM     16  H4  UNL     1     -13.099  -9.075   0.201  1.00  0.00     0.192 HD
BRANCH  10  17
HETATM   17  C2  UNL     1     -17.490  -8.812  -1.029  1.00  0.00     0.106 C 
HETATM   18  C1  UNL     1     -17.863  -7.413  -1.411  1.00  0.00     0.034 C 
HETATM   19  C3  UNL     1     -18.115  -9.844  -1.953  1.00  0.00     0.034 C 
ENDBRANCH  10  17
ENDBRANCH   1   9
BRANCH   7  20
HETATM   20  C7  UNL     1     -13.964  -6.970   3.543  1.00  0.00     0.134 C 
BRANCH  20  21
HETATM   21  C8  UNL     1     -12.654  -7.683   3.704  1.00  0.00     0.094 C 
BRANCH  21  22
HETATM   22  S1  UNL     1     -12.821  -9.425   3.329  1.00  0.00    -0.161 SA
BRANCH  22  23
HETATM   23  C9  UNL     1     -11.686 -10.363   4.432  1.00  0.00     0.131 C 
BRANCH  23  24
HETATM   24  C10 UNL     1     -12.341 -11.725   4.592  1.00  0.00     0.027 A 
HETATM   25  C11 UNL     1     -12.567 -12.270   5.820  1.00  0.00     0.079 A 
HETATM   26  S2  UNL     1     -13.290 -13.764   5.417  1.00  0.00    -0.064 SA
HETATM   27  C12 UNL     1     -13.263 -13.609   3.724  1.00  0.00     0.142 A 
HETATM   28  N10 UNL     1     -12.701 -12.422   3.533  1.00  0.00    -0.339 N 
ATOM     29  H10 UNL     1     -12.552 -12.059   2.592  1.00  0.00     0.168 HD
BRANCH  27  30
HETATM   30  N9  UNL     1     -13.710 -14.488   2.862  1.00  0.00    -0.380 N 
ATOM     31  H92 UNL     1     -13.225 -15.240   2.371  1.00  0.00     0.158 HD
ATOM     32  H91 UNL     1     -14.669 -14.563   2.523  1.00  0.00     0.158 HD
ENDBRANCH  27  30
ENDBRANCH  23  24
ENDBRANCH  22  23
ENDBRANCH  21  22
ENDBRANCH  20  21
ENDBRANCH   7  20
TORSDOF 8
ENDMDL
MODEL 3
REMARK VINA RESULT: -5.493039485      3.337      5.694
REMARK  8 active torsions:
REMARK  status: ('A' for Active; 'I' for Inactive)
REMARK    1  A    between atoms: C2_2  and  N1_4 
REMARK    2  A    between atoms: C4_11  and  N5_12 
REMARK       I    between atoms: N5_12  and  C5_13 
REMARK       I    between atoms: C5_13  and  N8_18 
REMARK    3  A    between atoms: N8_18  and  C7_20 
REMARK    4  A    between atoms: C7_20  and  C8_21 
REMARK    5  A    between atoms: C8_21  and  S1_22 
REMARK    6  A    between atoms: S1_22  and  C9_23 
REMARK    7  A    between atoms: C9_23  and  C10_24 
REMARK    8  A    between atoms: C12_27  and  N9_28 
ROOT
HETATM    1  N5  UNL     1     -14.754  -9.464   1.334  1.00  0.00    -0.332 NA
HETATM    2  C5  UNL     1     -14.833  -9.356   2.638  1.00  0.00     0.267 C 
HETATM    3  N6  UNL     1     -15.793  -8.793   3.324  1.00  0.00    -0.253 N 
ATOM      4  H6  UNL     1     -16.591  -8.380   2.842  1.00  0.00     0.182 HD
HETATM    5  C6  UNL     1     -15.726  -8.758   4.708  1.00  0.00     0.185 C 
HETATM    6  N7  UNL     1     -15.694  -8.721   5.866  1.00  0.00    -0.172 NA
HETATM    7  N8  UNL     1     -13.733  -9.916   3.433  1.00  0.00    -0.349 N 
ATOM      8  H8  UNL     1     -13.827 -10.825   3.884  1.00  0.00     0.163 HD
ENDROOT
BRANCH   1   9
HETATM    9  C4  UNL     1     -14.757  -9.415   0.143  1.00  0.00     0.297 A 
HETATM   10  N1  UNL     1     -15.771  -9.142  -0.732  1.00  0.00    -0.229 N 
HETATM   11  N2  UNL     1     -15.321  -9.161  -1.961  1.00  0.00    -0.222 N 
HETATM   12  N3  UNL     1     -14.045  -9.442  -1.898  1.00  0.00    -0.224 N 
ATOM     13  H2  UNL     1     -15.863  -8.989  -2.808  1.00  0.00     0.210 HD
HETATM   14  N4  UNL     1     -13.638  -9.607  -0.691  1.00  0.00    -0.242 N 
ATOM     15  H3  UNL     1     -13.440  -9.521  -2.716  1.00  0.00     0.210 HD
ATOM     16  H4  UNL     1     -12.689  -9.834  -0.393  1.00  0.00     0.192 HD
BRANCH  10  17
HETATM   17  C2  UNL     1     -17.156  -8.882  -0.362  1.00  0.00     0.106 C 
HETATM   18  C1  UNL     1     -17.320  -7.503   0.199  1.00  0.00     0.034 C 
HETATM   19  C3  UNL     1     -18.073  -9.131  -1.548  1.00  0.00     0.034 C 
ENDBRANCH  10  17
ENDBRANCH   1   9
BRANCH   7  20
HETATM   20  C7  UNL     1     -12.518  -9.154   3.562  1.00  0.00     0.134 C 
BRANCH  20  21
HETATM   21  C8  UNL     1     -11.413 -10.083   3.971  1.00  0.00     0.094 C 
BRANCH  21  22
HETATM   22  S1  UNL     1     -12.012 -11.760   4.139  1.00  0.00    -0.161 SA
BRANCH  22  23
HETATM   23  C9  UNL     1     -12.298 -12.095   5.924  1.00  0.00     0.131 C 
BRANCH  23  24
HETATM   24  C10 UNL     1     -13.803 -12.266   6.051  1.00  0.00     0.027 A 
HETATM   25  C11 UNL     1     -14.496 -13.117   5.243  1.00  0.00     0.079 A 
HETATM   26  S2  UNL     1     -16.098 -12.909   5.800  1.00  0.00    -0.064 SA
HETATM   27  C12 UNL     1     -15.794 -11.762   7.017  1.00  0.00     0.142 A 
HETATM   28  N10 UNL     1     -14.480 -11.581   6.950  1.00  0.00    -0.339 N 
ATOM     29  H10 UNL     1     -14.008 -10.930   7.577  1.00  0.00     0.168 HD
BRANCH  27  30
HETATM   30  N9  UNL     1     -16.687 -11.220   7.806  1.00  0.00    -0.380 N 
ATOM     31  H92 UNL     1     -17.632 -11.522   8.044  1.00  0.00     0.158 HD
ATOM     32  H91 UNL     1     -16.574 -10.358   8.339  1.00  0.00     0.158 HD
ENDBRANCH  27  30
ENDBRANCH  23  24
ENDBRANCH  22  23
ENDBRANCH  21  22
ENDBRANCH  20  21
ENDBRANCH   7  20
TORSDOF 8
ENDMDL
MODEL 4
REMARK VINA RESULT: -5.461223276      3.049      4.950
REMARK  8 active torsions:
REMARK  status: ('A' for Active; 'I' for Inactive)
REMARK    1  A    between atoms: C2_2  and  N1_4 
REMARK    2  A    between atoms: C4_11  and  N5_12 
REMARK       I    between atoms: N5_12  and  C5_13 
REMARK       I    between atoms: C5_13  and  N8_18 
REMARK    3  A    between atoms: N8_18  and  C7_20 
REMARK    4  A    between atoms: C7_20  and  C8_21 
REMARK    5  A    between atoms: C8_21  and  S1_22 
REMARK    6  A    between atoms: S1_22  and  C9_23 
REMARK    7  A    between atoms: C9_23  and  C10_24 
REMARK    8  A    between atoms: C12_27  and  N9_28 
ROOT
HETATM    1  N5  UNL     1     -13.683 -10.300   4.768  1.00  0.00    -0.332 NA
HETATM    2  C5  UNL     1     -13.980  -9.230   4.072  1.00  0.00     0.267 C 
HETATM    3  N6  UNL     1     -13.147  -8.332   3.616  1.00  0.00    -0.253 N 
ATOM      4  H6  UNL     1     -12.147  -8.427   3.793  1.00  0.00     0.182 HD
HETATM    5  C6  UNL     1     -13.623  -7.249   2.894  1.00  0.00     0.185 C 
HETATM    6  N7  UNL     1     -13.998  -6.337   2.284  1.00  0.00    -0.172 NA
HETATM    7  N8  UNL     1     -15.395  -8.993   3.763  1.00  0.00    -0.349 N 
ATOM      8  H8  UNL     1     -15.775  -9.230   2.846  1.00  0.00     0.163 HD
ENDROOT
BRANCH   1   9
HETATM    9  C4  UNL     1     -13.293 -11.183   5.469  1.00  0.00     0.297 A 
HETATM   10  N1  UNL     1     -13.523 -12.529   5.410  1.00  0.00    -0.229 N 
HETATM   11  N2  UNL     1     -12.865 -13.138   6.363  1.00  0.00    -0.222 N 
HETATM   12  N3  UNL     1     -12.221 -12.217   7.034  1.00  0.00    -0.224 N 
ATOM     13  H2  UNL     1     -12.855 -14.142   6.548  1.00  0.00     0.210 HD
HETATM   14  N4  UNL     1     -12.425 -11.039   6.567  1.00  0.00    -0.242 N 
ATOM     15  H3  UNL     1     -11.624 -12.414   7.838  1.00  0.00     0.210 HD
ATOM     16  H4  UNL     1     -12.033 -10.166   6.923  1.00  0.00     0.192 HD
BRANCH  10  17
HETATM   17  C2  UNL     1     -14.384 -13.197   4.442  1.00  0.00     0.106 C 
HETATM   18  C1  UNL     1     -13.581 -13.897   3.391  1.00  0.00     0.034 C 
HETATM   19  C3  UNL     1     -15.343 -14.137   5.153  1.00  0.00     0.034 C 
ENDBRANCH  10  17
ENDBRANCH   1   9
BRANCH   7  20
HETATM   20  C7  UNL     1     -16.237  -8.420   4.781  1.00  0.00     0.134 C 
BRANCH  20  21
HETATM   21  C8  UNL     1     -17.186  -7.458   4.130  1.00  0.00     0.094 C 
BRANCH  21  22
HETATM   22  S1  UNL     1     -17.920  -8.172   2.663  1.00  0.00    -0.161 SA
BRANCH  22  23
HETATM   23  C9  UNL     1     -17.300  -7.248   1.199  1.00  0.00     0.131 C 
BRANCH  23  24
HETATM   24  C10 UNL     1     -16.726  -8.315   0.281  1.00  0.00     0.027 A 
HETATM   25  C11 UNL     1     -17.530  -9.161  -0.422  1.00  0.00     0.079 A 
HETATM   26  S2  UNL     1     -16.390 -10.127  -1.250  1.00  0.00    -0.064 SA
HETATM   27  C12 UNL     1     -14.970  -9.404  -0.658  1.00  0.00     0.142 A 
HETATM   28  N10 UNL     1     -15.422  -8.453   0.151  1.00  0.00    -0.339 N 
ATOM     29  H10 UNL     1     -14.778  -7.846   0.657  1.00  0.00     0.168 HD
BRANCH  27  30
HETATM   30  N9  UNL     1     -13.744  -9.746  -0.966  1.00  0.00    -0.380 N 
ATOM     31  H92 UNL     1     -13.364 -10.152  -1.821  1.00  0.00     0.158 HD
ATOM     32  H91 UNL     1     -12.927  -9.658  -0.362  1.00  0.00     0.158 HD
ENDBRANCH  27  30
ENDBRANCH  23  24
ENDBRANCH  22  23
ENDBRANCH  21  22
ENDBRANCH  20  21
ENDBRANCH   7  20
TORSDOF 8
ENDMDL
MODEL 5
REMARK VINA RESULT: -5.458863972      2.152      3.954
REMARK  8 active torsions:
REMARK  status: ('A' for Active; 'I' for Inactive)
REMARK    1  A    between atoms: C2_2  and  N1_4 
REMARK    2  A    between atoms: C4_11  and  N5_12 
REMARK       I    between atoms: N5_12  and  C5_13 
REMARK       I    between atoms: C5_13  and  N8_18 
REMARK    3  A    between atoms: N8_18  and  C7_20 
REMARK    4  A    between atoms: C7_20  and  C8_21 
REMARK    5  A    between atoms: C8_21  and  S1_22 
REMARK    6  A    between atoms: S1_22  and  C9_23 
REMARK    7  A    between atoms: C9_23  and  C10_24 
REMARK    8  A    between atoms: C12_27  and  N9_28 
ROOT
HETATM    1  N5  UNL     1     -15.037 -10.572   5.681  1.00  0.00    -0.332 NA
HETATM    2  C5  UNL     1     -16.092  -9.828   5.458  1.00  0.00     0.267 C 
HETATM    3  N6  UNL     1     -16.844  -9.241   6.352  1.00  0.00    -0.253 N 
ATOM      4  H6  UNL     1     -16.629  -9.340   7.344  1.00  0.00     0.182 HD
HETATM    5  C6  UNL     1     -17.935  -8.486   5.952  1.00  0.00     0.185 C 
HETATM    6  N7  UNL     1     -18.849  -7.845   5.639  1.00  0.00    -0.172 NA
HETATM    7  N8  UNL     1     -16.494  -9.621   4.062  1.00  0.00    -0.349 N 
ATOM      8  H8  UNL     1     -16.254  -8.759   3.573  1.00  0.00     0.163 HD
ENDROOT
BRANCH   1   9
HETATM    9  C4  UNL     1     -14.154 -11.299   6.020  1.00  0.00     0.297 A 
HETATM   10  N1  UNL     1     -13.810 -12.544   5.572  1.00  0.00    -0.229 N 
HETATM   11  N2  UNL     1     -12.744 -12.968   6.202  1.00  0.00    -0.222 N 
HETATM   12  N3  UNL     1     -12.396 -12.028   7.044  1.00  0.00    -0.224 N 
ATOM     13  H2  UNL     1     -12.273 -13.862   6.063  1.00  0.00     0.210 HD
HETATM   14  N4  UNL     1     -13.181 -11.013   6.996  1.00  0.00    -0.242 N 
ATOM     15  H3  UNL     1     -11.592 -12.095   7.668  1.00  0.00     0.210 HD
ATOM     16  H4  UNL     1     -13.112 -10.163   7.556  1.00  0.00     0.192 HD
BRANCH  10  17
HETATM   17  C2  UNL     1     -14.527 -13.303   4.556  1.00  0.00     0.106 C 
HETATM   18  C1  UNL     1     -13.583 -13.945   3.588  1.00  0.00     0.034 C 
HETATM   19  C3  UNL     1     -15.452 -14.316   5.211  1.00  0.00     0.034 C 
ENDBRANCH  10  17
ENDBRANCH   1   9
BRANCH   7  20
HETATM   20  C7  UNL     1     -17.233 -10.662   3.396  1.00  0.00     0.134 C 
BRANCH  20  21
HETATM   21  C8  UNL     1     -17.042 -10.512   1.915  1.00  0.00     0.094 C 
BRANCH  21  22
HETATM   22  S1  UNL     1     -15.532 -11.307   1.378  1.00  0.00    -0.161 SA
BRANCH  22  23
HETATM   23  C9  UNL     1     -14.463 -10.038   0.586  1.00  0.00     0.131 C 
BRANCH  23  24
HETATM   24  C10 UNL     1     -13.948  -9.191   1.738  1.00  0.00     0.027 A 
HETATM   25  C11 UNL     1     -13.124  -9.706   2.692  1.00  0.00     0.079 A 
HETATM   26  S2  UNL     1     -12.876  -8.359   3.713  1.00  0.00    -0.064 SA
HETATM   27  C12 UNL     1     -13.828  -7.228   2.873  1.00  0.00     0.142 A 
HETATM   28  N10 UNL     1     -14.299  -7.925   1.845  1.00  0.00    -0.339 N 
ATOM     29  H10 UNL     1     -14.915  -7.493   1.158  1.00  0.00     0.168 HD
BRANCH  27  30
HETATM   30  N9  UNL     1     -14.014  -5.976   3.207  1.00  0.00    -0.380 N 
ATOM     31  H92 UNL     1     -13.554  -5.127   2.878  1.00  0.00     0.158 HD
ATOM     32  H91 UNL     1     -14.686  -5.631   3.893  1.00  0.00     0.158 HD
ENDBRANCH  27  30
ENDBRANCH  23  24
ENDBRANCH  22  23
ENDBRANCH  21  22
ENDBRANCH  20  21
ENDBRANCH   7  20
TORSDOF 8
ENDMDL
