MODEL 1
REMARK VINA RESULT: -6.433441075      0.000      0.000
REMARK  9 active torsions:
REMARK  status: ('A' for Active; 'I' for Inactive)
REMARK    1  A    between atoms: N1_1  and  C1_4 
REMARK    2  A    between atoms: N6_16  and  C5_17 
REMARK    3  A    between atoms: C5_17  and  C6_18 
REMARK    4  A    between atoms: C6_18  and  N7_19 
REMARK    5  A    between atoms: N7_19  and  C7_21 
REMARK    6  A    between atoms: C9_23  and  N8_24 
REMARK    7  A    between atoms: N8_24  and  C10_26 
REMARK    8  A    between atoms: C14_32  and  N10_33 
REMARK    9  A    between atoms: N10_33  and  C15_35 
ROOT
HETATM    1  N7  UNL     1     -13.014  -9.527   4.785  1.00  0.00    -0.374 N 
ATOM      2  H7  UNL     1     -13.109  -9.233   5.758  1.00  0.00     0.161 HD
ENDROOT
BRANCH   1   3
HETATM    3  C6  UNL     1     -12.088 -10.598   4.501  1.00  0.00     0.143 C 
BRANCH   3   4
HETATM    4  C5  UNL     1     -12.038 -11.610   5.622  1.00  0.00     0.172 C 
BRANCH   4   5
HETATM    5  N6  UNL     1     -13.289 -12.303   5.740  1.00  0.00    -0.258 N 
HETATM    6  C3  UNL     1     -13.756 -13.318   4.963  1.00  0.00     0.157 A 
HETATM    7  N3  UNL     1     -13.221 -13.948   3.910  1.00  0.00    -0.335 N 
HETATM    8  C4  UNL     1     -15.001 -13.690   5.425  1.00  0.00     0.139 A 
HETATM    9  C2  UNL     1     -13.889 -14.936   3.302  1.00  0.00     0.183 A 
ATOM     10  H3  UNL     1     -12.300 -13.673   3.568  1.00  0.00     0.168 HD
HETATM   11  N2  UNL     1     -15.101 -15.288   3.762  1.00  0.00    -0.337 N 
HETATM   12  C1  UNL     1     -15.711 -14.711   4.812  1.00  0.00     0.132 A 
ATOM     13  H2  UNL     1     -15.592 -16.043   3.282  1.00  0.00     0.168 HD
HETATM   14  N4  UNL     1     -15.251 -12.899   6.457  1.00  0.00    -0.279 N 
HETATM   15  N5  UNL     1     -14.238 -12.087   6.633  1.00  0.00    -0.238 N 
ATOM     16  H4  UNL     1     -16.098 -12.919   7.025  1.00  0.00     0.189 HD
ATOM     17  H5  UNL     1     -14.189 -11.380   7.366  1.00  0.00     0.208 HD
BRANCH  12  18
HETATM   18  N1  UNL     1     -16.877 -15.067   5.233  1.00  0.00    -0.383 N 
ATOM     19  H12 UNL     1     -17.004 -15.903   5.804  1.00  0.00     0.157 HD
ATOM     20  H11 UNL     1     -17.728 -14.544   5.028  1.00  0.00     0.157 HD
ENDBRANCH  12  18
ENDBRANCH   4   5
ENDBRANCH   3   4
ENDBRANCH   1   3
BRANCH   1  21
HETATM   21  C7  UNL     1     -13.727  -8.916   3.908  1.00  0.00     0.120 A 
HETATM   22  C8  UNL     1     -13.548  -9.129   2.563  1.00  0.00     0.097 A 
HETATM   23  C9  UNL     1     -14.320  -8.468   1.616  1.00  0.00     0.120 A 
HETATM   24  N9  UNL     1     -15.239  -7.618   2.119  1.00  0.00    -0.177 N 
HETATM   25  C14 UNL     1     -15.408  -7.414   3.430  1.00  0.00     0.681 A 
ATOM     26  H9  UNL     1     -15.833  -7.105   1.467  1.00  0.00     0.185 HD
HETATM   27  N11 UNL     1     -14.660  -8.056   4.338  1.00  0.00    -0.177 N 
ATOM     28  H11 UNL     1     -14.797  -7.893   5.336  1.00  0.00     0.185 HD
BRANCH  23  29
HETATM   29  N8  UNL     1     -14.159  -8.668   0.223  1.00  0.00    -0.371 N 
ATOM     30  H8  UNL     1     -13.232  -8.550  -0.185  1.00  0.00     0.161 HD
BRANCH  29  31
HETATM   31  C10 UNL     1     -15.251  -9.030  -0.637  1.00  0.00     0.083 C 
HETATM   32  C11 UNL     1     -15.836 -10.415  -0.333  1.00  0.00     0.025 C 
HETATM   33  C12 UNL     1     -14.711 -10.969  -1.216  1.00  0.00     0.004 C 
HETATM   34  C13 UNL     1     -14.759  -9.619  -1.941  1.00  0.00     0.025 C 
ENDBRANCH  29  31
ENDBRANCH  23  29
BRANCH  25  35
HETATM   35  N10 UNL     1     -16.315  -6.578   3.869  1.00  0.00    -0.221 N 
ATOM     36  H10 UNL     1     -16.040  -5.618   4.075  1.00  0.00     0.178 HD
BRANCH  35  37
HETATM   37  C15 UNL     1     -17.676  -6.966   4.069  1.00  0.00     0.099 A 
HETATM   38  C16 UNL     1     -18.009  -7.811   5.241  1.00  0.00     0.028 A 
HETATM   39  C17 UNL     1     -18.503  -6.374   5.144  1.00  0.00     0.028 A 
ENDBRANCH  35  37
ENDBRANCH  25  35
ENDBRANCH   1  21
TORSDOF 9
ENDMDL
MODEL 2
REMARK VINA RESULT: -6.433081972      1.479      4.355
REMARK  9 active torsions:
REMARK  status: ('A' for Active; 'I' for Inactive)
REMARK    1  A    between atoms: N1_1  and  C1_4 
REMARK    2  A    between atoms: N6_16  and  C5_17 
REMARK    3  A    between atoms: C5_17  and  C6_18 
REMARK    4  A    between atoms: C6_18  and  N7_19 
REMARK    5  A    between atoms: N7_19  and  C7_21 
REMARK    6  A    between atoms: C9_23  and  N8_24 
REMARK    7  A    between atoms: N8_24  and  C10_26 
REMARK    8  A    between atoms: C14_32  and  N10_33 
REMARK    9  A    between atoms: N10_33  and  C15_35 
ROOT
HETATM    1  N7  UNL     1     -12.555  -9.362   4.224  1.00  0.00    -0.374 N 
ATOM      2  H7  UNL     1     -11.987  -8.739   4.798  1.00  0.00     0.161 HD
ENDROOT
BRANCH   1   3
HETATM    3  C6  UNL     1     -12.229 -10.768   4.243  1.00  0.00     0.143 C 
BRANCH   3   4
HETATM    4  C5  UNL     1     -12.107 -11.299   5.652  1.00  0.00     0.172 C 
BRANCH   4   5
HETATM    5  N6  UNL     1     -13.352 -11.172   6.355  1.00  0.00    -0.258 N 
HETATM    6  C3  UNL     1     -14.501 -11.872   6.146  1.00  0.00     0.157 A 
HETATM    7  N3  UNL     1     -14.805 -12.839   5.271  1.00  0.00    -0.335 N 
HETATM    8  C4  UNL     1     -15.453 -11.433   7.041  1.00  0.00     0.139 A 
HETATM    9  C2  UNL     1     -16.029 -13.381   5.262  1.00  0.00     0.183 A 
ATOM     10  H3  UNL     1     -14.101 -13.163   4.609  1.00  0.00     0.168 HD
HETATM   11  N2  UNL     1     -16.947 -12.944   6.139  1.00  0.00    -0.337 N 
HETATM   12  C1  UNL     1     -16.727 -11.980   7.050  1.00  0.00     0.132 A 
ATOM     13  H2  UNL     1     -17.873 -13.371   6.112  1.00  0.00     0.168 HD
HETATM   14  N4  UNL     1     -14.862 -10.491   7.760  1.00  0.00    -0.279 N 
HETATM   15  N5  UNL     1     -13.627 -10.346   7.347  1.00  0.00    -0.238 N 
ATOM     16  H4  UNL     1     -15.299  -9.962   8.515  1.00  0.00     0.189 HD
ATOM     17  H5  UNL     1     -12.963  -9.680   7.743  1.00  0.00     0.208 HD
BRANCH  12  18
HETATM   18  N1  UNL     1     -17.626 -11.577   7.882  1.00  0.00    -0.383 N 
ATOM     19  H12 UNL     1     -18.590 -11.910   7.827  1.00  0.00     0.157 HD
ATOM     20  H11 UNL     1     -17.435 -10.915   8.633  1.00  0.00     0.157 HD
ENDBRANCH  12  18
ENDBRANCH   4   5
ENDBRANCH   3   4
ENDBRANCH   1   3
BRANCH   1  21
HETATM   21  C7  UNL     1     -13.508  -8.835   3.541  1.00  0.00     0.120 A 
HETATM   22  C8  UNL     1     -14.519  -8.128   4.145  1.00  0.00     0.097 A 
HETATM   23  C9  UNL     1     -15.547  -7.558   3.405  1.00  0.00     0.120 A 
HETATM   24  N9  UNL     1     -15.470  -7.755   2.073  1.00  0.00    -0.177 N 
HETATM   25  C14 UNL     1     -14.483  -8.444   1.490  1.00  0.00     0.681 A 
ATOM     26  H9  UNL     1     -16.200  -7.358   1.482  1.00  0.00     0.185 HD
HETATM   27  N11 UNL     1     -13.494  -8.991   2.210  1.00  0.00    -0.177 N 
ATOM     28  H11 UNL     1     -12.746  -9.514   1.756  1.00  0.00     0.185 HD
BRANCH  23  29
HETATM   29  N8  UNL     1     -16.602  -6.824   4.001  1.00  0.00    -0.371 N 
ATOM     30  H8  UNL     1     -16.688  -5.831   3.789  1.00  0.00     0.161 HD
BRANCH  29  31
HETATM   31  C10 UNL     1     -17.555  -7.426   4.892  1.00  0.00     0.083 C 
HETATM   32  C11 UNL     1     -18.516  -8.397   4.195  1.00  0.00     0.025 C 
HETATM   33  C12 UNL     1     -19.347  -7.157   3.842  1.00  0.00     0.004 C 
HETATM   34  C13 UNL     1     -18.755  -6.530   5.110  1.00  0.00     0.025 C 
ENDBRANCH  29  31
ENDBRANCH  23  29
BRANCH  25  35
HETATM   35  N10 UNL     1     -14.452  -8.606   0.192  1.00  0.00    -0.221 N 
ATOM     36  H10 UNL     1     -14.673  -7.812  -0.409  1.00  0.00     0.178 HD
BRANCH  35  37
HETATM   37  C15 UNL     1     -14.120  -9.859  -0.412  1.00  0.00     0.099 A 
HETATM   38  C16 UNL     1     -15.098 -10.970  -0.325  1.00  0.00     0.028 A 
HETATM   39  C17 UNL     1     -14.771 -10.316  -1.661  1.00  0.00     0.028 A 
ENDBRANCH  35  37
ENDBRANCH  25  35
ENDBRANCH   1  21
TORSDOF 9
ENDMDL
MODEL 3
REMARK VINA RESULT: -6.403881805      1.418      1.977
REMARK  9 active torsions:
REMARK  status: ('A' for Active; 'I' for Inactive)
REMARK    1  A    between atoms: N1_1  and  C1_4 
REMARK    2  A    between atoms: N6_16  and  C5_17 
REMARK    3  A    between atoms: C5_17  and  C6_18 
REMARK    4  A    between atoms: C6_18  and  N7_19 
REMARK    5  A    between atoms: N7_19  and  C7_21 
REMARK    6  A    between atoms: C9_23  and  N8_24 
REMARK    7  A    between atoms: N8_24  and  C10_26 
REMARK    8  A    between atoms: C14_32  and  N10_33 
REMARK    9  A    between atoms: N10_33  and  C15_35 
ROOT
HETATM    1  N7  UNL     1     -12.349  -9.616   4.369  1.00  0.00    -0.374 N 
ATOM      2  H7  UNL     1     -11.719  -8.922   4.772  1.00  0.00     0.161 HD
ENDROOT
BRANCH   1   3
HETATM    3  C6  UNL     1     -11.979 -11.005   4.497  1.00  0.00     0.143 C 
BRANCH   3   4
HETATM    4  C5  UNL     1     -11.976 -11.455   5.940  1.00  0.00     0.172 C 
BRANCH   4   5
HETATM    5  N6  UNL     1     -13.270 -11.271   6.535  1.00  0.00    -0.258 N 
HETATM    6  C3  UNL     1     -14.417 -11.949   6.258  1.00  0.00     0.157 A 
HETATM    7  N3  UNL     1     -14.678 -12.939   5.396  1.00  0.00    -0.335 N 
HETATM    8  C4  UNL     1     -15.425 -11.452   7.057  1.00  0.00     0.139 A 
HETATM    9  C2  UNL     1     -15.913 -13.450   5.307  1.00  0.00     0.183 A 
ATOM     10  H3  UNL     1     -13.933 -13.306   4.804  1.00  0.00     0.168 HD
HETATM   11  N2  UNL     1     -16.885 -12.957   6.091  1.00  0.00    -0.337 N 
HETATM   12  C1  UNL     1     -16.711 -11.966   6.983  1.00  0.00     0.132 A 
ATOM     13  H2  UNL     1     -17.818 -13.361   6.004  1.00  0.00     0.168 HD
HETATM   14  N4  UNL     1     -14.866 -10.500   7.788  1.00  0.00    -0.279 N 
HETATM   15  N5  UNL     1     -13.599 -10.402   7.472  1.00  0.00    -0.238 N 
ATOM     16  H4  UNL     1     -15.347  -9.932   8.486  1.00  0.00     0.189 HD
ATOM     17  H5  UNL     1     -12.951  -9.739   7.896  1.00  0.00     0.208 HD
BRANCH  12  18
HETATM   18  N1  UNL     1     -17.662 -11.510   7.724  1.00  0.00    -0.383 N 
ATOM     19  H12 UNL     1     -18.505 -12.056   7.905  1.00  0.00     0.157 HD
ATOM     20  H11 UNL     1     -17.631 -10.592   8.169  1.00  0.00     0.157 HD
ENDBRANCH  12  18
ENDBRANCH   4   5
ENDBRANCH   3   4
ENDBRANCH   1   3
BRANCH   1  21
HETATM   21  C7  UNL     1     -13.412  -9.186   3.786  1.00  0.00     0.120 A 
HETATM   22  C8  UNL     1     -13.522  -9.169   2.417  1.00  0.00     0.097 A 
HETATM   23  C9  UNL     1     -14.671  -8.705   1.789  1.00  0.00     0.120 A 
HETATM   24  N9  UNL     1     -15.645  -8.280   2.619  1.00  0.00    -0.177 N 
HETATM   25  C14 UNL     1     -15.532  -8.299   3.952  1.00  0.00     0.681 A 
ATOM     26  H9  UNL     1     -16.511  -7.928   2.211  1.00  0.00     0.185 HD
HETATM   27  N11 UNL     1     -14.420  -8.749   4.551  1.00  0.00    -0.177 N 
ATOM     28  H11 UNL     1     -14.344  -8.759   5.568  1.00  0.00     0.185 HD
BRANCH  23  29
HETATM   29  N8  UNL     1     -14.814  -8.676   0.380  1.00  0.00    -0.371 N 
ATOM     30  H8  UNL     1     -15.371  -7.933  -0.041  1.00  0.00     0.161 HD
BRANCH  29  31
HETATM   31  C10 UNL     1     -14.203  -9.653  -0.478  1.00  0.00     0.083 C 
HETATM   32  C11 UNL     1     -14.650  -9.546  -1.942  1.00  0.00     0.025 C 
HETATM   33  C12 UNL     1     -15.859 -10.392  -1.526  1.00  0.00     0.004 C 
HETATM   34  C13 UNL     1     -14.947 -10.970  -0.438  1.00  0.00     0.025 C 
ENDBRANCH  29  31
ENDBRANCH  23  29
BRANCH  25  35
HETATM   35  N10 UNL     1     -16.507  -7.876   4.716  1.00  0.00    -0.221 N 
ATOM     36  H10 UNL     1     -16.641  -8.311   5.629  1.00  0.00     0.178 HD
BRANCH  35  37
HETATM   37  C15 UNL     1     -17.390  -6.827   4.314  1.00  0.00     0.099 A 
HETATM   38  C16 UNL     1     -18.770  -7.179   3.902  1.00  0.00     0.028 A 
HETATM   39  C17 UNL     1     -18.510  -6.382   5.173  1.00  0.00     0.028 A 
ENDBRANCH  35  37
ENDBRANCH  25  35
ENDBRANCH   1  21
TORSDOF 9
ENDMDL
MODEL 4
REMARK VINA RESULT: -6.388978497      2.694      7.422
REMARK  9 active torsions:
REMARK  status: ('A' for Active; 'I' for Inactive)
REMARK    1  A    between atoms: N1_1  and  C1_4 
REMARK    2  A    between atoms: N6_16  and  C5_17 
REMARK    3  A    between atoms: C5_17  and  C6_18 
REMARK    4  A    between atoms: C6_18  and  N7_19 
REMARK    5  A    between atoms: N7_19  and  C7_21 
REMARK    6  A    between atoms: C9_23  and  N8_24 
REMARK    7  A    between atoms: N8_24  and  C10_26 
REMARK    8  A    between atoms: C14_32  and  N10_33 
REMARK    9  A    between atoms: N10_33  and  C15_35 
ROOT
HETATM    1  N7  UNL     1     -13.974  -8.131   4.755  1.00  0.00    -0.374 N 
ATOM      2  H7  UNL     1     -13.899  -7.247   5.258  1.00  0.00     0.161 HD
ENDROOT
BRANCH   1   3
HETATM    3  C6  UNL     1     -14.028  -8.074   3.313  1.00  0.00     0.143 C 
BRANCH   3   4
HETATM    4  C5  UNL     1     -14.703  -6.813   2.825  1.00  0.00     0.172 C 
BRANCH   4   5
HETATM    5  N6  UNL     1     -16.069  -7.071   2.469  1.00  0.00    -0.258 N 
HETATM    6  C3  UNL     1     -17.173  -6.946   3.256  1.00  0.00     0.157 A 
HETATM    7  N3  UNL     1     -17.315  -6.565   4.531  1.00  0.00    -0.335 N 
HETATM    8  C4  UNL     1     -18.282  -7.296   2.516  1.00  0.00     0.139 A 
HETATM    9  C2  UNL     1     -18.531  -6.523   5.092  1.00  0.00     0.183 A 
ATOM     10  H3  UNL     1     -16.494  -6.307   5.078  1.00  0.00     0.168 HD
HETATM   11  N2  UNL     1     -19.603  -6.866   4.360  1.00  0.00    -0.337 N 
HETATM   12  C1  UNL     1     -19.551  -7.259   3.075  1.00  0.00     0.132 A 
ATOM     13  H2  UNL     1     -20.518  -6.827   4.809  1.00  0.00     0.168 HD
HETATM   14  N4  UNL     1     -17.826  -7.619   1.316  1.00  0.00    -0.279 N 
HETATM   15  N5  UNL     1     -16.524  -7.483   1.299  1.00  0.00    -0.238 N 
ATOM     16  H4  UNL     1     -18.398  -7.925   0.528  1.00  0.00     0.189 HD
ATOM     17  H5  UNL     1     -15.936  -7.672   0.487  1.00  0.00     0.208 HD
BRANCH  12  18
HETATM   18  N1  UNL     1     -20.596  -7.585   2.395  1.00  0.00    -0.383 N 
ATOM     19  H12 UNL     1     -21.523  -7.610   2.821  1.00  0.00     0.157 HD
ATOM     20  H11 UNL     1     -20.563  -7.832   1.405  1.00  0.00     0.157 HD
ENDBRANCH  12  18
ENDBRANCH   4   5
ENDBRANCH   3   4
ENDBRANCH   1   3
BRANCH   1  21
HETATM   21  C7  UNL     1     -14.015  -9.210   5.453  1.00  0.00     0.120 A 
HETATM   22  C8  UNL     1     -15.037  -9.455   6.337  1.00  0.00     0.097 A 
HETATM   23  C9  UNL     1     -15.079 -10.621   7.090  1.00  0.00     0.120 A 
HETATM   24  N9  UNL     1     -14.054 -11.472   6.884  1.00  0.00    -0.177 N 
HETATM   25  C14 UNL     1     -13.061 -11.229   6.021  1.00  0.00     0.681 A 
ATOM     26  H9  UNL     1     -14.035 -12.345   7.412  1.00  0.00     0.185 HD
HETATM   27  N11 UNL     1     -13.027 -10.101   5.298  1.00  0.00    -0.177 N 
ATOM     28  H11 UNL     1     -12.265  -9.925   4.643  1.00  0.00     0.185 HD
BRANCH  23  29
HETATM   29  N8  UNL     1     -16.120 -10.901   8.009  1.00  0.00    -0.371 N 
ATOM     30  H8  UNL     1     -16.286 -10.249   8.776  1.00  0.00     0.161 HD
BRANCH  29  31
HETATM   31  C10 UNL     1     -16.952 -12.067   7.903  1.00  0.00     0.083 C 
HETATM   32  C11 UNL     1     -17.581 -12.246   6.515  1.00  0.00     0.025 C 
HETATM   33  C12 UNL     1     -18.671 -11.282   7.001  1.00  0.00     0.004 C 
HETATM   34  C13 UNL     1     -18.353 -11.799   8.409  1.00  0.00     0.025 C 
ENDBRANCH  29  31
ENDBRANCH  23  29
BRANCH  25  35
HETATM   35  N10 UNL     1     -12.088 -12.088   5.856  1.00  0.00    -0.221 N 
ATOM     36  H10 UNL     1     -11.292 -12.060   6.495  1.00  0.00     0.178 HD
BRANCH  35  37
HETATM   37  C15 UNL     1     -12.102 -13.064   4.811  1.00  0.00     0.099 A 
HETATM   38  C16 UNL     1     -13.159 -14.102   4.825  1.00  0.00     0.028 A 
HETATM   39  C17 UNL     1     -13.119 -13.037   3.737  1.00  0.00     0.028 A 
ENDBRANCH  35  37
ENDBRANCH  25  35
ENDBRANCH   1  21
TORSDOF 9
ENDMDL
MODEL 5
REMARK VINA RESULT: -6.265350155      2.595      3.921
REMARK  9 active torsions:
REMARK  status: ('A' for Active; 'I' for Inactive)
REMARK    1  A    between atoms: N1_1  and  C1_4 
REMARK    2  A    between atoms: N6_16  and  C5_17 
REMARK    3  A    between atoms: C5_17  and  C6_18 
REMARK    4  A    between atoms: C6_18  and  N7_19 
REMARK    5  A    between atoms: N7_19  and  C7_21 
REMARK    6  A    between atoms: C9_23  and  N8_24 
REMARK    7  A    between atoms: N8_24  and  C10_26 
REMARK    8  A    between atoms: C14_32  and  N10_33 
REMARK    9  A    between atoms: N10_33  and  C15_35 
ROOT
HETATM    1  N7  UNL     1     -14.626  -5.960   3.369  1.00  0.00    -0.374 N 
ATOM      2  H7  UNL     1     -14.402  -4.975   3.233  1.00  0.00     0.161 HD
ENDROOT
BRANCH   1   3
HETATM    3  C6  UNL     1     -13.567  -6.827   3.829  1.00  0.00     0.143 C 
BRANCH   3   4
HETATM    4  C5  UNL     1     -13.525  -8.123   3.054  1.00  0.00     0.172 C 
BRANCH   4   5
HETATM    5  N6  UNL     1     -12.982  -9.181   3.858  1.00  0.00    -0.258 N 
HETATM    6  C3  UNL     1     -13.590  -9.850   4.875  1.00  0.00     0.157 A 
HETATM    7  N3  UNL     1     -14.812  -9.735   5.408  1.00  0.00    -0.335 N 
HETATM    8  C4  UNL     1     -12.710 -10.786   5.374  1.00  0.00     0.139 A 
HETATM    9  C2  UNL     1     -15.184 -10.525   6.423  1.00  0.00     0.183 A 
ATOM     10  H3  UNL     1     -15.463  -9.042   5.038  1.00  0.00     0.168 HD
HETATM   11  N2  UNL     1     -14.317 -11.432   6.900  1.00  0.00    -0.337 N 
HETATM   12  C1  UNL     1     -13.073 -11.616   6.425  1.00  0.00     0.132 A 
ATOM     13  H2  UNL     1     -14.623 -12.021   7.675  1.00  0.00     0.168 HD
HETATM   14  N4  UNL     1     -11.606 -10.661   4.654  1.00  0.00    -0.279 N 
HETATM   15  N5  UNL     1     -11.777  -9.714   3.766  1.00  0.00    -0.238 N 
ATOM     16  H4  UNL     1     -10.757 -11.214   4.772  1.00  0.00     0.189 HD
ATOM     17  H5  UNL     1     -11.070  -9.425   3.089  1.00  0.00     0.208 HD
BRANCH  12  18
HETATM   18  N1  UNL     1     -12.259 -12.494   6.901  1.00  0.00    -0.383 N 
ATOM     19  H12 UNL     1     -12.359 -13.487   6.685  1.00  0.00     0.157 HD
ATOM     20  H11 UNL     1     -11.477 -12.257   7.512  1.00  0.00     0.157 HD
ENDBRANCH  12  18
ENDBRANCH   4   5
ENDBRANCH   3   4
ENDBRANCH   1   3
BRANCH   1  21
HETATM   21  C7  UNL     1     -15.830  -6.336   3.117  1.00  0.00     0.120 A 
HETATM   22  C8  UNL     1     -16.342  -6.299   1.842  1.00  0.00     0.097 A 
HETATM   23  C9  UNL     1     -17.642  -6.705   1.572  1.00  0.00     0.120 A 
HETATM   24  N9  UNL     1     -18.343  -7.129   2.643  1.00  0.00    -0.177 N 
HETATM   25  C14 UNL     1     -17.840  -7.163   3.883  1.00  0.00     0.681 A 
ATOM     26  H9  UNL     1     -19.305  -7.439   2.502  1.00  0.00     0.185 HD
HETATM   27  N11 UNL     1     -16.584  -6.769   4.136  1.00  0.00    -0.177 N 
ATOM     28  H11 UNL     1     -16.209  -6.800   5.084  1.00  0.00     0.185 HD
BRANCH  23  29
HETATM   29  N8  UNL     1     -18.196  -6.678   0.269  1.00  0.00    -0.371 N 
ATOM     30  H8  UNL     1     -18.256  -5.785  -0.220  1.00  0.00     0.161 HD
BRANCH  29  31
HETATM   31  C10 UNL     1     -18.676  -7.860  -0.391  1.00  0.00     0.083 C 
HETATM   32  C11 UNL     1     -17.674  -9.021  -0.373  1.00  0.00     0.025 C 
HETATM   33  C12 UNL     1     -17.046  -8.360  -1.607  1.00  0.00     0.004 C 
HETATM   34  C13 UNL     1     -18.444  -7.796  -1.885  1.00  0.00     0.025 C 
ENDBRANCH  29  31
ENDBRANCH  23  29
BRANCH  25  35
HETATM   35  N10 UNL     1     -18.561  -7.584   4.890  1.00  0.00    -0.221 N 
ATOM     36  H10 UNL     1     -19.225  -6.941   5.323  1.00  0.00     0.178 HD
BRANCH  35  37
HETATM   37  C15 UNL     1     -18.451  -8.913   5.403  1.00  0.00     0.099 A 
HETATM   38  C16 UNL     1     -19.635  -9.802   5.332  1.00  0.00     0.028 A 
HETATM   39  C17 UNL     1     -18.388 -10.090   4.507  1.00  0.00     0.028 A 
ENDBRANCH  35  37
ENDBRANCH  25  35
ENDBRANCH   1  21
TORSDOF 9
ENDMDL
