MODEL 1
REMARK VINA RESULT: -7.413290095      0.000      0.000
REMARK  12 active torsions:
REMARK  status: ('A' for Active; 'I' for Inactive)
REMARK    1  A    between atoms: C5_5  and  C6_6 
REMARK    2  A    between atoms: C6_6  and  N1_7 
REMARK       I    between atoms: N1_7  and  C7_9 
REMARK       I    between atoms: N4_16  and  C10_17 
REMARK    3  A    between atoms: C10_17  and  C11_19 
REMARK    4  A    between atoms: C11_19  and  N5_20 
REMARK       I    between atoms: N5_20  and  C12_21 
REMARK    5  A    between atoms: C12_21  and  C13_23 
REMARK    6  A    between atoms: C13_23  and  C14_24 
REMARK    7  A    between atoms: C14_24  and  C15_25 
REMARK    8  A    between atoms: C15_25  and  C16_26 
REMARK    9  A    between atoms: C16_26  and  C17_27 
REMARK   10  A    between atoms: C17_27  and  C18_28 
REMARK   11  A    between atoms: C18_28  and  C19_29 
REMARK   12  A    between atoms: C19_29  and  C20_30 
REMARK       I    between atoms: N8_36  and  C22_38 
ROOT
HETATM    1  C1  UNL     1      18.043  16.229  33.821  1.00  0.00     0.014 C 
HETATM    2  C2  UNL     1      18.045  16.485  32.639  1.00  0.00    -0.092 C 
HETATM    3  C3  UNL     1      18.075  16.785  31.206  1.00  0.00     0.166 C 
HETATM    4  C4  UNL     1      16.894  16.088  30.560  1.00  0.00     0.044 C 
HETATM    5  C5  UNL     1      16.840  16.398  29.088  1.00  0.00     0.008 C 
HETATM    6  C8  UNL     1      16.705  17.863  28.830  1.00  0.00     0.026 C 
HETATM    7  C9  UNL     1      16.877  18.666  30.110  1.00  0.00     0.128 C 
HETATM    8  N4  UNL     1      17.928  18.215  30.963  1.00  0.00    -0.331 N 
HETATM    9  C10 UNL     1      18.851  19.051  31.619  1.00  0.00     0.273 C 
HETATM   10  O1  UNL     1      19.745  18.554  32.376  1.00  0.00    -0.266 OA
ENDROOT
BRANCH   5  11
HETATM   11  C6  UNL     1      15.782  15.596  28.417  1.00  0.00     0.127 C 
BRANCH  11  12
HETATM   12  N1  UNL     1      14.428  15.938  28.641  1.00  0.00    -0.364 N 
HETATM   13  C7  UNL     1      13.306  15.659  27.831  1.00  0.00     0.181 C 
HETATM   14  N2  UNL     1      13.388  15.876  26.544  1.00  0.00    -0.374 N 
HETATM   15  N3  UNL     1      12.085  15.156  28.357  1.00  0.00    -0.064 NA
ATOM     16  H22 UNL     1      14.263  16.237  26.166  1.00  0.00     0.158 HD
ATOM     17  H21 UNL     1      12.577  15.674  25.958  1.00  0.00     0.158 HD
ATOM     18  H1  UNL     1      14.237  16.454  29.500  1.00  0.00     0.162 HD
ENDBRANCH  11  12
ENDBRANCH   5  11
BRANCH   9  19
HETATM   19  C11 UNL     1      18.909  20.521  31.525  1.00  0.00     0.260 C 
BRANCH  19  20
HETATM   20  N5  UNL     1      19.701  21.173  30.891  1.00  0.00    -0.378 NA
HETATM   21  C12 UNL     1      20.359  21.903  30.025  1.00  0.00     0.291 C 
HETATM   22  O2  UNL     1      21.605  22.161  30.188  1.00  0.00    -0.257 OA
BRANCH  21  23
HETATM   23  C13 UNL     1      19.728  22.483  28.799  1.00  0.00     0.119 C 
BRANCH  23  24
HETATM   24  C14 UNL     1      19.758  21.605  27.599  1.00  0.00     0.010 C 
BRANCH  24  25
HETATM   25  C15 UNL     1      19.009  20.327  27.653  1.00  0.00     0.001 C 
BRANCH  25  26
HETATM   26  C16 UNL     1      19.851  19.166  27.141  1.00  0.00     0.000 C 
BRANCH  26  27
HETATM   27  C17 UNL     1      20.249  18.198  28.206  1.00  0.00     0.000 C 
BRANCH  27  28
HETATM   28  C18 UNL     1      21.725  18.054  28.307  1.00  0.00     0.006 C 
BRANCH  28  29
HETATM   29  C19 UNL     1      22.464  19.040  29.122  1.00  0.00     0.066 C 
BRANCH  29  30
HETATM   30  C20 UNL     1      22.640  18.702  30.552  1.00  0.00     0.069 A 
HETATM   31  N6  UNL     1      22.602  19.480  31.611  1.00  0.00    -0.296 N 
HETATM   32  N7  UNL     1      22.772  19.015  32.780  1.00  0.00    -0.279 N 
ATOM     33  H6  UNL     1      22.432  20.478  31.491  1.00  0.00     0.187 HD
HETATM   34  C21 UNL     1      22.994  17.696  32.918  1.00  0.00     0.167 A 
ATOM     35  H7  UNL     1      22.742  19.627  33.594  1.00  0.00     0.189 HD
HETATM   36  N8  UNL     1      23.182  17.028  34.027  1.00  0.00    -0.310 N 
HETATM   37  S1  UNL     1      22.948  17.166  31.294  1.00  0.00    -0.038 SA
HETATM   38  C22 UNL     1      23.175  17.645  35.301  1.00  0.00     0.187 C 
ATOM     39  H8  UNL     1      23.340  16.022  33.971  1.00  0.00     0.170 HD
HETATM   40  N9  UNL     1      24.228  18.013  35.917  1.00  0.00    -0.373 N 
HETATM   41  N10 UNL     1      21.931  17.892  35.983  1.00  0.00    -0.064 NA
ATOM     42  H92 UNL     1      25.109  17.838  35.433  1.00  0.00     0.158 HD
ATOM     43  H91 UNL     1      24.223  18.458  36.835  1.00  0.00     0.158 HD
ENDBRANCH  29  30
ENDBRANCH  28  29
ENDBRANCH  27  28
ENDBRANCH  26  27
ENDBRANCH  25  26
ENDBRANCH  24  25
ENDBRANCH  23  24
ENDBRANCH  21  23
ENDBRANCH  19  20
ENDBRANCH   9  19
TORSDOF 12
ENDMDL
MODEL 2
REMARK VINA RESULT: -7.321272959      3.634      8.632
REMARK  12 active torsions:
REMARK  status: ('A' for Active; 'I' for Inactive)
REMARK    1  A    between atoms: C5_5  and  C6_6 
REMARK    2  A    between atoms: C6_6  and  N1_7 
REMARK       I    between atoms: N1_7  and  C7_9 
REMARK       I    between atoms: N4_16  and  C10_17 
REMARK    3  A    between atoms: C10_17  and  C11_19 
REMARK    4  A    between atoms: C11_19  and  N5_20 
REMARK       I    between atoms: N5_20  and  C12_21 
REMARK    5  A    between atoms: C12_21  and  C13_23 
REMARK    6  A    between atoms: C13_23  and  C14_24 
REMARK    7  A    between atoms: C14_24  and  C15_25 
REMARK    8  A    between atoms: C15_25  and  C16_26 
REMARK    9  A    between atoms: C16_26  and  C17_27 
REMARK   10  A    between atoms: C17_27  and  C18_28 
REMARK   11  A    between atoms: C18_28  and  C19_29 
REMARK   12  A    between atoms: C19_29  and  C20_30 
REMARK       I    between atoms: N8_36  and  C22_38 
ROOT
HETATM    1  C1  UNL     1      19.377  22.479  25.962  1.00  0.00     0.014 C 
HETATM    2  C2  UNL     1      19.184  21.384  26.438  1.00  0.00    -0.092 C 
HETATM    3  C3  UNL     1      18.923  20.065  27.018  1.00  0.00     0.166 C 
HETATM    4  C4  UNL     1      19.356  19.020  26.009  1.00  0.00     0.044 C 
HETATM    5  C5  UNL     1      19.158  17.636  26.567  1.00  0.00     0.008 C 
HETATM    6  C8  UNL     1      19.945  17.420  27.818  1.00  0.00     0.026 C 
HETATM    7  C9  UNL     1      20.562  18.719  28.312  1.00  0.00     0.128 C 
HETATM    8  N4  UNL     1      19.706  19.857  28.230  1.00  0.00    -0.331 N 
HETATM    9  C10 UNL     1      19.558  20.830  29.235  1.00  0.00     0.273 C 
HETATM   10  O1  UNL     1      18.780  21.823  29.061  1.00  0.00    -0.266 OA
ENDROOT
BRANCH   5  11
HETATM   11  C6  UNL     1      19.431  16.604  25.531  1.00  0.00     0.127 C 
BRANCH  11  12
HETATM   12  N1  UNL     1      19.082  15.260  25.803  1.00  0.00    -0.364 N 
HETATM   13  C7  UNL     1      19.139  14.146  24.939  1.00  0.00     0.181 C 
HETATM   14  N2  UNL     1      18.666  14.264  23.725  1.00  0.00    -0.374 N 
HETATM   15  N3  UNL     1      19.684  12.894  25.334  1.00  0.00    -0.064 NA
ATOM     16  H22 UNL     1      18.275  15.162  23.441  1.00  0.00     0.158 HD
ATOM     17  H21 UNL     1      18.707  13.458  23.101  1.00  0.00     0.158 HD
ATOM     18  H1  UNL     1      18.746  15.072  26.747  1.00  0.00     0.162 HD
ENDBRANCH  11  12
ENDBRANCH   5  11
BRANCH   9  19
HETATM   19  C11 UNL     1      20.233  20.835  30.546  1.00  0.00     0.260 C 
BRANCH  19  20
HETATM   20  N5  UNL     1      20.050  20.065  31.456  1.00  0.00    -0.378 NA
HETATM   21  C12 UNL     1      19.705  19.092  32.261  1.00  0.00     0.291 C 
HETATM   22  O2  UNL     1      20.005  19.128  33.508  1.00  0.00    -0.257 OA
BRANCH  21  23
HETATM   23  C13 UNL     1      18.948  17.884  31.807  1.00  0.00     0.119 C 
BRANCH  23  24
HETATM   24  C14 UNL     1      17.526  18.129  31.448  1.00  0.00     0.010 C 
BRANCH  24  25
HETATM   25  C15 UNL     1      17.123  17.941  30.035  1.00  0.00     0.001 C 
BRANCH  25  26
HETATM   26  C16 UNL     1      16.864  16.473  29.721  1.00  0.00     0.000 C 
BRANCH  26  27
HETATM   27  C17 UNL     1      16.160  16.253  28.422  1.00  0.00     0.000 C 
BRANCH  27  28
HETATM   28  C18 UNL     1      15.434  17.469  27.968  1.00  0.00     0.006 C 
BRANCH  28  29
HETATM   29  C19 UNL     1      14.126  17.289  27.303  1.00  0.00     0.066 C 
BRANCH  29  30
HETATM   30  C20 UNL     1      14.161  16.693  25.949  1.00  0.00     0.069 A 
HETATM   31  N6  UNL     1      13.180  16.474  25.102  1.00  0.00    -0.296 N 
HETATM   32  N7  UNL     1      13.393  15.950  23.965  1.00  0.00    -0.279 N 
ATOM     33  H6  UNL     1      12.228  16.730  25.363  1.00  0.00     0.187 HD
HETATM   34  C21 UNL     1      14.654  15.619  23.639  1.00  0.00     0.167 A 
ATOM     35  H7  UNL     1      12.624  15.783  23.316  1.00  0.00     0.189 HD
HETATM   36  N8  UNL     1      15.078  15.083  22.523  1.00  0.00    -0.310 N 
HETATM   37  S1  UNL     1      15.509  16.095  25.040  1.00  0.00    -0.038 SA
HETATM   38  C22 UNL     1      14.210  14.764  21.451  1.00  0.00     0.187 C 
ATOM     39  H8  UNL     1      16.074  14.888  22.422  1.00  0.00     0.170 HD
HETATM   40  N9  UNL     1      13.723  13.603  21.255  1.00  0.00    -0.373 N 
HETATM   41  N10 UNL     1      13.827  15.773  20.500  1.00  0.00    -0.064 NA
ATOM     42  H92 UNL     1      13.995  12.887  21.930  1.00  0.00     0.158 HD
ATOM     43  H91 UNL     1      13.098  13.373  20.483  1.00  0.00     0.158 HD
ENDBRANCH  29  30
ENDBRANCH  28  29
ENDBRANCH  27  28
ENDBRANCH  26  27
ENDBRANCH  25  26
ENDBRANCH  24  25
ENDBRANCH  23  24
ENDBRANCH  21  23
ENDBRANCH  19  20
ENDBRANCH   9  19
TORSDOF 12
ENDMDL
MODEL 3
REMARK VINA RESULT: -7.314037300      2.767      4.511
REMARK  12 active torsions:
REMARK  status: ('A' for Active; 'I' for Inactive)
REMARK    1  A    between atoms: C5_5  and  C6_6 
REMARK    2  A    between atoms: C6_6  and  N1_7 
REMARK       I    between atoms: N1_7  and  C7_9 
REMARK       I    between atoms: N4_16  and  C10_17 
REMARK    3  A    between atoms: C10_17  and  C11_19 
REMARK    4  A    between atoms: C11_19  and  N5_20 
REMARK       I    between atoms: N5_20  and  C12_21 
REMARK    5  A    between atoms: C12_21  and  C13_23 
REMARK    6  A    between atoms: C13_23  and  C14_24 
REMARK    7  A    between atoms: C14_24  and  C15_25 
REMARK    8  A    between atoms: C15_25  and  C16_26 
REMARK    9  A    between atoms: C16_26  and  C17_27 
REMARK   10  A    between atoms: C17_27  and  C18_28 
REMARK   11  A    between atoms: C18_28  and  C19_29 
REMARK   12  A    between atoms: C19_29  and  C20_30 
REMARK       I    between atoms: N8_36  and  C22_38 
ROOT
HETATM    1  C1  UNL     1      18.850  16.289  33.817  1.00  0.00     0.014 C 
HETATM    2  C2  UNL     1      18.717  16.597  32.654  1.00  0.00    -0.092 C 
HETATM    3  C3  UNL     1      18.585  16.963  31.243  1.00  0.00     0.166 C 
HETATM    4  C4  UNL     1      17.460  16.136  30.652  1.00  0.00     0.044 C 
HETATM    5  C5  UNL     1      17.240  16.502  29.208  1.00  0.00     0.008 C 
HETATM    6  C8  UNL     1      16.884  17.944  29.046  1.00  0.00     0.026 C 
HETATM    7  C9  UNL     1      17.052  18.704  30.352  1.00  0.00     0.128 C 
HETATM    8  N4  UNL     1      18.224  18.367  31.094  1.00  0.00    -0.331 N 
HETATM    9  C10 UNL     1      19.075  19.294  31.723  1.00  0.00     0.273 C 
HETATM   10  O1  UNL     1      20.090  18.894  32.379  1.00  0.00    -0.266 OA
ENDROOT
BRANCH   5  11
HETATM   11  C6  UNL     1      16.248  15.591  28.577  1.00  0.00     0.127 C 
BRANCH  11  12
HETATM   12  N1  UNL     1      14.905  16.020  28.469  1.00  0.00    -0.364 N 
HETATM   13  C7  UNL     1      13.868  15.472  27.683  1.00  0.00     0.181 C 
HETATM   14  N2  UNL     1      14.114  15.172  26.434  1.00  0.00    -0.374 N 
HETATM   15  N3  UNL     1      12.562  15.238  28.192  1.00  0.00    -0.064 NA
ATOM     16  H22 UNL     1      15.052  15.340  26.069  1.00  0.00     0.158 HD
ATOM     17  H21 UNL     1      13.365  14.776  25.867  1.00  0.00     0.158 HD
ATOM     18  H1  UNL     1      14.652  16.832  29.032  1.00  0.00     0.162 HD
ENDBRANCH  11  12
ENDBRANCH   5  11
BRANCH   9  19
HETATM   19  C11 UNL     1      18.924  20.761  31.709  1.00  0.00     0.260 C 
BRANCH  19  20
HETATM   20  N5  UNL     1      19.726  21.565  31.304  1.00  0.00    -0.378 NA
HETATM   21  C12 UNL     1      20.438  22.445  30.646  1.00  0.00     0.291 C 
HETATM   22  O2  UNL     1      21.560  22.865  31.105  1.00  0.00    -0.257 OA
BRANCH  21  23
HETATM   23  C13 UNL     1      20.014  23.021  29.331  1.00  0.00     0.119 C 
BRANCH  23  24
HETATM   24  C14 UNL     1      19.806  22.027  28.245  1.00  0.00     0.010 C 
BRANCH  24  25
HETATM   25  C15 UNL     1      19.398  22.529  26.912  1.00  0.00     0.001 C 
BRANCH  25  26
HETATM   26  C16 UNL     1      19.163  21.384  25.935  1.00  0.00     0.000 C 
BRANCH  26  27
HETATM   27  C17 UNL     1      19.402  20.033  26.526  1.00  0.00     0.000 C 
BRANCH  27  28
HETATM   28  C18 UNL     1      19.951  19.077  25.528  1.00  0.00     0.006 C 
BRANCH  28  29
HETATM   29  C19 UNL     1      20.951  18.090  25.989  1.00  0.00     0.066 C 
BRANCH  29  30
HETATM   30  C20 UNL     1      20.420  16.776  26.415  1.00  0.00     0.069 A 
HETATM   31  N6  UNL     1      19.595  15.962  25.794  1.00  0.00    -0.296 N 
HETATM   32  N7  UNL     1      19.244  14.857  26.311  1.00  0.00    -0.279 N 
ATOM     33  H6  UNL     1      19.231  16.223  24.878  1.00  0.00     0.187 HD
HETATM   34  C21 UNL     1      19.735  14.530  27.518  1.00  0.00     0.167 A 
ATOM     35  H7  UNL     1      18.603  14.233  25.821  1.00  0.00     0.189 HD
HETATM   36  N8  UNL     1      19.504  13.443  28.209  1.00  0.00    -0.310 N 
HETATM   37  S1  UNL     1      20.718  15.883  27.869  1.00  0.00    -0.038 SA
HETATM   38  C22 UNL     1      18.656  12.409  27.744  1.00  0.00     0.187 C 
ATOM     39  H8  UNL     1      19.954  13.336  29.118  1.00  0.00     0.170 HD
HETATM   40  N9  UNL     1      17.431  12.295  28.075  1.00  0.00    -0.373 N 
HETATM   41  N10 UNL     1      19.160  11.402  26.847  1.00  0.00    -0.064 NA
ATOM     42  H92 UNL     1      17.073  13.008  28.710  1.00  0.00     0.158 HD
ATOM     43  H91 UNL     1      16.820  11.550  27.740  1.00  0.00     0.158 HD
ENDBRANCH  29  30
ENDBRANCH  28  29
ENDBRANCH  27  28
ENDBRANCH  26  27
ENDBRANCH  25  26
ENDBRANCH  24  25
ENDBRANCH  23  24
ENDBRANCH  21  23
ENDBRANCH  19  20
ENDBRANCH   9  19
TORSDOF 12
ENDMDL
MODEL 4
REMARK VINA RESULT: -7.278208367      2.758      6.244
REMARK  12 active torsions:
REMARK  status: ('A' for Active; 'I' for Inactive)
REMARK    1  A    between atoms: C5_5  and  C6_6 
REMARK    2  A    between atoms: C6_6  and  N1_7 
REMARK       I    between atoms: N1_7  and  C7_9 
REMARK       I    between atoms: N4_16  and  C10_17 
REMARK    3  A    between atoms: C10_17  and  C11_19 
REMARK    4  A    between atoms: C11_19  and  N5_20 
REMARK       I    between atoms: N5_20  and  C12_21 
REMARK    5  A    between atoms: C12_21  and  C13_23 
REMARK    6  A    between atoms: C13_23  and  C14_24 
REMARK    7  A    between atoms: C14_24  and  C15_25 
REMARK    8  A    between atoms: C15_25  and  C16_26 
REMARK    9  A    between atoms: C16_26  and  C17_27 
REMARK   10  A    between atoms: C17_27  and  C18_28 
REMARK   11  A    between atoms: C18_28  and  C19_29 
REMARK   12  A    between atoms: C19_29  and  C20_30 
REMARK       I    between atoms: N8_36  and  C22_38 
ROOT
HETATM    1  C1  UNL     1      21.285  19.615  34.815  1.00  0.00     0.014 C 
HETATM    2  C2  UNL     1      20.801  19.269  33.762  1.00  0.00    -0.092 C 
HETATM    3  C3  UNL     1      20.242  18.839  32.479  1.00  0.00     0.166 C 
HETATM    4  C4  UNL     1      19.071  17.919  32.767  1.00  0.00     0.044 C 
HETATM    5  C5  UNL     1      18.420  17.479  31.483  1.00  0.00     0.008 C 
HETATM    6  C8  UNL     1      17.908  18.638  30.691  1.00  0.00     0.026 C 
HETATM    7  C9  UNL     1      18.373  19.959  31.283  1.00  0.00     0.128 C 
HETATM    8  N4  UNL     1      19.732  19.974  31.719  1.00  0.00    -0.331 N 
HETATM    9  C10 UNL     1      20.643  21.021  31.487  1.00  0.00     0.273 C 
HETATM   10  O1  UNL     1      21.833  20.949  31.933  1.00  0.00    -0.266 OA
ENDROOT
BRANCH   5  11
HETATM   11  C6  UNL     1      17.372  16.456  31.746  1.00  0.00     0.127 C 
BRANCH  11  12
HETATM   12  N1  UNL     1      16.782  16.403  33.030  1.00  0.00    -0.364 N 
HETATM   13  C7  UNL     1      16.654  15.294  33.893  1.00  0.00     0.181 C 
HETATM   14  N2  UNL     1      16.236  14.157  33.401  1.00  0.00    -0.374 N 
HETATM   15  N3  UNL     1      16.956  15.362  35.280  1.00  0.00    -0.064 NA
ATOM     16  H22 UNL     1      16.019  14.107  32.406  1.00  0.00     0.158 HD
ATOM     17  H21 UNL     1      16.144  13.355  34.025  1.00  0.00     0.158 HD
ATOM     18  H1  UNL     1      16.397  17.281  33.377  1.00  0.00     0.162 HD
ENDBRANCH  11  12
ENDBRANCH   5  11
BRANCH   9  19
HETATM   19  C11 UNL     1      20.367  22.262  30.741  1.00  0.00     0.260 C 
BRANCH  19  20
HETATM   20  N5  UNL     1      20.078  22.355  29.574  1.00  0.00    -0.378 NA
HETATM   21  C12 UNL     1      19.655  22.210  28.344  1.00  0.00     0.291 C 
HETATM   22  O2  UNL     1      19.938  23.077  27.441  1.00  0.00    -0.257 OA
BRANCH  21  23
HETATM   23  C13 UNL     1      18.826  21.048  27.895  1.00  0.00     0.119 C 
BRANCH  23  24
HETATM   24  C14 UNL     1      19.592  19.813  27.581  1.00  0.00     0.010 C 
BRANCH  24  25
HETATM   25  C15 UNL     1      19.608  19.343  26.176  1.00  0.00     0.001 C 
BRANCH  25  26
HETATM   26  C16 UNL     1      20.653  18.254  25.966  1.00  0.00     0.000 C 
BRANCH  26  27
HETATM   27  C17 UNL     1      20.069  16.891  25.786  1.00  0.00     0.000 C 
BRANCH  27  28
HETATM   28  C18 UNL     1      20.372  15.998  26.936  1.00  0.00     0.006 C 
BRANCH  28  29
HETATM   29  C19 UNL     1      19.557  16.143  28.160  1.00  0.00     0.066 C 
BRANCH  29  30
HETATM   30  C20 UNL     1      18.090  16.059  27.979  1.00  0.00     0.069 A 
HETATM   31  N6  UNL     1      17.172  16.991  28.113  1.00  0.00    -0.296 N 
HETATM   32  N7  UNL     1      15.944  16.741  27.913  1.00  0.00    -0.279 N 
ATOM     33  H6  UNL     1      17.453  17.933  28.383  1.00  0.00     0.187 HD
HETATM   34  C21 UNL     1      15.593  15.493  27.557  1.00  0.00     0.167 A 
ATOM     35  H7  UNL     1      15.240  17.471  28.020  1.00  0.00     0.189 HD
HETATM   36  N8  UNL     1      14.393  15.042  27.298  1.00  0.00    -0.310 N 
HETATM   37  S1  UNL     1      17.109  14.704  27.528  1.00  0.00    -0.038 SA
HETATM   38  C22 UNL     1      13.239  15.859  27.364  1.00  0.00     0.187 C 
ATOM     39  H8  UNL     1      14.285  14.061  27.039  1.00  0.00     0.170 HD
HETATM   40  N9  UNL     1      12.469  15.919  28.377  1.00  0.00    -0.373 N 
HETATM   41  N10 UNL     1      12.870  16.687  26.246  1.00  0.00    -0.064 NA
ATOM     42  H92 UNL     1      12.731  15.333  29.170  1.00  0.00     0.158 HD
ATOM     43  H91 UNL     1      11.638  16.508  28.424  1.00  0.00     0.158 HD
ENDBRANCH  29  30
ENDBRANCH  28  29
ENDBRANCH  27  28
ENDBRANCH  26  27
ENDBRANCH  25  26
ENDBRANCH  24  25
ENDBRANCH  23  24
ENDBRANCH  21  23
ENDBRANCH  19  20
ENDBRANCH   9  19
TORSDOF 12
ENDMDL
MODEL 5
REMARK VINA RESULT: -7.244883889      2.702      7.022
REMARK  12 active torsions:
REMARK  status: ('A' for Active; 'I' for Inactive)
REMARK    1  A    between atoms: C5_5  and  C6_6 
REMARK    2  A    between atoms: C6_6  and  N1_7 
REMARK       I    between atoms: N1_7  and  C7_9 
REMARK       I    between atoms: N4_16  and  C10_17 
REMARK    3  A    between atoms: C10_17  and  C11_19 
REMARK    4  A    between atoms: C11_19  and  N5_20 
REMARK       I    between atoms: N5_20  and  C12_21 
REMARK    5  A    between atoms: C12_21  and  C13_23 
REMARK    6  A    between atoms: C13_23  and  C14_24 
REMARK    7  A    between atoms: C14_24  and  C15_25 
REMARK    8  A    between atoms: C15_25  and  C16_26 
REMARK    9  A    between atoms: C16_26  and  C17_27 
REMARK   10  A    between atoms: C17_27  and  C18_28 
REMARK   11  A    between atoms: C18_28  and  C19_29 
REMARK   12  A    between atoms: C19_29  and  C20_30 
REMARK       I    between atoms: N8_36  and  C22_38 
ROOT
HETATM    1  C1  UNL     1      19.538  22.933  26.441  1.00  0.00     0.014 C 
HETATM    2  C2  UNL     1      19.318  21.916  27.059  1.00  0.00    -0.092 C 
HETATM    3  C3  UNL     1      19.026  20.696  27.814  1.00  0.00     0.166 C 
HETATM    4  C4  UNL     1      19.250  19.514  26.891  1.00  0.00     0.044 C 
HETATM    5  C5  UNL     1      19.012  18.221  27.625  1.00  0.00     0.008 C 
HETATM    6  C8  UNL     1      19.926  18.068  28.798  1.00  0.00     0.026 C 
HETATM    7  C9  UNL     1      20.699  19.350  29.065  1.00  0.00     0.128 C 
HETATM    8  N4  UNL     1      19.931  20.547  28.947  1.00  0.00    -0.331 N 
HETATM    9  C10 UNL     1      19.983  21.631  29.843  1.00  0.00     0.273 C 
HETATM   10  O1  UNL     1      19.271  22.667  29.642  1.00  0.00    -0.266 OA
ENDROOT
BRANCH   5  11
HETATM   11  C6  UNL     1      19.076  17.064  26.692  1.00  0.00     0.127 C 
BRANCH  11  12
HETATM   12  N1  UNL     1      18.268  17.084  25.531  1.00  0.00    -0.364 N 
HETATM   13  C7  UNL     1      17.508  16.034  24.973  1.00  0.00     0.181 C 
HETATM   14  N2  UNL     1      18.058  14.854  24.850  1.00  0.00    -0.374 N 
HETATM   15  N3  UNL     1      16.168  16.207  24.530  1.00  0.00    -0.064 NA
ATOM     16  H22 UNL     1      19.019  14.729  25.167  1.00  0.00     0.158 HD
ATOM     17  H21 UNL     1      17.508  14.095  24.446  1.00  0.00     0.158 HD
ATOM     18  H1  UNL     1      18.229  17.973  25.033  1.00  0.00     0.162 HD
ENDBRANCH  11  12
ENDBRANCH   5  11
BRANCH   9  19
HETATM   19  C11 UNL     1      20.811  21.713  31.060  1.00  0.00     0.260 C 
BRANCH  19  20
HETATM   20  N5  UNL     1      20.652  21.096  32.085  1.00  0.00    -0.378 NA
HETATM   21  C12 UNL     1      20.432  20.218  33.031  1.00  0.00     0.291 C 
HETATM   22  O2  UNL     1      20.392  20.571  34.264  1.00  0.00    -0.257 OA
BRANCH  21  23
HETATM   23  C13 UNL     1      20.212  18.763  32.761  1.00  0.00     0.119 C 
BRANCH  23  24
HETATM   24  C14 UNL     1      20.748  17.842  33.798  1.00  0.00     0.010 C 
BRANCH  24  25
HETATM   25  C15 UNL     1      19.910  16.688  34.203  1.00  0.00     0.001 C 
BRANCH  25  26
HETATM   26  C16 UNL     1      20.516  15.371  33.735  1.00  0.00     0.000 C 
BRANCH  26  27
HETATM   27  C17 UNL     1      19.529  14.454  33.088  1.00  0.00     0.000 C 
BRANCH  27  28
HETATM   28  C18 UNL     1      18.582  15.186  32.206  1.00  0.00     0.006 C 
BRANCH  28  29
HETATM   29  C19 UNL     1      18.771  15.077  30.744  1.00  0.00     0.066 C 
BRANCH  29  30
HETATM   30  C20 UNL     1      17.557  15.252  29.916  1.00  0.00     0.069 A 
HETATM   31  N6  UNL     1      16.537  16.065  30.081  1.00  0.00    -0.296 N 
HETATM   32  N7  UNL     1      15.569  16.086  29.260  1.00  0.00    -0.279 N 
ATOM     33  H6  UNL     1      16.523  16.692  30.886  1.00  0.00     0.187 HD
HETATM   34  C21 UNL     1      15.605  15.253  28.206  1.00  0.00     0.167 A 
ATOM     35  H7  UNL     1      14.782  16.720  29.398  1.00  0.00     0.189 HD
HETATM   36  N8  UNL     1      14.719  15.130  27.252  1.00  0.00    -0.310 N 
HETATM   37  S1  UNL     1      17.090  14.444  28.456  1.00  0.00    -0.038 SA
HETATM   38  C22 UNL     1      13.536  15.907  27.204  1.00  0.00     0.187 C 
ATOM     39  H8  UNL     1      14.887  14.448  26.513  1.00  0.00     0.170 HD
HETATM   40  N9  UNL     1      12.407  15.506  27.638  1.00  0.00    -0.373 N 
HETATM   41  N10 UNL     1      13.557  17.230  26.639  1.00  0.00    -0.064 NA
ATOM     42  H92 UNL     1      12.392  14.568  28.039  1.00  0.00     0.158 HD
ATOM     43  H91 UNL     1      11.555  16.066  27.604  1.00  0.00     0.158 HD
ENDBRANCH  29  30
ENDBRANCH  28  29
ENDBRANCH  27  28
ENDBRANCH  26  27
ENDBRANCH  25  26
ENDBRANCH  24  25
ENDBRANCH  23  24
ENDBRANCH  21  23
ENDBRANCH  19  20
ENDBRANCH   9  19
TORSDOF 12
ENDMDL
