MODEL 1
REMARK VINA RESULT: -6.750531916      0.000      0.000
REMARK  8 active torsions:
REMARK  status: ('A' for Active; 'I' for Inactive)
REMARK       I    between atoms: C3_3  and  N1_5 
REMARK    1  A    between atoms: C4_7  and  N2_8 
REMARK    2  A    between atoms: C4_7  and  C13_22 
REMARK    3  A    between atoms: N2_8  and  C5_10 
REMARK    4  A    between atoms: C8_13  and  S1_14 
REMARK    5  A    between atoms: S1_14  and  N3_17 
REMARK    6  A    between atoms: C16_25  and  C17_26 
REMARK       I    between atoms: C17_26  and  N4_28 
REMARK    7  A    between atoms: N4_28  and  C18_30 
REMARK    8  A    between atoms: C21_33  and  C22_34 
ROOT
HETATM    1  C1  UNL     1      76.549  70.606  12.783  1.00  0.00     0.022 C 
HETATM    2  C2  UNL     1      77.334  70.214  11.956  1.00  0.00    -0.016 C 
HETATM    3  C3  UNL     1      78.280  69.760  10.975  1.00  0.00     0.301 C 
HETATM    4  O1  UNL     1      78.584  70.512  10.008  1.00  0.00    -0.258 OA
HETATM    5  N1  UNL     1      78.883  68.491  11.061  1.00  0.00    -0.301 N 
ATOM      6  H1  UNL     1      79.884  68.435  10.869  1.00  0.00     0.171 HD
HETATM    7  C4  UNL     1      78.288  67.411  11.356  1.00  0.00     0.119 C 
ENDROOT
BRANCH   7   8
HETATM    8  N2  UNL     1      76.897  67.426  11.633  1.00  0.00    -0.342 N 
ATOM      9  H2  UNL     1      76.245  67.899  11.008  1.00  0.00     0.167 HD
BRANCH   8  10
HETATM   10  C5  UNL     1      76.435  66.766  12.802  1.00  0.00     0.033 A 
HETATM   11  C6  UNL     1      75.846  65.509  12.754  1.00  0.00     0.031 A 
HETATM   12  C7  UNL     1      75.404  64.885  13.904  1.00  0.00     0.027 A 
HETATM   13  C8  UNL     1      75.526  65.482  15.148  1.00  0.00     0.079 A 
HETATM   14  C11 UNL     1      76.110  66.728  15.187  1.00  0.00     0.027 A 
HETATM   15  C12 UNL     1      76.550  67.348  14.045  1.00  0.00     0.031 A 
BRANCH  13  16
HETATM   16  S1  UNL     1      74.943  64.626  16.528  1.00  0.00     0.260 S 
HETATM   17  O2  UNL     1      73.848  63.713  16.119  1.00  0.00    -0.200 OA
HETATM   18  O3  UNL     1      74.335  65.650  17.475  1.00  0.00    -0.200 OA
BRANCH  16  19
HETATM   19  N3  UNL     1      76.126  63.765  17.383  1.00  0.00    -0.315 N 
HETATM   20  C9  UNL     1      76.708  62.670  16.658  1.00  0.00     0.162 C 
HETATM   21  C10 UNL     1      75.819  63.487  18.740  1.00  0.00     0.162 C 
ENDBRANCH  16  19
ENDBRANCH  13  16
ENDBRANCH   8  10
ENDBRANCH   7   8
BRANCH   7  22
HETATM   22  C13 UNL     1      78.979  66.131  11.426  1.00  0.00     0.008 A 
HETATM   23  C14 UNL     1      79.810  65.802  12.480  1.00  0.00     0.016 A 
HETATM   24  C15 UNL     1      80.449  64.563  12.505  1.00  0.00     0.018 A 
HETATM   25  C16 UNL     1      80.255  63.666  11.480  1.00  0.00     0.032 A 
HETATM   26  C26 UNL     1      79.448  63.964  10.440  1.00  0.00     0.018 A 
HETATM   27  C27 UNL     1      78.814  65.204  10.425  1.00  0.00     0.016 A 
BRANCH  25  28
HETATM   28  C17 UNL     1      80.951  62.365  11.522  1.00  0.00     0.256 C 
HETATM   29  O4  UNL     1      80.623  61.509  10.646  1.00  0.00    -0.267 OA
HETATM   30  N4  UNL     1      81.914  62.145  12.498  1.00  0.00    -0.323 N 
ATOM     31  H4  UNL     1      82.101  62.911  13.144  1.00  0.00     0.169 HD
BRANCH  30  32
HETATM   32  C18 UNL     1      82.659  60.960  12.678  1.00  0.00     0.035 A 
HETATM   33  C19 UNL     1      82.147  59.753  13.053  1.00  0.00     0.030 A 
HETATM   34  C20 UNL     1      82.968  58.616  13.189  1.00  0.00     0.009 A 
HETATM   35  C21 UNL     1      84.320  58.660  12.956  1.00  0.00    -0.058 A 
HETATM   36  C24 UNL     1      84.838  59.879  12.579  1.00  0.00     0.009 A 
HETATM   37  C25 UNL     1      84.050  60.989  12.443  1.00  0.00     0.030 A 
BRANCH  35  38
HETATM   38  C22 UNL     1      85.176  57.463  13.101  1.00  0.00     0.034 C 
HETATM   39  C23 UNL     1      84.396  56.188  12.784  1.00  0.00     0.010 C 
ENDBRANCH  35  38
ENDBRANCH  30  32
ENDBRANCH  25  28
ENDBRANCH   7  22
TORSDOF 8
ENDMDL
MODEL 2
REMARK VINA RESULT: -6.677055619      0.575      1.251
REMARK  8 active torsions:
REMARK  status: ('A' for Active; 'I' for Inactive)
REMARK       I    between atoms: C3_3  and  N1_5 
REMARK    1  A    between atoms: C4_7  and  N2_8 
REMARK    2  A    between atoms: C4_7  and  C13_22 
REMARK    3  A    between atoms: N2_8  and  C5_10 
REMARK    4  A    between atoms: C8_13  and  S1_14 
REMARK    5  A    between atoms: S1_14  and  N3_17 
REMARK    6  A    between atoms: C16_25  and  C17_26 
REMARK       I    between atoms: C17_26  and  N4_28 
REMARK    7  A    between atoms: N4_28  and  C18_30 
REMARK    8  A    between atoms: C21_33  and  C22_34 
ROOT
HETATM    1  C1  UNL     1      75.938  70.290  13.151  1.00  0.00     0.022 C 
HETATM    2  C2  UNL     1      76.736  69.993  12.298  1.00  0.00    -0.016 C 
HETATM    3  C3  UNL     1      77.696  69.651  11.285  1.00  0.00     0.301 C 
HETATM    4  O1  UNL     1      77.915  70.456  10.338  1.00  0.00    -0.258 OA
HETATM    5  N1  UNL     1      78.406  68.437  11.318  1.00  0.00    -0.301 N 
ATOM      6  H1  UNL     1      79.403  68.472  11.107  1.00  0.00     0.171 HD
HETATM    7  C4  UNL     1      77.909  67.301  11.588  1.00  0.00     0.119 C 
ENDROOT
BRANCH   7   8
HETATM    8  N2  UNL     1      76.528  67.189  11.891  1.00  0.00    -0.342 N 
ATOM      9  H2  UNL     1      75.824  67.593  11.274  1.00  0.00     0.167 HD
BRANCH   8  10
HETATM   10  C5  UNL     1      76.151  66.501  13.074  1.00  0.00     0.033 A 
HETATM   11  C6  UNL     1      76.227  67.095  14.328  1.00  0.00     0.031 A 
HETATM   12  C7  UNL     1      75.854  66.407  15.465  1.00  0.00     0.027 A 
HETATM   13  C8  UNL     1      75.391  65.103  15.408  1.00  0.00     0.079 A 
HETATM   14  C11 UNL     1      75.320  64.521  14.162  1.00  0.00     0.027 A 
HETATM   15  C12 UNL     1      75.689  65.204  13.031  1.00  0.00     0.031 A 
BRANCH  13  16
HETATM   16  S1  UNL     1      74.951  64.324  16.883  1.00  0.00     0.260 S 
HETATM   17  O2  UNL     1      73.822  63.395  16.635  1.00  0.00    -0.200 OA
HETATM   18  O3  UNL     1      74.437  65.400  17.830  1.00  0.00    -0.200 OA
BRANCH  16  19
HETATM   19  N3  UNL     1      76.214  63.507  17.661  1.00  0.00    -0.315 N 
HETATM   20  C9  UNL     1      76.973  62.633  16.810  1.00  0.00     0.162 C 
HETATM   21  C10 UNL     1      75.903  62.974  18.938  1.00  0.00     0.162 C 
ENDBRANCH  16  19
ENDBRANCH  13  16
ENDBRANCH   8  10
ENDBRANCH   7   8
BRANCH   7  22
HETATM   22  C13 UNL     1      78.707  66.083  11.604  1.00  0.00     0.008 A 
HETATM   23  C14 UNL     1      78.557  65.095  10.649  1.00  0.00     0.016 A 
HETATM   24  C15 UNL     1      79.346  63.946  10.703  1.00  0.00     0.018 A 
HETATM   25  C16 UNL     1      80.273  63.793  11.708  1.00  0.00     0.032 A 
HETATM   26  C26 UNL     1      80.438  64.743  12.652  1.00  0.00     0.018 A 
HETATM   27  C27 UNL     1      79.646  65.887  12.587  1.00  0.00     0.016 A 
BRANCH  25  28
HETATM   28  C17 UNL     1      81.088  62.563  11.751  1.00  0.00     0.256 C 
HETATM   29  O4  UNL     1      80.938  61.740  10.798  1.00  0.00    -0.267 OA
HETATM   30  N4  UNL     1      81.964  62.369  12.811  1.00  0.00    -0.323 N 
ATOM     31  H4  UNL     1      82.007  63.105  13.516  1.00  0.00     0.169 HD
BRANCH  30  32
HETATM   32  C18 UNL     1      82.801  61.250  13.003  1.00  0.00     0.035 A 
HETATM   33  C19 UNL     1      82.380  59.960  13.138  1.00  0.00     0.030 A 
HETATM   34  C20 UNL     1      83.294  58.901  13.307  1.00  0.00     0.009 A 
HETATM   35  C21 UNL     1      84.651  59.108  13.348  1.00  0.00    -0.058 A 
HETATM   36  C24 UNL     1      85.077  60.409  13.213  1.00  0.00     0.009 A 
HETATM   37  C25 UNL     1      84.198  61.445  13.047  1.00  0.00     0.030 A 
BRANCH  35  38
HETATM   38  C22 UNL     1      85.604  57.991  13.526  1.00  0.00     0.034 C 
HETATM   39  C23 UNL     1      85.598  57.064  12.311  1.00  0.00     0.010 C 
ENDBRANCH  35  38
ENDBRANCH  30  32
ENDBRANCH  25  28
ENDBRANCH   7  22
TORSDOF 8
ENDMDL
MODEL 3
REMARK VINA RESULT: -6.534452201      0.868      1.181
REMARK  8 active torsions:
REMARK  status: ('A' for Active; 'I' for Inactive)
REMARK       I    between atoms: C3_3  and  N1_5 
REMARK    1  A    between atoms: C4_7  and  N2_8 
REMARK    2  A    between atoms: C4_7  and  C13_22 
REMARK    3  A    between atoms: N2_8  and  C5_10 
REMARK    4  A    between atoms: C8_13  and  S1_14 
REMARK    5  A    between atoms: S1_14  and  N3_17 
REMARK    6  A    between atoms: C16_25  and  C17_26 
REMARK       I    between atoms: C17_26  and  N4_28 
REMARK    7  A    between atoms: N4_28  and  C18_30 
REMARK    8  A    between atoms: C21_33  and  C22_34 
ROOT
HETATM    1  C1  UNL     1      76.942  70.691  12.092  1.00  0.00     0.022 C 
HETATM    2  C2  UNL     1      77.775  70.148  11.412  1.00  0.00    -0.016 C 
HETATM    3  C3  UNL     1      78.778  69.513  10.603  1.00  0.00     0.301 C 
HETATM    4  O1  UNL     1      79.166  70.071   9.539  1.00  0.00    -0.258 OA
HETATM    5  N1  UNL     1      79.347  68.277  10.963  1.00  0.00    -0.301 N 
ATOM      6  H1  UNL     1      80.356  68.178  10.860  1.00  0.00     0.171 HD
HETATM    7  C4  UNL     1      78.708  67.274  11.407  1.00  0.00     0.119 C 
ENDROOT
BRANCH   7   8
HETATM    8  N2  UNL     1      77.302  67.351  11.574  1.00  0.00    -0.342 N 
ATOM      9  H2  UNL     1      76.718  67.815  10.878  1.00  0.00     0.167 HD
BRANCH   8  10
HETATM   10  C5  UNL     1      76.727  66.767  12.732  1.00  0.00     0.033 A 
HETATM   11  C6  UNL     1      76.180  65.490  12.719  1.00  0.00     0.031 A 
HETATM   12  C7  UNL     1      75.626  64.940  13.858  1.00  0.00     0.027 A 
HETATM   13  C8  UNL     1      75.591  65.633  15.057  1.00  0.00     0.079 A 
HETATM   14  C11 UNL     1      76.134  66.899  15.062  1.00  0.00     0.027 A 
HETATM   15  C12 UNL     1      76.686  67.445  13.931  1.00  0.00     0.031 A 
BRANCH  13  16
HETATM   16  S1  UNL     1      74.877  64.865  16.426  1.00  0.00     0.260 S 
HETATM   17  O2  UNL     1      73.568  64.282  16.042  1.00  0.00    -0.200 OA
HETATM   18  O3  UNL     1      74.593  65.947  17.459  1.00  0.00    -0.200 OA
BRANCH  16  19
HETATM   19  N3  UNL     1      75.843  63.684  17.163  1.00  0.00    -0.315 N 
HETATM   20  C9  UNL     1      75.748  62.379  16.569  1.00  0.00     0.162 C 
HETATM   21  C10 UNL     1      75.846  63.694  18.582  1.00  0.00     0.162 C 
ENDBRANCH  16  19
ENDBRANCH  13  16
ENDBRANCH   8  10
ENDBRANCH   7   8
BRANCH   7  22
HETATM   22  C13 UNL     1      79.365  66.023  11.761  1.00  0.00     0.008 A 
HETATM   23  C14 UNL     1      79.315  64.911  10.942  1.00  0.00     0.016 A 
HETATM   24  C15 UNL     1      79.962  63.735  11.322  1.00  0.00     0.018 A 
HETATM   25  C16 UNL     1      80.649  63.680  12.513  1.00  0.00     0.032 A 
HETATM   26  C26 UNL     1      80.712  64.752  13.329  1.00  0.00     0.018 A 
HETATM   27  C27 UNL     1      80.063  65.922  12.939  1.00  0.00     0.016 A 
BRANCH  25  28
HETATM   28  C17 UNL     1      81.315  62.420  12.899  1.00  0.00     0.256 C 
HETATM   29  O4  UNL     1      81.083  61.983  14.066  1.00  0.00    -0.267 OA
HETATM   30  N4  UNL     1      82.147  61.787  11.985  1.00  0.00    -0.323 N 
ATOM     31  H4  UNL     1      82.251  62.229  11.072  1.00  0.00     0.169 HD
BRANCH  30  32
HETATM   32  C18 UNL     1      82.860  60.590  12.202  1.00  0.00     0.035 A 
HETATM   33  C19 UNL     1      82.400  59.334  11.933  1.00  0.00     0.030 A 
HETATM   34  C20 UNL     1      83.195  58.194  12.165  1.00  0.00     0.009 A 
HETATM   35  C21 UNL     1      84.468  58.283  12.673  1.00  0.00    -0.058 A 
HETATM   36  C24 UNL     1      84.933  59.549  12.946  1.00  0.00     0.009 A 
HETATM   37  C25 UNL     1      84.169  60.663  12.723  1.00  0.00     0.030 A 
BRANCH  35  38
HETATM   38  C22 UNL     1      85.296  57.081  12.914  1.00  0.00     0.034 C 
HETATM   39  C23 UNL     1      84.436  55.820  12.961  1.00  0.00     0.010 C 
ENDBRANCH  35  38
ENDBRANCH  30  32
ENDBRANCH  25  28
ENDBRANCH   7  22
TORSDOF 8
ENDMDL
MODEL 4
REMARK VINA RESULT: -6.481432120      3.665      4.714
REMARK  8 active torsions:
REMARK  status: ('A' for Active; 'I' for Inactive)
REMARK       I    between atoms: C3_3  and  N1_5 
REMARK    1  A    between atoms: C4_7  and  N2_8 
REMARK    2  A    between atoms: C4_7  and  C13_22 
REMARK    3  A    between atoms: N2_8  and  C5_10 
REMARK    4  A    between atoms: C8_13  and  S1_14 
REMARK    5  A    between atoms: S1_14  and  N3_17 
REMARK    6  A    between atoms: C16_25  and  C17_26 
REMARK       I    between atoms: C17_26  and  N4_28 
REMARK    7  A    between atoms: N4_28  and  C18_30 
REMARK    8  A    between atoms: C21_33  and  C22_34 
ROOT
HETATM    1  C1  UNL     1      74.708  63.723  10.452  1.00  0.00     0.022 C 
HETATM    2  C2  UNL     1      75.225  62.702  10.829  1.00  0.00    -0.016 C 
HETATM    3  C3  UNL     1      75.836  61.477  11.264  1.00  0.00     0.301 C 
HETATM    4  O1  UNL     1      75.128  60.441  11.401  1.00  0.00    -0.258 OA
HETATM    5  N1  UNL     1      77.213  61.396  11.543  1.00  0.00    -0.301 N 
ATOM      6  H1  UNL     1      77.713  60.576  11.198  1.00  0.00     0.171 HD
HETATM    7  C4  UNL     1      77.885  62.256  12.189  1.00  0.00     0.119 C 
ENDROOT
BRANCH   7   8
HETATM    8  N2  UNL     1      77.245  63.418  12.692  1.00  0.00    -0.342 N 
ATOM      9  H2  UNL     1      77.045  64.210  12.082  1.00  0.00     0.167 HD
BRANCH   8  10
HETATM   10  C5  UNL     1      76.890  63.450  14.066  1.00  0.00     0.033 A 
HETATM   11  C6  UNL     1      75.939  64.334  14.560  1.00  0.00     0.031 A 
HETATM   12  C7  UNL     1      75.608  64.347  15.901  1.00  0.00     0.027 A 
HETATM   13  C8  UNL     1      76.207  63.488  16.807  1.00  0.00     0.079 A 
HETATM   14  C11 UNL     1      77.150  62.616  16.310  1.00  0.00     0.027 A 
HETATM   15  C12 UNL     1      77.478  62.601  14.978  1.00  0.00     0.031 A 
BRANCH  13  16
HETATM   16  S1  UNL     1      75.730  63.580  18.462  1.00  0.00     0.260 S 
HETATM   17  O2  UNL     1      75.285  64.960  18.774  1.00  0.00    -0.200 OA
HETATM   18  O3  UNL     1      76.967  63.313  19.308  1.00  0.00    -0.200 OA
BRANCH  16  19
HETATM   19  N3  UNL     1      74.536  62.469  18.921  1.00  0.00    -0.315 N 
HETATM   20  C9  UNL     1      73.890  61.800  17.826  1.00  0.00     0.162 C 
HETATM   21  C10 UNL     1      73.665  62.899  19.956  1.00  0.00     0.162 C 
ENDBRANCH  16  19
ENDBRANCH  13  16
ENDBRANCH   8  10
ENDBRANCH   7   8
BRANCH   7  22
HETATM   22  C13 UNL     1      79.312  62.106  12.441  1.00  0.00     0.008 A 
HETATM   23  C14 UNL     1      80.191  63.168  12.344  1.00  0.00     0.016 A 
HETATM   24  C15 UNL     1      81.549  62.976  12.596  1.00  0.00     0.018 A 
HETATM   25  C16 UNL     1      82.017  61.729  12.941  1.00  0.00     0.032 A 
HETATM   26  C26 UNL     1      81.179  60.676  13.041  1.00  0.00     0.018 A 
HETATM   27  C27 UNL     1      79.824  60.879  12.788  1.00  0.00     0.016 A 
BRANCH  25  28
HETATM   28  C17 UNL     1      83.460  61.548  13.192  1.00  0.00     0.256 C 
HETATM   29  O4  UNL     1      83.984  62.281  14.084  1.00  0.00    -0.267 OA
HETATM   30  N4  UNL     1      84.161  60.601  12.456  1.00  0.00    -0.323 N 
ATOM     31  H4  UNL     1      83.631  60.064  11.771  1.00  0.00     0.169 HD
BRANCH  30  32
HETATM   32  C18 UNL     1      85.537  60.315  12.569  1.00  0.00     0.035 A 
HETATM   33  C19 UNL     1      86.084  59.362  13.376  1.00  0.00     0.030 A 
HETATM   34  C20 UNL     1      87.474  59.133  13.407  1.00  0.00     0.009 A 
HETATM   35  C21 UNL     1      88.350  59.853  12.633  1.00  0.00    -0.058 A 
HETATM   36  C24 UNL     1      87.800  60.816  11.819  1.00  0.00     0.009 A 
HETATM   37  C25 UNL     1      86.451  61.046  11.780  1.00  0.00     0.030 A 
BRANCH  35  38
HETATM   38  C22 UNL     1      89.808  59.607  12.671  1.00  0.00     0.034 C 
HETATM   39  C23 UNL     1      90.121  58.124  12.480  1.00  0.00     0.010 C 
ENDBRANCH  35  38
ENDBRANCH  30  32
ENDBRANCH  25  28
ENDBRANCH   7  22
TORSDOF 8
ENDMDL
MODEL 5
REMARK VINA RESULT: -6.445803271      1.044      1.307
REMARK  8 active torsions:
REMARK  status: ('A' for Active; 'I' for Inactive)
REMARK       I    between atoms: C3_3  and  N1_5 
REMARK    1  A    between atoms: C4_7  and  N2_8 
REMARK    2  A    between atoms: C4_7  and  C13_22 
REMARK    3  A    between atoms: N2_8  and  C5_10 
REMARK    4  A    between atoms: C8_13  and  S1_14 
REMARK    5  A    between atoms: S1_14  and  N3_17 
REMARK    6  A    between atoms: C16_25  and  C17_26 
REMARK       I    between atoms: C17_26  and  N4_28 
REMARK    7  A    between atoms: N4_28  and  C18_30 
REMARK    8  A    between atoms: C21_33  and  C22_34 
ROOT
HETATM    1  C1  UNL     1      76.330  70.254  12.179  1.00  0.00     0.022 C 
HETATM    2  C2  UNL     1      77.204  69.831  11.465  1.00  0.00    -0.016 C 
HETATM    3  C3  UNL     1      78.253  69.341  10.616  1.00  0.00     0.301 C 
HETATM    4  O1  UNL     1      78.565  69.983   9.575  1.00  0.00    -0.258 OA
HETATM    5  N1  UNL     1      78.952  68.155  10.912  1.00  0.00    -0.301 N 
ATOM      6  H1  UNL     1      79.965  68.167  10.793  1.00  0.00     0.171 HD
HETATM    7  C4  UNL     1      78.428  67.073  11.316  1.00  0.00     0.119 C 
ENDROOT
BRANCH   7   8
HETATM    8  N2  UNL     1      77.024  66.996  11.502  1.00  0.00    -0.342 N 
ATOM      9  H2  UNL     1      76.383  67.345  10.790  1.00  0.00     0.167 HD
BRANCH   8  10
HETATM   10  C5  UNL     1      76.533  66.423  12.704  1.00  0.00     0.033 A 
HETATM   11  C6  UNL     1      76.584  67.098  13.917  1.00  0.00     0.031 A 
HETATM   12  C7  UNL     1      76.100  66.521  15.074  1.00  0.00     0.027 A 
HETATM   13  C8  UNL     1      75.547  65.251  15.078  1.00  0.00     0.079 A 
HETATM   14  C11 UNL     1      75.502  64.588  13.872  1.00  0.00     0.027 A 
HETATM   15  C12 UNL     1      75.981  65.161  12.721  1.00  0.00     0.031 A 
BRANCH  13  16
HETATM   16  S1  UNL     1      74.971  64.613  16.573  1.00  0.00     0.260 S 
HETATM   17  O2  UNL     1      73.809  63.727  16.320  1.00  0.00    -0.200 OA
HETATM   18  O3  UNL     1      74.462  65.784  17.403  1.00  0.00    -0.200 OA
BRANCH  16  19
HETATM   19  N3  UNL     1      76.135  63.793  17.492  1.00  0.00    -0.315 N 
HETATM   20  C9  UNL     1      76.742  62.675  16.825  1.00  0.00     0.162 C 
HETATM   21  C10 UNL     1      75.792  63.563  18.850  1.00  0.00     0.162 C 
ENDBRANCH  16  19
ENDBRANCH  13  16
ENDBRANCH   8  10
ENDBRANCH   7   8
BRANCH   7  22
HETATM   22  C13 UNL     1      79.216  65.883  11.604  1.00  0.00     0.008 A 
HETATM   23  C14 UNL     1      79.985  65.770  12.747  1.00  0.00     0.016 A 
HETATM   24  C15 UNL     1      80.721  64.609  12.982  1.00  0.00     0.018 A 
HETATM   25  C16 UNL     1      80.685  63.575  12.076  1.00  0.00     0.032 A 
HETATM   26  C26 UNL     1      79.942  63.661  10.952  1.00  0.00     0.018 A 
HETATM   27  C27 UNL     1      79.210  64.824  10.728  1.00  0.00     0.016 A 
BRANCH  25  28
HETATM   28  C17 UNL     1      81.482  62.361  12.340  1.00  0.00     0.256 C 
HETATM   29  O4  UNL     1      82.212  62.367  13.377  1.00  0.00    -0.267 OA
HETATM   30  N4  UNL     1      81.395  61.290  11.460  1.00  0.00    -0.323 N 
ATOM     31  H4  UNL     1      80.767  61.396  10.664  1.00  0.00     0.169 HD
BRANCH  30  32
HETATM   32  C18 UNL     1      82.095  60.070  11.565  1.00  0.00     0.035 A 
HETATM   33  C19 UNL     1      81.612  58.926  12.130  1.00  0.00     0.030 A 
HETATM   34  C20 UNL     1      82.379  57.745  12.171  1.00  0.00     0.009 A 
HETATM   35  C21 UNL     1      83.649  57.681  11.652  1.00  0.00    -0.058 A 
HETATM   36  C24 UNL     1      84.138  58.834  11.083  1.00  0.00     0.009 A 
HETATM   37  C25 UNL     1      83.400  59.987  11.036  1.00  0.00     0.030 A 
BRANCH  35  38
HETATM   38  C22 UNL     1      84.449  56.437  11.699  1.00  0.00     0.034 C 
HETATM   39  C23 UNL     1      84.113  55.615  12.942  1.00  0.00     0.010 C 
ENDBRANCH  35  38
ENDBRANCH  30  32
ENDBRANCH  25  28
ENDBRANCH   7  22
TORSDOF 8
ENDMDL
