MODEL 1
REMARK VINA RESULT: -7.913195292      0.000      0.000
REMARK  7 active torsions:
REMARK  status: ('A' for Active; 'I' for Inactive)
REMARK    1  A    between atoms: C2_2  and  C3_3 
REMARK    2  A    between atoms: C3_3  and  C4_4 
REMARK    3  A    between atoms: C4_4  and  C5_5 
REMARK    4  A    between atoms: C5_5  and  N1_6 
REMARK    5  A    between atoms: C15_17  and  S1_18 
REMARK    6  A    between atoms: S1_18  and  N2_21 
REMARK    7  A    between atoms: C17_26  and  C18_27 
ROOT
HETATM    1  N1  UNL     1      83.601  59.493  12.702  1.00  0.00    -0.313 N 
HETATM    2  C6  UNL     1      84.528  59.381  13.672  1.00  0.00     0.259 A 
HETATM    3  O1  UNL     1      85.346  58.430  13.582  1.00  0.00    -0.267 OA
HETATM    4  C7  UNL     1      84.575  60.275  14.721  1.00  0.00     0.043 A 
HETATM    5  C8  UNL     1      85.531  60.124  15.693  1.00  0.00     0.018 A 
HETATM    6  C9  UNL     1      85.590  61.001  16.748  1.00  0.00     0.001 A 
HETATM    7  C10 UNL     1      84.672  62.052  16.833  1.00  0.00     0.001 A 
HETATM    8  C11 UNL     1      83.696  62.219  15.856  1.00  0.00     0.013 A 
HETATM    9  C12 UNL     1      83.671  61.324  14.820  1.00  0.00    -0.008 A 
HETATM   10  C13 UNL     1      82.721  61.437  13.827  1.00  0.00     0.004 A 
HETATM   11  C14 UNL     1      81.786  62.452  13.885  1.00  0.00     0.040 A 
HETATM   12  C15 UNL     1      80.803  62.568  12.894  1.00  0.00     0.081 A 
HETATM   13  C24 UNL     1      80.805  61.649  11.884  1.00  0.00     0.027 A 
HETATM   14  C25 UNL     1      81.745  60.625  11.818  1.00  0.00     0.032 A 
HETATM   15  C26 UNL     1      82.721  60.504  12.790  1.00  0.00     0.048 A 
ENDROOT
BRANCH  12  16
HETATM   16  S1  UNL     1      79.653  63.899  12.969  1.00  0.00     0.276 S 
HETATM   17  O2  UNL     1      78.612  63.570  11.895  1.00  0.00    -0.200 OA
HETATM   18  O3  UNL     1      80.303  65.171  12.558  1.00  0.00    -0.200 OA
BRANCH  16  19
HETATM   19  N2  UNL     1      78.841  63.946  14.452  1.00  0.00    -0.112 N 
HETATM   20  C16 UNL     1      77.942  63.079  14.751  1.00  0.00     0.695 A 
HETATM   21  N3  UNL     1      77.327  63.191  15.970  1.00  0.00    -0.194 N 
HETATM   22  N4  UNL     1      77.549  62.066  13.976  1.00  0.00    -0.155 N 
HETATM   23  C17 UNL     1      76.382  62.338  16.374  1.00  0.00     0.039 A 
ATOM     24  H3  UNL     1      77.601  63.952  16.592  1.00  0.00     0.184 HD
HETATM   25  C22 UNL     1      75.995  61.291  15.542  1.00  0.00     0.101 A 
HETATM   26  C23 UNL     1      76.608  61.170  14.314  1.00  0.00     0.261 A 
HETATM   27  O4  UNL     1      76.277  60.238  13.550  1.00  0.00    -0.268 OA
ATOM     28  H4  UNL     1      77.995  61.965  13.063  1.00  0.00     0.187 HD
ATOM     29  H2  UNL     1      79.070  64.680  15.124  1.00  0.00     0.197 HD
BRANCH  23  30
HETATM   30  C18 UNL     1      75.720  62.535  17.695  1.00  0.00    -0.008 C 
HETATM   31  C19 UNL     1      76.748  62.406  18.789  1.00  0.00     0.021 C 
HETATM   32  C20 UNL     1      75.142  63.959  17.719  1.00  0.00     0.021 C 
HETATM   33  C21 UNL     1      74.638  61.512  17.860  1.00  0.00     0.021 C 
ENDBRANCH  23  30
ENDBRANCH  16  19
ENDBRANCH  12  16
BRANCH   1  34
HETATM   34  C5  UNL     1      83.606  58.540  11.592  1.00  0.00     0.132 C 
BRANCH  34  35
HETATM   35  C4  UNL     1      84.046  59.101  10.293  1.00  0.00     0.020 C 
BRANCH  35  36
HETATM   36  C3  UNL     1      85.554  59.136  10.258  1.00  0.00     0.001 C 
BRANCH  36  37
HETATM   37  C2  UNL     1      86.112  60.492   9.975  1.00  0.00    -0.004 C 
HETATM   38  C1  UNL     1      86.700  61.010  11.285  1.00  0.00     0.005 C 
ENDBRANCH  36  37
ENDBRANCH  35  36
ENDBRANCH  34  35
ENDBRANCH   1  34
TORSDOF 7
ENDMDL
MODEL 2
REMARK VINA RESULT: -7.853109180      0.716      1.175
REMARK  7 active torsions:
REMARK  status: ('A' for Active; 'I' for Inactive)
REMARK    1  A    between atoms: C2_2  and  C3_3 
REMARK    2  A    between atoms: C3_3  and  C4_4 
REMARK    3  A    between atoms: C4_4  and  C5_5 
REMARK    4  A    between atoms: C5_5  and  N1_6 
REMARK    5  A    between atoms: C15_17  and  S1_18 
REMARK    6  A    between atoms: S1_18  and  N2_21 
REMARK    7  A    between atoms: C17_26  and  C18_27 
ROOT
HETATM    1  N1  UNL     1      83.563  59.507  12.636  1.00  0.00    -0.313 N 
HETATM    2  C6  UNL     1      84.496  59.377  13.598  1.00  0.00     0.259 A 
HETATM    3  O1  UNL     1      85.312  58.427  13.487  1.00  0.00    -0.267 OA
HETATM    4  C7  UNL     1      84.551  60.253  14.662  1.00  0.00     0.043 A 
HETATM    5  C8  UNL     1      85.513  60.085  15.625  1.00  0.00     0.018 A 
HETATM    6  C9  UNL     1      85.581  60.943  16.695  1.00  0.00     0.001 A 
HETATM    7  C10 UNL     1      84.666  61.994  16.803  1.00  0.00     0.001 A 
HETATM    8  C11 UNL     1      83.683  62.180  15.836  1.00  0.00     0.013 A 
HETATM    9  C12 UNL     1      83.650  61.302  14.785  1.00  0.00    -0.008 A 
HETATM   10  C13 UNL     1      82.694  61.433  13.800  1.00  0.00     0.004 A 
HETATM   11  C14 UNL     1      81.761  62.449  13.881  1.00  0.00     0.040 A 
HETATM   12  C15 UNL     1      80.772  62.583  12.899  1.00  0.00     0.081 A 
HETATM   13  C24 UNL     1      80.766  61.682  11.873  1.00  0.00     0.027 A 
HETATM   14  C25 UNL     1      81.704  60.657  11.783  1.00  0.00     0.032 A 
HETATM   15  C26 UNL     1      82.685  60.518  12.748  1.00  0.00     0.048 A 
ENDROOT
BRANCH  12  16
HETATM   16  S1  UNL     1      79.625  63.914  13.004  1.00  0.00     0.276 S 
HETATM   17  O2  UNL     1      78.575  63.604  11.933  1.00  0.00    -0.200 OA
HETATM   18  O3  UNL     1      80.274  65.192  12.608  1.00  0.00    -0.200 OA
BRANCH  16  19
HETATM   19  N2  UNL     1      78.825  63.940  14.494  1.00  0.00    -0.112 N 
HETATM   20  C16 UNL     1      77.912  63.082  14.777  1.00  0.00     0.695 A 
HETATM   21  N3  UNL     1      77.308  63.174  16.004  1.00  0.00    -0.194 N 
HETATM   22  N4  UNL     1      77.495  62.096  13.981  1.00  0.00    -0.155 N 
HETATM   23  C17 UNL     1      76.350  62.329  16.394  1.00  0.00     0.039 A 
ATOM     24  H3  UNL     1      77.601  63.914  16.642  1.00  0.00     0.184 HD
HETATM   25  C22 UNL     1      75.938  61.310  15.539  1.00  0.00     0.101 A 
HETATM   26  C23 UNL     1      76.539  61.209  14.304  1.00  0.00     0.261 A 
HETATM   27  O4  UNL     1      76.186  60.303  13.519  1.00  0.00    -0.268 OA
ATOM     28  H4  UNL     1      77.932  62.009  13.063  1.00  0.00     0.187 HD
ATOM     29  H2  UNL     1      79.072  64.652  15.182  1.00  0.00     0.197 HD
BRANCH  23  30
HETATM   30  C18 UNL     1      75.701  62.505  17.725  1.00  0.00    -0.008 C 
HETATM   31  C19 UNL     1      76.736  62.339  18.806  1.00  0.00     0.021 C 
HETATM   32  C20 UNL     1      75.143  63.936  17.785  1.00  0.00     0.021 C 
HETATM   33  C21 UNL     1      74.607  61.493  17.875  1.00  0.00     0.021 C 
ENDBRANCH  23  30
ENDBRANCH  16  19
ENDBRANCH  12  16
BRANCH   1  34
HETATM   34  C5  UNL     1      83.560  58.573  11.510  1.00  0.00     0.132 C 
BRANCH  34  35
HETATM   35  C4  UNL     1      84.389  58.989  10.356  1.00  0.00     0.020 C 
BRANCH  35  36
HETATM   36  C3  UNL     1      83.577  58.853   9.092  1.00  0.00     0.001 C 
BRANCH  36  37
HETATM   37  C2  UNL     1      83.455  60.127   8.322  1.00  0.00    -0.004 C 
HETATM   38  C1  UNL     1      81.963  60.383   8.124  1.00  0.00     0.005 C 
ENDBRANCH  36  37
ENDBRANCH  35  36
ENDBRANCH  34  35
ENDBRANCH   1  34
TORSDOF 7
ENDMDL
MODEL 3
REMARK VINA RESULT: -7.832927031      0.996      2.123
REMARK  7 active torsions:
REMARK  status: ('A' for Active; 'I' for Inactive)
REMARK    1  A    between atoms: C2_2  and  C3_3 
REMARK    2  A    between atoms: C3_3  and  C4_4 
REMARK    3  A    between atoms: C4_4  and  C5_5 
REMARK    4  A    between atoms: C5_5  and  N1_6 
REMARK    5  A    between atoms: C15_17  and  S1_18 
REMARK    6  A    between atoms: S1_18  and  N2_21 
REMARK    7  A    between atoms: C17_26  and  C18_27 
ROOT
HETATM    1  N1  UNL     1      83.491  59.536  12.552  1.00  0.00    -0.313 N 
HETATM    2  C6  UNL     1      84.429  59.385  13.507  1.00  0.00     0.259 A 
HETATM    3  O1  UNL     1      85.231  58.425  13.380  1.00  0.00    -0.267 OA
HETATM    4  C7  UNL     1      84.502  60.249  14.579  1.00  0.00     0.043 A 
HETATM    5  C8  UNL     1      85.468  60.058  15.534  1.00  0.00     0.018 A 
HETATM    6  C9  UNL     1      85.553  60.905  16.612  1.00  0.00     0.001 A 
HETATM    7  C10 UNL     1      84.652  61.967  16.737  1.00  0.00     0.001 A 
HETATM    8  C11 UNL     1      83.666  62.175  15.777  1.00  0.00     0.013 A 
HETATM    9  C12 UNL     1      83.615  61.308  14.718  1.00  0.00    -0.008 A 
HETATM   10  C13 UNL     1      82.654  61.461  13.740  1.00  0.00     0.004 A 
HETATM   11  C14 UNL     1      81.736  62.488  13.838  1.00  0.00     0.040 A 
HETATM   12  C15 UNL     1      80.742  62.645  12.864  1.00  0.00     0.081 A 
HETATM   13  C24 UNL     1      80.718  61.754  11.829  1.00  0.00     0.027 A 
HETATM   14  C25 UNL     1      81.642  60.719  11.723  1.00  0.00     0.032 A 
HETATM   15  C26 UNL     1      82.627  60.557  12.679  1.00  0.00     0.048 A 
ENDROOT
BRANCH  12  16
HETATM   16  S1  UNL     1      79.613  63.990  12.989  1.00  0.00     0.276 S 
HETATM   17  O2  UNL     1      78.570  63.720  11.901  1.00  0.00    -0.200 OA
HETATM   18  O3  UNL     1      80.284  65.267  12.630  1.00  0.00    -0.200 OA
BRANCH  16  19
HETATM   19  N2  UNL     1      78.798  63.991  14.471  1.00  0.00    -0.112 N 
HETATM   20  C16 UNL     1      77.904  63.110  14.744  1.00  0.00     0.695 A 
HETATM   21  N3  UNL     1      77.287  63.184  15.965  1.00  0.00    -0.194 N 
HETATM   22  N4  UNL     1      77.520  62.116  13.941  1.00  0.00    -0.155 N 
HETATM   23  C17 UNL     1      76.346  62.315  16.344  1.00  0.00     0.039 A 
ATOM     24  H3  UNL     1      77.555  63.930  16.608  1.00  0.00     0.184 HD
HETATM   25  C22 UNL     1      75.969  61.288  15.483  1.00  0.00     0.101 A 
HETATM   26  C23 UNL     1      76.584  61.205  14.253  1.00  0.00     0.261 A 
HETATM   27  O4  UNL     1      76.261  60.292  13.463  1.00  0.00    -0.268 OA
ATOM     28  H4  UNL     1      77.967  62.043  13.027  1.00  0.00     0.187 HD
ATOM     29  H2  UNL     1      79.021  64.707  15.163  1.00  0.00     0.197 HD
BRANCH  23  30
HETATM   30  C18 UNL     1      75.681  62.471  17.669  1.00  0.00    -0.008 C 
HETATM   31  C19 UNL     1      74.968  63.796  17.713  1.00  0.00     0.021 C 
HETATM   32  C20 UNL     1      74.646  61.342  17.806  1.00  0.00     0.021 C 
HETATM   33  C21 UNL     1      76.715  62.387  18.750  1.00  0.00     0.021 C 
ENDBRANCH  23  30
ENDBRANCH  16  19
ENDBRANCH  12  16
BRANCH   1  34
HETATM   34  C5  UNL     1      83.469  58.614  11.417  1.00  0.00     0.132 C 
BRANCH  34  35
HETATM   35  C4  UNL     1      82.948  57.262  11.726  1.00  0.00     0.020 C 
BRANCH  35  36
HETATM   36  C3  UNL     1      81.466  57.231  11.446  1.00  0.00     0.001 C 
BRANCH  36  37
HETATM   37  C2  UNL     1      80.657  56.689  12.579  1.00  0.00    -0.004 C 
HETATM   38  C1  UNL     1      79.998  57.884  13.263  1.00  0.00     0.005 C 
ENDBRANCH  36  37
ENDBRANCH  35  36
ENDBRANCH  34  35
ENDBRANCH   1  34
TORSDOF 7
ENDMDL
MODEL 4
REMARK VINA RESULT: -7.682950862      0.971      1.693
REMARK  7 active torsions:
REMARK  status: ('A' for Active; 'I' for Inactive)
REMARK    1  A    between atoms: C2_2  and  C3_3 
REMARK    2  A    between atoms: C3_3  and  C4_4 
REMARK    3  A    between atoms: C4_4  and  C5_5 
REMARK    4  A    between atoms: C5_5  and  N1_6 
REMARK    5  A    between atoms: C15_17  and  S1_18 
REMARK    6  A    between atoms: S1_18  and  N2_21 
REMARK    7  A    between atoms: C17_26  and  C18_27 
ROOT
HETATM    1  N1  UNL     1      83.500  59.549  12.512  1.00  0.00    -0.313 N 
HETATM    2  C6  UNL     1      84.437  59.404  13.468  1.00  0.00     0.259 A 
HETATM    3  O1  UNL     1      85.247  58.451  13.343  1.00  0.00    -0.267 OA
HETATM    4  C7  UNL     1      84.501  60.268  14.541  1.00  0.00     0.043 A 
HETATM    5  C8  UNL     1      85.467  60.085  15.497  1.00  0.00     0.018 A 
HETATM    6  C9  UNL     1      85.543  60.931  16.576  1.00  0.00     0.001 A 
HETATM    7  C10 UNL     1      84.634  61.986  16.699  1.00  0.00     0.001 A 
HETATM    8  C11 UNL     1      83.648  62.187  15.738  1.00  0.00     0.013 A 
HETATM    9  C12 UNL     1      83.606  61.320  14.679  1.00  0.00    -0.008 A 
HETATM   10  C13 UNL     1      82.646  61.466  13.699  1.00  0.00     0.004 A 
HETATM   11  C14 UNL     1      81.719  62.486  13.795  1.00  0.00     0.040 A 
HETATM   12  C15 UNL     1      80.726  62.635  12.819  1.00  0.00     0.081 A 
HETATM   13  C24 UNL     1      80.711  61.745  11.784  1.00  0.00     0.027 A 
HETATM   14  C25 UNL     1      81.643  60.717  11.679  1.00  0.00     0.032 A 
HETATM   15  C26 UNL     1      82.628  60.563  12.637  1.00  0.00     0.048 A 
ENDROOT
BRANCH  12  16
HETATM   16  S1  UNL     1      79.586  63.972  12.942  1.00  0.00     0.276 S 
HETATM   17  O2  UNL     1      78.532  63.679  11.872  1.00  0.00    -0.200 OA
HETATM   18  O3  UNL     1      80.241  65.250  12.559  1.00  0.00    -0.200 OA
BRANCH  16  19
HETATM   19  N2  UNL     1      78.791  63.984  14.435  1.00  0.00    -0.112 N 
HETATM   20  C16 UNL     1      77.897  63.107  14.725  1.00  0.00     0.695 A 
HETATM   21  N3  UNL     1      77.296  63.190  15.953  1.00  0.00    -0.194 N 
HETATM   22  N4  UNL     1      77.499  62.110  13.932  1.00  0.00    -0.155 N 
HETATM   23  C17 UNL     1      76.358  62.326  16.349  1.00  0.00     0.039 A 
ATOM     24  H3  UNL     1      77.575  63.938  16.588  1.00  0.00     0.184 HD
HETATM   25  C22 UNL     1      75.965  61.296  15.498  1.00  0.00     0.101 A 
HETATM   26  C23 UNL     1      76.564  61.205  14.261  1.00  0.00     0.261 A 
HETATM   27  O4  UNL     1      76.227  60.289  13.480  1.00  0.00    -0.268 OA
ATOM     28  H4  UNL     1      77.935  62.031  13.013  1.00  0.00     0.187 HD
ATOM     29  H2  UNL     1      79.025  64.703  15.120  1.00  0.00     0.197 HD
BRANCH  23  30
HETATM   30  C18 UNL     1      75.711  62.491  17.681  1.00  0.00    -0.008 C 
HETATM   31  C19 UNL     1      76.766  62.441  18.755  1.00  0.00     0.021 C 
HETATM   32  C20 UNL     1      75.041  63.875  17.705  1.00  0.00     0.021 C 
HETATM   33  C21 UNL     1      74.702  61.402  17.876  1.00  0.00     0.021 C 
ENDBRANCH  23  30
ENDBRANCH  16  19
ENDBRANCH  12  16
BRANCH   1  34
HETATM   34  C5  UNL     1      83.487  58.626  11.376  1.00  0.00     0.132 C 
BRANCH  34  35
HETATM   35  C4  UNL     1      82.660  57.413  11.570  1.00  0.00     0.020 C 
BRANCH  35  36
HETATM   36  C3  UNL     1      83.358  56.235  10.938  1.00  0.00     0.001 C 
BRANCH  36  37
HETATM   37  C2  UNL     1      84.194  55.453  11.897  1.00  0.00    -0.004 C 
HETATM   38  C1  UNL     1      83.393  55.339  13.192  1.00  0.00     0.005 C 
ENDBRANCH  36  37
ENDBRANCH  35  36
ENDBRANCH  34  35
ENDBRANCH   1  34
TORSDOF 7
ENDMDL
MODEL 5
REMARK VINA RESULT: -7.425152564      1.427      2.249
REMARK  7 active torsions:
REMARK  status: ('A' for Active; 'I' for Inactive)
REMARK    1  A    between atoms: C2_2  and  C3_3 
REMARK    2  A    between atoms: C3_3  and  C4_4 
REMARK    3  A    between atoms: C4_4  and  C5_5 
REMARK    4  A    between atoms: C5_5  and  N1_6 
REMARK    5  A    between atoms: C15_17  and  S1_18 
REMARK    6  A    between atoms: S1_18  and  N2_21 
REMARK    7  A    between atoms: C17_26  and  C18_27 
ROOT
HETATM    1  N1  UNL     1      83.782  59.478  12.591  1.00  0.00    -0.313 N 
HETATM    2  C6  UNL     1      84.682  59.373  13.587  1.00  0.00     0.259 A 
HETATM    3  O1  UNL     1      85.529  58.448  13.504  1.00  0.00    -0.267 OA
HETATM    4  C7  UNL     1      84.670  60.246  14.654  1.00  0.00     0.043 A 
HETATM    5  C8  UNL     1      85.599  60.103  15.653  1.00  0.00     0.018 A 
HETATM    6  C9  UNL     1      85.600  60.959  16.727  1.00  0.00     0.001 A 
HETATM    7  C10 UNL     1      84.650  61.982  16.803  1.00  0.00     0.001 A 
HETATM    8  C11 UNL     1      83.700  62.141  15.799  1.00  0.00     0.013 A 
HETATM    9  C12 UNL     1      83.733  61.267  14.746  1.00  0.00    -0.008 A 
HETATM   10  C13 UNL     1      82.811  61.373  13.725  1.00  0.00     0.004 A 
HETATM   11  C14 UNL     1      81.846  62.360  13.774  1.00  0.00     0.040 A 
HETATM   12  C15 UNL     1      80.891  62.467  12.755  1.00  0.00     0.081 A 
HETATM   13  C24 UNL     1      80.951  61.570  11.727  1.00  0.00     0.027 A 
HETATM   14  C25 UNL     1      81.923  60.575  11.671  1.00  0.00     0.032 A 
HETATM   15  C26 UNL     1      82.871  60.462  12.671  1.00  0.00     0.048 A 
ENDROOT
BRANCH  12  16
HETATM   16  S1  UNL     1      79.701  63.763  12.819  1.00  0.00     0.276 S 
HETATM   17  O2  UNL     1      79.040  63.749  11.438  1.00  0.00    -0.200 OA
HETATM   18  O3  UNL     1      80.375  65.082  12.956  1.00  0.00    -0.200 OA
BRANCH  16  19
HETATM   19  N2  UNL     1      78.488  63.448  13.955  1.00  0.00    -0.112 N 
HETATM   20  C16 UNL     1      77.674  64.365  14.337  1.00  0.00     0.695 A 
HETATM   21  N3  UNL     1      76.723  64.029  15.265  1.00  0.00    -0.194 N 
HETATM   22  N4  UNL     1      77.666  65.628  13.906  1.00  0.00    -0.155 N 
HETATM   23  C17 UNL     1      75.831  64.911  15.724  1.00  0.00     0.039 A 
ATOM     24  H3  UNL     1      76.697  63.073  15.618  1.00  0.00     0.184 HD
HETATM   25  C22 UNL     1      75.849  66.221  15.253  1.00  0.00     0.101 A 
HETATM   26  C23 UNL     1      76.800  66.568  14.320  1.00  0.00     0.261 A 
HETATM   27  O4  UNL     1      76.836  67.738  13.883  1.00  0.00    -0.268 OA
ATOM     28  H4  UNL     1      78.366  65.899  13.214  1.00  0.00     0.187 HD
ATOM     29  H2  UNL     1      78.401  62.509  14.346  1.00  0.00     0.197 HD
BRANCH  23  30
HETATM   30  C18 UNL     1      74.846  64.497  16.764  1.00  0.00    -0.008 C 
HETATM   31  C19 UNL     1      73.794  63.625  16.132  1.00  0.00     0.021 C 
HETATM   32  C20 UNL     1      75.603  63.677  17.822  1.00  0.00     0.021 C 
HETATM   33  C21 UNL     1      74.229  65.719  17.370  1.00  0.00     0.021 C 
ENDBRANCH  23  30
ENDBRANCH  16  19
ENDBRANCH  12  16
BRANCH   1  34
HETATM   34  C5  UNL     1      83.850  58.549  11.463  1.00  0.00     0.132 C 
BRANCH  34  35
HETATM   35  C4  UNL     1      84.334  59.144  10.196  1.00  0.00     0.020 C 
BRANCH  35  36
HETATM   36  C3  UNL     1      85.834  59.293  10.264  1.00  0.00     0.001 C 
BRANCH  36  37
HETATM   37  C2  UNL     1      86.302  60.698  10.071  1.00  0.00    -0.004 C 
HETATM   38  C1  UNL     1      86.998  61.113  11.365  1.00  0.00     0.005 C 
ENDBRANCH  36  37
ENDBRANCH  35  36
ENDBRANCH  34  35
ENDBRANCH   1  34
TORSDOF 7
ENDMDL
