MODEL 1
REMARK VINA RESULT: -8.812926122      0.000      0.000
REMARK  8 active torsions:
REMARK  status: ('A' for Active; 'I' for Inactive)
REMARK    1  A    between atoms: C2_2  and  C3_3 
REMARK    2  A    between atoms: C2_2  and  C23_27 
REMARK    3  A    between atoms: C3_3  and  C4_5 
REMARK    4  A    between atoms: C8_9  and  C10_11 
REMARK    5  A    between atoms: C10_11  and  C12_13 
REMARK    6  A    between atoms: C12_13  and  C13_14 
REMARK    7  A    between atoms: C13_14  and  C14_15 
REMARK    8  A    between atoms: C19_22  and  O4_23 
ROOT
HETATM    1  C4  UNL     1      49.220  45.561  61.395  1.00  0.00     0.001 C 
HETATM    2  C5  UNL     1      50.091  45.293  60.228  1.00  0.00     0.028 A 
HETATM    3  C6  UNL     1      50.232  44.253  59.306  1.00  0.00     0.016 A 
HETATM    4  C7  UNL     1      50.634  43.899  60.598  1.00  0.00     0.005 A 
HETATM    5  C8  UNL     1      51.897  44.180  61.426  1.00  0.00    -0.021 C 
HETATM    6  C9  UNL     1      52.725  45.256  60.737  1.00  0.00     0.017 C 
HETATM    7  C15 UNL     1      51.288  44.653  62.696  1.00  0.00     0.013 C 
HETATM    8  C16 UNL     1      50.799  43.557  63.598  1.00  0.00     0.026 C 
HETATM    9  C17 UNL     1      52.056  45.559  63.591  1.00  0.00    -0.047 C 
HETATM   10  C18 UNL     1      53.251  46.040  63.702  1.00  0.00     0.018 C 
HETATM   11  C19 UNL     1      51.002  45.983  64.609  1.00  0.00     0.154 C 
HETATM   12  C21 UNL     1      49.701  46.002  63.843  1.00  0.00     0.072 C 
HETATM   13  C22 UNL     1      50.170  45.691  62.480  1.00  0.00    -0.053 C 
ENDROOT
BRANCH   1  14
HETATM   14  C3  UNL     1      47.972  44.848  61.535  1.00  0.00     0.186 C 
HETATM   15  O1  UNL     1      47.776  43.777  62.164  1.00  0.00    -0.287 OA
BRANCH  14  16
HETATM   16  C2  UNL     1      46.703  45.321  60.916  1.00  0.00     0.014 C 
HETATM   17  C1  UNL     1      46.496  45.029  59.647  1.00  0.00     0.025 C 
BRANCH  16  18
HETATM   18  C23 UNL     1      45.685  46.090  61.626  1.00  0.00     0.184 C 
HETATM   19  C24 UNL     1      46.020  46.649  62.948  1.00  0.00     0.208 C 
HETATM   20  O5  UNL     1      45.901  45.756  63.998  1.00  0.00    -0.353 OA
HETATM   21  C25 UNL     1      44.544  45.430  64.057  1.00  0.00     0.318 C 
HETATM   22  O6  UNL     1      43.725  46.548  64.141  1.00  0.00    -0.321 OA
HETATM   23  C29 UNL     1      44.075  44.808  62.768  1.00  0.00     0.319 C 
HETATM   24  C26 UNL     1      42.490  46.016  63.820  1.00  0.00     0.163 C 
HETATM   25  C27 UNL     1      41.511  47.041  63.301  1.00  0.00     0.078 C 
HETATM   26  C28 UNL     1      41.835  45.353  65.024  1.00  0.00     0.078 C 
HETATM   27  O7  UNL     1      42.677  45.061  62.856  1.00  0.00    -0.321 OA
HETATM   28  O8  UNL     1      44.505  45.416  61.649  1.00  0.00    -0.344 OA
ENDBRANCH  16  18
ENDBRANCH  14  16
ENDBRANCH   1  14
BRANCH   5  29
HETATM   29  C10 UNL     1      52.582  42.863  61.294  1.00  0.00    -0.008 C 
HETATM   30  C11 UNL     1      53.154  42.752  59.821  1.00  0.00     0.011 C 
BRANCH  29  31
HETATM   31  C12 UNL     1      53.717  42.400  62.068  1.00  0.00     0.015 C 
BRANCH  31  32
HETATM   32  C13 UNL     1      55.145  42.558  61.784  1.00  0.00     0.113 C 
BRANCH  32  33
HETATM   33  C14 UNL     1      55.715  43.852  62.329  1.00  0.00     0.172 C 
HETATM   34  O2  UNL     1      55.921  43.954  63.556  1.00  0.00    -0.648 OA
HETATM   35  O3  UNL     1      56.008  44.913  61.502  1.00  0.00    -0.648 OA
ENDBRANCH  32  33
ENDBRANCH  31  32
ENDBRANCH  29  31
ENDBRANCH   5  29
BRANCH  11  36
HETATM   36  O4  UNL     1      51.012  45.244  65.748  1.00  0.00    -0.386 OA
HETATM   37  C20 UNL     1      51.237  46.031  66.853  1.00  0.00     0.202 C 
ENDBRANCH  11  36
TORSDOF 8
ENDMDL
MODEL 2
REMARK VINA RESULT: -8.683532197      2.175      9.065
REMARK  8 active torsions:
REMARK  status: ('A' for Active; 'I' for Inactive)
REMARK    1  A    between atoms: C2_2  and  C3_3 
REMARK    2  A    between atoms: C2_2  and  C23_27 
REMARK    3  A    between atoms: C3_3  and  C4_5 
REMARK    4  A    between atoms: C8_9  and  C10_11 
REMARK    5  A    between atoms: C10_11  and  C12_13 
REMARK    6  A    between atoms: C12_13  and  C13_14 
REMARK    7  A    between atoms: C13_14  and  C14_15 
REMARK    8  A    between atoms: C19_22  and  O4_23 
ROOT
HETATM    1  C4  UNL     1      51.322  46.209  64.489  1.00  0.00     0.001 C 
HETATM    2  C5  UNL     1      50.233  47.129  64.894  1.00  0.00     0.028 A 
HETATM    3  C6  UNL     1      49.282  47.161  65.915  1.00  0.00     0.016 A 
HETATM    4  C7  UNL     1      49.052  46.145  64.982  1.00  0.00     0.005 A 
HETATM    5  C8  UNL     1      48.454  46.124  63.567  1.00  0.00    -0.021 C 
HETATM    6  C9  UNL     1      48.331  47.550  63.049  1.00  0.00     0.017 C 
HETATM    7  C15 UNL     1      49.493  45.342  62.847  1.00  0.00     0.013 C 
HETATM    8  C16 UNL     1      49.395  43.856  63.035  1.00  0.00     0.026 C 
HETATM    9  C17 UNL     1      49.668  45.523  61.381  1.00  0.00    -0.047 C 
HETATM   10  C18 UNL     1      49.084  46.116  60.392  1.00  0.00     0.018 C 
HETATM   11  C19 UNL     1      50.957  44.751  61.109  1.00  0.00     0.154 C 
HETATM   12  C21 UNL     1      51.780  44.908  62.365  1.00  0.00     0.072 C 
HETATM   13  C22 UNL     1      50.927  45.815  63.152  1.00  0.00    -0.053 C 
ENDROOT
BRANCH   1  14
HETATM   14  C3  UNL     1      51.861  45.274  65.448  1.00  0.00     0.186 C 
HETATM   15  O1  UNL     1      51.716  44.025  65.454  1.00  0.00    -0.287 OA
BRANCH  14  16
HETATM   16  C2  UNL     1      52.695  45.702  66.605  1.00  0.00     0.014 C 
HETATM   17  C1  UNL     1      52.133  45.699  67.798  1.00  0.00     0.025 C 
BRANCH  16  18
HETATM   18  C23 UNL     1      54.087  46.128  66.495  1.00  0.00     0.184 C 
HETATM   19  C24 UNL     1      54.368  47.531  66.143  1.00  0.00     0.208 C 
HETATM   20  O5  UNL     1      54.305  47.809  64.789  1.00  0.00    -0.353 OA
HETATM   21  C25 UNL     1      55.330  47.061  64.207  1.00  0.00     0.318 C 
HETATM   22  O6  UNL     1      56.566  47.290  64.797  1.00  0.00    -0.321 OA
HETATM   23  C29 UNL     1      55.142  45.588  64.461  1.00  0.00     0.319 C 
HETATM   24  C26 UNL     1      57.302  46.217  64.330  1.00  0.00     0.163 C 
HETATM   25  C27 UNL     1      58.491  45.883  65.198  1.00  0.00     0.078 C 
HETATM   26  C28 UNL     1      57.839  46.473  62.929  1.00  0.00     0.078 C 
HETATM   27  O7  UNL     1      56.476  45.126  64.279  1.00  0.00    -0.321 OA
HETATM   28  O8  UNL     1      54.792  45.263  65.717  1.00  0.00    -0.344 OA
ENDBRANCH  16  18
ENDBRANCH  14  16
ENDBRANCH   1  14
BRANCH   5  29
HETATM   29  C10 UNL     1      47.099  45.586  63.874  1.00  0.00    -0.008 C 
HETATM   30  C11 UNL     1      46.348  46.640  64.788  1.00  0.00     0.011 C 
BRANCH  29  31
HETATM   31  C12 UNL     1      46.062  45.263  62.914  1.00  0.00     0.015 C 
BRANCH  31  32
HETATM   32  C13 UNL     1      44.729  45.852  62.772  1.00  0.00     0.113 C 
BRANCH  32  33
HETATM   33  C14 UNL     1      44.410  46.251  61.345  1.00  0.00     0.172 C 
HETATM   34  O2  UNL     1      45.158  45.862  60.425  1.00  0.00    -0.648 OA
HETATM   35  O3  UNL     1      43.317  47.032  61.045  1.00  0.00    -0.648 OA
ENDBRANCH  32  33
ENDBRANCH  31  32
ENDBRANCH  29  31
ENDBRANCH   5  29
BRANCH  11  36
HETATM   36  O4  UNL     1      50.753  43.478  60.684  1.00  0.00    -0.386 OA
HETATM   37  C20 UNL     1      51.944  42.840  60.428  1.00  0.00     0.202 C 
ENDBRANCH  11  36
TORSDOF 8
ENDMDL
MODEL 3
REMARK VINA RESULT: -8.383691523      2.666      8.657
REMARK  8 active torsions:
REMARK  status: ('A' for Active; 'I' for Inactive)
REMARK    1  A    between atoms: C2_2  and  C3_3 
REMARK    2  A    between atoms: C2_2  and  C23_27 
REMARK    3  A    between atoms: C3_3  and  C4_5 
REMARK    4  A    between atoms: C8_9  and  C10_11 
REMARK    5  A    between atoms: C10_11  and  C12_13 
REMARK    6  A    between atoms: C12_13  and  C13_14 
REMARK    7  A    between atoms: C13_14  and  C14_15 
REMARK    8  A    between atoms: C19_22  and  O4_23 
ROOT
HETATM    1  C4  UNL     1      52.053  46.246  64.300  1.00  0.00     0.001 C 
HETATM    2  C5  UNL     1      51.104  47.231  64.871  1.00  0.00     0.028 A 
HETATM    3  C6  UNL     1      50.338  47.320  66.035  1.00  0.00     0.016 A 
HETATM    4  C7  UNL     1      49.896  46.320  65.162  1.00  0.00     0.005 A 
HETATM    5  C8  UNL     1      49.073  46.337  63.865  1.00  0.00    -0.021 C 
HETATM    6  C9  UNL     1      48.952  47.769  63.362  1.00  0.00     0.017 C 
HETATM    7  C15 UNL     1      49.928  45.495  62.991  1.00  0.00     0.013 C 
HETATM    8  C16 UNL     1      49.773  44.017  63.206  1.00  0.00     0.026 C 
HETATM    9  C17 UNL     1      49.869  45.666  61.514  1.00  0.00    -0.047 C 
HETATM   10  C18 UNL     1      49.167  46.294  60.630  1.00  0.00     0.018 C 
HETATM   11  C19 UNL     1      51.046  44.817  61.040  1.00  0.00     0.154 C 
HETATM   12  C21 UNL     1      52.074  44.921  62.142  1.00  0.00     0.072 C 
HETATM   13  C22 UNL     1      51.419  45.879  63.051  1.00  0.00    -0.053 C 
ENDROOT
BRANCH   1  14
HETATM   14  C3  UNL     1      52.686  45.279  65.165  1.00  0.00     0.186 C 
HETATM   15  O1  UNL     1      52.183  44.216  65.612  1.00  0.00    -0.287 OA
BRANCH  14  16
HETATM   16  C2  UNL     1      54.082  45.435  65.659  1.00  0.00     0.014 C 
HETATM   17  C1  UNL     1      55.061  45.135  64.829  1.00  0.00     0.025 C 
BRANCH  16  18
HETATM   18  C23 UNL     1      54.426  45.890  67.003  1.00  0.00     0.184 C 
HETATM   19  C24 UNL     1      55.229  45.003  67.863  1.00  0.00     0.208 C 
HETATM   20  O5  UNL     1      54.505  44.020  68.514  1.00  0.00    -0.353 OA
HETATM   21  C25 UNL     1      53.644  44.703  69.376  1.00  0.00     0.318 C 
HETATM   22  O6  UNL     1      54.309  45.592  70.209  1.00  0.00    -0.321 OA
HETATM   23  C29 UNL     1      52.730  45.628  68.614  1.00  0.00     0.319 C 
HETATM   24  C26 UNL     1      53.267  46.375  70.671  1.00  0.00     0.163 C 
HETATM   25  C27 UNL     1      53.708  47.737  71.151  1.00  0.00     0.078 C 
HETATM   26  C28 UNL     1      52.541  45.713  71.833  1.00  0.00     0.078 C 
HETATM   27  O7  UNL     1      52.374  46.541  69.646  1.00  0.00    -0.321 OA
HETATM   28  O8  UNL     1      53.322  46.351  67.650  1.00  0.00    -0.344 OA
ENDBRANCH  16  18
ENDBRANCH  14  16
ENDBRANCH   1  14
BRANCH   5  29
HETATM   29  C10 UNL     1      47.757  45.883  64.397  1.00  0.00    -0.008 C 
HETATM   30  C11 UNL     1      47.172  47.037  65.312  1.00  0.00     0.011 C 
BRANCH  29  31
HETATM   31  C12 UNL     1      46.587  45.529  63.616  1.00  0.00     0.015 C 
BRANCH  31  32
HETATM   32  C13 UNL     1      45.191  45.912  63.833  1.00  0.00     0.113 C 
BRANCH  32  33
HETATM   33  C14 UNL     1      44.260  45.382  62.761  1.00  0.00     0.172 C 
HETATM   34  O2  UNL     1      43.263  44.713  63.101  1.00  0.00    -0.648 OA
HETATM   35  O3  UNL     1      44.492  45.622  61.425  1.00  0.00    -0.648 OA
ENDBRANCH  32  33
ENDBRANCH  31  32
ENDBRANCH  29  31
ENDBRANCH   5  29
BRANCH  11  36
HETATM   36  O4  UNL     1      50.699  43.559  60.667  1.00  0.00    -0.386 OA
HETATM   37  C20 UNL     1      51.797  42.836  60.264  1.00  0.00     0.202 C 
ENDBRANCH  11  36
TORSDOF 8
ENDMDL
MODEL 4
REMARK VINA RESULT: -8.335462373      2.162      8.806
REMARK  8 active torsions:
REMARK  status: ('A' for Active; 'I' for Inactive)
REMARK    1  A    between atoms: C2_2  and  C3_3 
REMARK    2  A    between atoms: C2_2  and  C23_27 
REMARK    3  A    between atoms: C3_3  and  C4_5 
REMARK    4  A    between atoms: C8_9  and  C10_11 
REMARK    5  A    between atoms: C10_11  and  C12_13 
REMARK    6  A    between atoms: C12_13  and  C13_14 
REMARK    7  A    between atoms: C13_14  and  C14_15 
REMARK    8  A    between atoms: C19_22  and  O4_23 
ROOT
HETATM    1  C4  UNL     1      49.906  45.004  63.192  1.00  0.00     0.001 C 
HETATM    2  C5  UNL     1      48.696  44.149  63.239  1.00  0.00     0.028 A 
HETATM    3  C6  UNL     1      47.818  43.609  62.296  1.00  0.00     0.016 A 
HETATM    4  C7  UNL     1      47.719  45.000  62.406  1.00  0.00     0.005 A 
HETATM    5  C8  UNL     1      47.050  45.936  63.424  1.00  0.00    -0.021 C 
HETATM    6  C9  UNL     1      46.641  45.135  64.653  1.00  0.00     0.017 C 
HETATM    7  C15 UNL     1      48.166  46.876  63.701  1.00  0.00     0.013 C 
HETATM    8  C16 UNL     1      48.349  47.947  62.665  1.00  0.00     0.026 C 
HETATM    9  C17 UNL     1      48.216  47.600  65.000  1.00  0.00    -0.047 C 
HETATM   10  C18 UNL     1      47.475  47.792  66.042  1.00  0.00     0.018 C 
HETATM   11  C19 UNL     1      49.604  48.235  64.966  1.00  0.00     0.154 C 
HETATM   12  C21 UNL     1      50.460  47.265  64.188  1.00  0.00     0.072 C 
HETATM   13  C22 UNL     1      49.508  46.164  63.961  1.00  0.00    -0.053 C 
ENDROOT
BRANCH   1  14
HETATM   14  C3  UNL     1      50.662  45.105  61.966  1.00  0.00     0.186 C 
HETATM   15  O1  UNL     1      50.384  45.803  60.957  1.00  0.00    -0.287 OA
BRANCH  14  16
HETATM   16  C2  UNL     1      51.928  44.354  61.739  1.00  0.00     0.014 C 
HETATM   17  C1  UNL     1      51.841  43.052  61.548  1.00  0.00     0.025 C 
BRANCH  16  18
HETATM   18  C23 UNL     1      53.251  44.971  61.723  1.00  0.00     0.184 C 
HETATM   19  C24 UNL     1      54.380  44.201  61.172  1.00  0.00     0.208 C 
HETATM   20  O5  UNL     1      54.947  43.297  62.054  1.00  0.00    -0.353 OA
HETATM   21  C25 UNL     1      55.484  44.071  63.085  1.00  0.00     0.318 C 
HETATM   22  O6  UNL     1      56.343  45.060  62.625  1.00  0.00    -0.321 OA
HETATM   23  C29 UNL     1      54.418  44.889  63.766  1.00  0.00     0.319 C 
HETATM   24  C26 UNL     1      56.439  45.883  63.731  1.00  0.00     0.163 C 
HETATM   25  C27 UNL     1      56.848  47.297  63.393  1.00  0.00     0.078 C 
HETATM   26  C28 UNL     1      57.459  45.360  64.733  1.00  0.00     0.078 C 
HETATM   27  O7  UNL     1      55.215  45.916  64.344  1.00  0.00    -0.321 OA
HETATM   28  O8  UNL     1      53.548  45.496  62.942  1.00  0.00    -0.344 OA
ENDBRANCH  16  18
ENDBRANCH  14  16
ENDBRANCH   1  14
BRANCH   5  29
HETATM   29  C10 UNL     1      45.835  46.320  62.652  1.00  0.00    -0.008 C 
HETATM   30  C11 UNL     1      46.164  46.167  61.110  1.00  0.00     0.011 C 
BRANCH  29  31
HETATM   31  C12 UNL     1      44.533  45.686  62.723  1.00  0.00     0.015 C 
BRANCH  31  32
HETATM   32  C13 UNL     1      43.211  46.314  62.781  1.00  0.00     0.113 C 
BRANCH  32  33
HETATM   33  C14 UNL     1      42.501  46.072  64.098  1.00  0.00     0.172 C 
HETATM   34  O2  UNL     1      43.078  46.379  65.162  1.00  0.00    -0.648 OA
HETATM   35  O3  UNL     1      41.240  45.523  64.145  1.00  0.00    -0.648 OA
ENDBRANCH  32  33
ENDBRANCH  31  32
ENDBRANCH  29  31
ENDBRANCH   5  29
BRANCH  11  36
HETATM   36  O4  UNL     1      49.607  49.519  64.525  1.00  0.00    -0.386 OA
HETATM   37  C20 UNL     1      50.747  50.180  64.920  1.00  0.00     0.202 C 
ENDBRANCH  11  36
TORSDOF 8
ENDMDL
MODEL 5
REMARK VINA RESULT: -8.226092613      3.138      9.273
REMARK  8 active torsions:
REMARK  status: ('A' for Active; 'I' for Inactive)
REMARK    1  A    between atoms: C2_2  and  C3_3 
REMARK    2  A    between atoms: C2_2  and  C23_27 
REMARK    3  A    between atoms: C3_3  and  C4_5 
REMARK    4  A    between atoms: C8_9  and  C10_11 
REMARK    5  A    between atoms: C10_11  and  C12_13 
REMARK    6  A    between atoms: C12_13  and  C13_14 
REMARK    7  A    between atoms: C13_14  and  C14_15 
REMARK    8  A    between atoms: C19_22  and  O4_23 
ROOT
HETATM    1  C4  UNL     1      51.410  46.353  64.334  1.00  0.00     0.001 C 
HETATM    2  C5  UNL     1      50.311  47.257  64.745  1.00  0.00     0.028 A 
HETATM    3  C6  UNL     1      49.392  47.297  65.797  1.00  0.00     0.016 A 
HETATM    4  C7  UNL     1      49.160  46.244  64.905  1.00  0.00     0.005 A 
HETATM    5  C8  UNL     1      48.517  46.160  63.512  1.00  0.00    -0.021 C 
HETATM    6  C9  UNL     1      48.338  47.565  62.953  1.00  0.00     0.017 C 
HETATM    7  C15 UNL     1      49.553  45.383  62.784  1.00  0.00     0.013 C 
HETATM    8  C16 UNL     1      49.502  43.902  63.023  1.00  0.00     0.026 C 
HETATM    9  C17 UNL     1      49.675  45.519  61.307  1.00  0.00    -0.047 C 
HETATM   10  C18 UNL     1      49.042  46.063  60.320  1.00  0.00     0.018 C 
HETATM   11  C19 UNL     1      50.975  44.773  61.018  1.00  0.00     0.154 C 
HETATM   12  C21 UNL     1      51.834  44.993  62.240  1.00  0.00     0.072 C 
HETATM   13  C22 UNL     1      50.983  45.904  63.025  1.00  0.00    -0.053 C 
ENDROOT
BRANCH   1  14
HETATM   14  C3  UNL     1      52.006  45.465  65.304  1.00  0.00     0.186 C 
HETATM   15  O1  UNL     1      51.633  44.300  65.598  1.00  0.00    -0.287 OA
BRANCH  14  16
HETATM   16  C2  UNL     1      53.196  45.844  66.116  1.00  0.00     0.014 C 
HETATM   17  C1  UNL     1      53.837  46.947  65.783  1.00  0.00     0.025 C 
BRANCH  16  18
HETATM   18  C23 UNL     1      53.695  45.066  67.246  1.00  0.00     0.184 C 
HETATM   19  C24 UNL     1      53.008  45.189  68.544  1.00  0.00     0.208 C 
HETATM   20  O5  UNL     1      53.386  46.289  69.294  1.00  0.00    -0.353 OA
HETATM   21  C25 UNL     1      54.734  46.088  69.596  1.00  0.00     0.318 C 
HETATM   22  O6  UNL     1      54.973  44.858  70.195  1.00  0.00    -0.321 OA
HETATM   23  C29 UNL     1      55.565  45.980  68.344  1.00  0.00     0.319 C 
HETATM   24  C26 UNL     1      56.344  44.742  70.057  1.00  0.00     0.163 C 
HETATM   25  C27 UNL     1      56.833  43.314  70.112  1.00  0.00     0.078 C 
HETATM   26  C28 UNL     1      57.084  45.502  71.149  1.00  0.00     0.078 C 
HETATM   27  O7  UNL     1      56.696  45.279  68.848  1.00  0.00    -0.321 OA
HETATM   28  O8  UNL     1      55.041  45.215  67.373  1.00  0.00    -0.344 OA
ENDBRANCH  16  18
ENDBRANCH  14  16
ENDBRANCH   1  14
BRANCH   5  29
HETATM   29  C10 UNL     1      47.189  45.598  63.883  1.00  0.00    -0.008 C 
HETATM   30  C11 UNL     1      46.454  46.645  64.817  1.00  0.00     0.011 C 
BRANCH  29  31
HETATM   31  C12 UNL     1      46.119  45.241  62.971  1.00  0.00     0.015 C 
BRANCH  31  32
HETATM   32  C13 UNL     1      44.794  45.849  62.831  1.00  0.00     0.113 C 
BRANCH  32  33
HETATM   33  C14 UNL     1      44.464  46.220  61.399  1.00  0.00     0.172 C 
HETATM   34  O2  UNL     1      45.208  45.816  60.481  1.00  0.00    -0.648 OA
HETATM   35  O3  UNL     1      43.366  46.990  61.091  1.00  0.00    -0.648 OA
ENDBRANCH  32  33
ENDBRANCH  31  32
ENDBRANCH  29  31
ENDBRANCH   5  29
BRANCH  11  36
HETATM   36  O4  UNL     1      50.792  43.482  60.642  1.00  0.00    -0.386 OA
HETATM   37  C20 UNL     1      51.991  42.871  60.354  1.00  0.00     0.202 C 
ENDBRANCH  11  36
TORSDOF 8
ENDMDL
