MODEL 1
REMARK VINA RESULT: -4.278058319      0.000      0.000
REMARK  2 active torsions:
REMARK  status: ('A' for Active; 'I' for Inactive)
REMARK    1  A    between atoms: C2_2  and  N1_3 
REMARK    2  A    between atoms: C5_9  and  O1_10 
ROOT
HETATM    1  N1  UNL     1      -1.423  16.419  17.809  1.00  0.00    -0.043 N 
HETATM    2  C3  UNL     1      -0.555  17.405  17.244  1.00  0.00     0.274 C 
HETATM    3  C4  UNL     1      -0.900  16.065  19.139  1.00  0.00     0.470 C 
HETATM    4  N2  UNL     1      -1.445  14.721  19.282  1.00  0.00    -0.023 N 
ATOM      5  H21 UNL     1      -2.447  14.672  19.468  1.00  0.00     0.282 HD
ATOM      6  H22 UNL     1      -1.173  14.225  20.131  1.00  0.00     0.282 HD
HETATM    7  C5  UNL     1      -1.009  14.109  18.031  1.00  0.00     0.346 C 
HETATM    8  C6  UNL     1      -1.320  15.204  17.039  1.00  0.00     0.299 C 
ENDROOT
BRANCH   1   9
HETATM    9  C2  UNL     1      -2.776  16.819  17.975  1.00  0.00     0.234 C 
HETATM   10  C1  UNL     1      -3.206  17.983  17.148  1.00  0.00     0.035 C 
ENDBRANCH   1   9
BRANCH   7  11
HETATM   11  O1  UNL     1      -1.769  12.982  17.733  1.00  0.00    -0.368 OA
ATOM     12  H1  UNL     1      -1.355  12.459  17.056  1.00  0.00     0.212 HD
ENDBRANCH   7  11
TORSDOF 2
ENDMDL
MODEL 2
REMARK VINA RESULT: -4.244115797      1.409      2.307
REMARK  2 active torsions:
REMARK  status: ('A' for Active; 'I' for Inactive)
REMARK    1  A    between atoms: C2_2  and  N1_3 
REMARK    2  A    between atoms: C5_9  and  O1_10 
ROOT
HETATM    1  N1  UNL     1      -1.256  16.013  18.268  1.00  0.00    -0.043 N 
HETATM    2  C3  UNL     1      -1.786  16.488  19.508  1.00  0.00     0.274 C 
HETATM    3  C4  UNL     1      -2.388  15.638  17.406  1.00  0.00     0.470 C 
HETATM    4  N2  UNL     1      -1.741  14.658  16.542  1.00  0.00    -0.023 N 
ATOM      5  H21 UNL     1      -1.107  15.042  15.841  1.00  0.00     0.282 HD
ATOM      6  H22 UNL     1      -2.352  14.199  15.866  1.00  0.00     0.282 HD
HETATM    7  C5  UNL     1      -1.126  13.778  17.531  1.00  0.00     0.346 C 
HETATM    8  C6  UNL     1      -0.546  14.780  18.501  1.00  0.00     0.299 C 
ENDROOT
BRANCH   1   9
HETATM    9  C2  UNL     1      -0.461  16.945  17.548  1.00  0.00     0.234 C 
HETATM   10  C1  UNL     1       0.430  17.805  18.379  1.00  0.00     0.035 C 
ENDBRANCH   1   9
BRANCH   7  11
HETATM   11  O1  UNL     1      -0.098  13.030  16.965  1.00  0.00    -0.368 OA
ATOM     12  H1  UNL     1      -0.426  12.461  16.279  1.00  0.00     0.212 HD
ENDBRANCH   7  11
TORSDOF 2
ENDMDL
MODEL 3
REMARK VINA RESULT: -4.217019297      1.501      1.801
REMARK  2 active torsions:
REMARK  status: ('A' for Active; 'I' for Inactive)
REMARK    1  A    between atoms: C2_2  and  N1_3 
REMARK    2  A    between atoms: C5_9  and  O1_10 
ROOT
HETATM    1  N1  UNL     1      -1.164  16.357  17.847  1.00  0.00    -0.043 N 
HETATM    2  C3  UNL     1      -0.067  17.265  17.717  1.00  0.00     0.274 C 
HETATM    3  C4  UNL     1      -0.625  15.054  18.269  1.00  0.00     0.470 C 
HETATM    4  N2  UNL     1      -1.664  14.167  17.762  1.00  0.00    -0.023 N 
ATOM      5  H21 UNL     1      -2.540  14.173  18.286  1.00  0.00     0.282 HD
ATOM      6  H22 UNL     1      -1.491  13.170  17.889  1.00  0.00     0.282 HD
HETATM    7  C5  UNL     1      -1.760  14.614  16.375  1.00  0.00     0.346 C 
HETATM    8  C6  UNL     1      -1.732  16.115  16.544  1.00  0.00     0.299 C 
ENDROOT
BRANCH   1   9
HETATM    9  C2  UNL     1      -2.159  16.733  18.789  1.00  0.00     0.234 C 
HETATM   10  C1  UNL     1      -1.647  17.270  20.082  1.00  0.00     0.035 C 
ENDBRANCH   1   9
BRANCH   7  11
HETATM   11  O1  UNL     1      -2.972  14.232  15.808  1.00  0.00    -0.368 OA
ATOM     12  H1  UNL     1      -2.839  13.819  14.963  1.00  0.00     0.212 HD
ENDBRANCH   7  11
TORSDOF 2
ENDMDL
MODEL 4
REMARK VINA RESULT: -4.166441113      2.221      3.641
REMARK  2 active torsions:
REMARK  status: ('A' for Active; 'I' for Inactive)
REMARK    1  A    between atoms: C2_2  and  N1_3 
REMARK    2  A    between atoms: C5_9  and  O1_10 
ROOT
HETATM    1  N1  UNL     1      -1.779  16.034  17.622  1.00  0.00    -0.043 N 
HETATM    2  C3  UNL     1      -1.384  15.495  18.886  1.00  0.00     0.274 C 
HETATM    3  C4  UNL     1      -0.843  17.118  17.280  1.00  0.00     0.470 C 
HETATM    4  N2  UNL     1      -1.683  17.916  16.396  1.00  0.00    -0.023 N 
ATOM      5  H21 UNL     1      -1.841  17.522  15.468  1.00  0.00     0.282 HD
ATOM      6  H22 UNL     1      -1.263  18.781  16.055  1.00  0.00     0.282 HD
HETATM    7  C5  UNL     1      -2.876  18.081  17.220  1.00  0.00     0.346 C 
HETATM    8  C6  UNL     1      -3.057  16.684  17.765  1.00  0.00     0.299 C 
ENDROOT
BRANCH   1   9
HETATM    9  C2  UNL     1      -1.779  15.114  16.539  1.00  0.00     0.234 C 
HETATM   10  C1  UNL     1      -1.646  13.678  16.919  1.00  0.00     0.035 C 
ENDBRANCH   1   9
BRANCH   7  11
HETATM   11  O1  UNL     1      -3.979  18.423  16.442  1.00  0.00    -0.368 OA
ATOM     12  H1  UNL     1      -3.712  18.714  15.578  1.00  0.00     0.212 HD
ENDBRANCH   7  11
TORSDOF 2
ENDMDL
MODEL 5
REMARK VINA RESULT: -4.066021691      1.392      2.631
REMARK  2 active torsions:
REMARK  status: ('A' for Active; 'I' for Inactive)
REMARK    1  A    between atoms: C2_2  and  N1_3 
REMARK    2  A    between atoms: C5_9  and  O1_10 
ROOT
HETATM    1  N1  UNL     1      -1.337  16.596  18.035  1.00  0.00    -0.043 N 
HETATM    2  C3  UNL     1      -1.724  16.738  19.404  1.00  0.00     0.274 C 
HETATM    3  C4  UNL     1      -2.469  17.026  17.198  1.00  0.00     0.470 C 
HETATM    4  N2  UNL     1      -2.192  16.273  15.981  1.00  0.00    -0.023 N 
ATOM      5  H21 UNL     1      -1.415  16.619  15.418  1.00  0.00     0.282 HD
ATOM      6  H22 UNL     1      -2.887  16.365  15.240  1.00  0.00     0.282 HD
HETATM    7  C5  UNL     1      -2.026  14.926  16.520  1.00  0.00     0.346 C 
HETATM    8  C6  UNL     1      -1.170  15.196  17.735  1.00  0.00     0.299 C 
ENDROOT
BRANCH   1   9
HETATM    9  C2  UNL     1      -0.202  17.354  17.641  1.00  0.00     0.234 C 
HETATM   10  C1  UNL     1       0.628  17.893  18.756  1.00  0.00     0.035 C 
ENDBRANCH   1   9
BRANCH   7  11
HETATM   11  O1  UNL     1      -1.328  14.114  15.631  1.00  0.00    -0.368 OA
ATOM     12  H1  UNL     1      -0.420  14.385  15.560  1.00  0.00     0.212 HD
ENDBRANCH   7  11
TORSDOF 2
ENDMDL
