MODEL 1
REMARK VINA RESULT: -4.347007139      0.000      0.000
REMARK  1 active torsions:
REMARK  status: ('A' for Active; 'I' for Inactive)
REMARK    1  A    between atoms: C2_2  and  N1_3 
ROOT
HETATM    1  N1  UNL     1      -1.546  15.735  17.672  1.00  0.00     0.057 N 
HETATM    2  C3  UNL     1      -0.974  16.946  17.117  1.00  0.00     0.272 C 
HETATM    3  C4  UNL     1      -0.529  17.762  18.336  1.00  0.00     0.082 C 
HETATM    4  C5  UNL     1      -0.921  16.804  19.446  1.00  0.00     0.309 C 
HETATM    5  N2  UNL     1      -0.028  15.689  19.395  1.00  0.00    -0.029 N 
ATOM      6  H21 UNL     1       0.060  15.180  20.274  1.00  0.00     0.281 HD
ATOM      7  H22 UNL     1       0.957  15.942  19.317  1.00  0.00     0.281 HD
HETATM    8  C6  UNL     1      -0.538  14.882  18.273  1.00  0.00     0.498 C 
HETATM    9  N3  UNL     1      -2.151  16.249  18.853  1.00  0.00    -0.007 NA
ENDROOT
BRANCH   1  10
HETATM   10  C2  UNL     1      -2.442  15.080  16.841  1.00  0.00     0.217 C 
HETATM   11  C1  UNL     1      -2.086  14.189  15.955  1.00  0.00     0.039 C 
ENDBRANCH   1  10
TORSDOF 1
ENDMDL
MODEL 2
REMARK VINA RESULT: -4.316693954      1.005      3.292
REMARK  1 active torsions:
REMARK  status: ('A' for Active; 'I' for Inactive)
REMARK    1  A    between atoms: C2_2  and  N1_3 
ROOT
HETATM    1  N1  UNL     1      -1.144  16.465  18.425  1.00  0.00     0.057 N 
HETATM    2  C3  UNL     1      -0.694  15.092  18.314  1.00  0.00     0.272 C 
HETATM    3  C4  UNL     1      -1.695  14.429  17.361  1.00  0.00     0.082 C 
HETATM    4  C5  UNL     1      -2.582  15.619  17.048  1.00  0.00     0.309 C 
HETATM    5  N2  UNL     1      -1.830  16.521  16.233  1.00  0.00    -0.029 N 
ATOM      6  H21 UNL     1      -2.399  17.149  15.665  1.00  0.00     0.281 HD
ATOM      7  H22 UNL     1      -1.344  16.079  15.453  1.00  0.00     0.281 HD
HETATM    8  C6  UNL     1      -0.945  17.205  17.192  1.00  0.00     0.498 C 
HETATM    9  N3  UNL     1      -2.554  16.285  18.363  1.00  0.00    -0.007 NA
ENDROOT
BRANCH   1  10
HETATM   10  C2  UNL     1      -0.729  17.124  19.572  1.00  0.00     0.217 C 
HETATM   11  C1  UNL     1      -1.551  17.644  20.444  1.00  0.00     0.039 C 
ENDBRANCH   1  10
TORSDOF 1
ENDMDL
MODEL 3
REMARK VINA RESULT: -4.160339810      1.284      2.333
REMARK  1 active torsions:
REMARK  status: ('A' for Active; 'I' for Inactive)
REMARK    1  A    between atoms: C2_2  and  N1_3 
ROOT
HETATM    1  N1  UNL     1      -1.426  15.545  17.869  1.00  0.00     0.057 N 
HETATM    2  C3  UNL     1      -1.698  16.132  19.166  1.00  0.00     0.272 C 
HETATM    3  C4  UNL     1      -1.928  17.620  18.880  1.00  0.00     0.082 C 
HETATM    4  C5  UNL     1      -1.768  17.622  17.371  1.00  0.00     0.309 C 
HETATM    5  N2  UNL     1      -2.901  16.953  16.811  1.00  0.00    -0.029 N 
ATOM      6  H21 UNL     1      -3.101  17.203  15.843  1.00  0.00     0.281 HD
ATOM      7  H22 UNL     1      -3.798  17.257  17.190  1.00  0.00     0.281 HD
HETATM    8  C6  UNL     1      -2.604  15.526  17.022  1.00  0.00     0.498 C 
HETATM    9  N3  UNL     1      -0.709  16.605  17.247  1.00  0.00    -0.007 NA
ENDROOT
BRANCH   1  10
HETATM   10  C2  UNL     1      -0.716  14.354  17.905  1.00  0.00     0.217 C 
HETATM   11  C1  UNL     1      -0.963  13.342  17.117  1.00  0.00     0.039 C 
ENDBRANCH   1  10
TORSDOF 1
ENDMDL
MODEL 4
REMARK VINA RESULT: -4.116763576      1.228      1.974
REMARK  1 active torsions:
REMARK  status: ('A' for Active; 'I' for Inactive)
REMARK    1  A    between atoms: C2_2  and  N1_3 
ROOT
HETATM    1  N1  UNL     1      -1.699  15.750  17.249  1.00  0.00     0.057 N 
HETATM    2  C3  UNL     1      -0.923  15.253  18.367  1.00  0.00     0.272 C 
HETATM    3  C4  UNL     1      -0.298  16.505  18.995  1.00  0.00     0.082 C 
HETATM    4  C5  UNL     1      -0.886  17.570  18.089  1.00  0.00     0.309 C 
HETATM    5  N2  UNL     1      -2.283  17.664  18.376  1.00  0.00    -0.029 N 
ATOM      6  H21 UNL     1      -2.705  18.557  18.123  1.00  0.00     0.281 HD
ATOM      7  H22 UNL     1      -2.506  17.716  19.370  1.00  0.00     0.281 HD
HETATM    8  C6  UNL     1      -2.862  16.500  17.684  1.00  0.00     0.498 C 
HETATM    9  N3  UNL     1      -0.876  16.827  16.816  1.00  0.00    -0.007 NA
ENDROOT
BRANCH   1  10
HETATM   10  C2  UNL     1      -1.947  14.819  16.252  1.00  0.00     0.217 C 
HETATM   11  C1  UNL     1      -1.612  13.559  16.341  1.00  0.00     0.039 C 
ENDBRANCH   1  10
TORSDOF 1
ENDMDL
MODEL 5
REMARK VINA RESULT: -4.096663628      1.132      2.774
REMARK  1 active torsions:
REMARK  status: ('A' for Active; 'I' for Inactive)
REMARK    1  A    between atoms: C2_2  and  N1_3 
ROOT
HETATM    1  N1  UNL     1      -1.354  16.107  17.816  1.00  0.00     0.057 N 
HETATM    2  C3  UNL     1      -2.069  15.113  17.040  1.00  0.00     0.272 C 
HETATM    3  C4  UNL     1      -1.591  13.767  17.597  1.00  0.00     0.082 C 
HETATM    4  C5  UNL     1      -0.650  14.254  18.682  1.00  0.00     0.309 C 
HETATM    5  N2  UNL     1      -1.444  14.829  19.723  1.00  0.00    -0.029 N 
ATOM      6  H21 UNL     1      -0.990  14.851  20.635  1.00  0.00     0.281 HD
ATOM      7  H22 UNL     1      -2.239  14.258  20.010  1.00  0.00     0.281 HD
HETATM    8  C6  UNL     1      -1.809  16.155  19.193  1.00  0.00     0.498 C 
HETATM    9  N3  UNL     1      -0.108  15.446  18.005  1.00  0.00    -0.007 NA
ENDROOT
BRANCH   1  10
HETATM   10  C2  UNL     1      -1.227  17.344  17.203  1.00  0.00     0.217 C 
HETATM   11  C1  UNL     1      -0.139  18.066  17.252  1.00  0.00     0.039 C 
ENDBRANCH   1  10
TORSDOF 1
ENDMDL
