MODEL 1
REMARK VINA RESULT: -8.877936057      0.000      0.000
REMARK  12 active torsions:
REMARK  status: ('A' for Active; 'I' for Inactive)
REMARK    1  A    between atoms: C2_2  and  C3_3 
REMARK    2  A    between atoms: C2_2  and  N1_6 
REMARK    3  A    between atoms: N1_6  and  C4_7 
REMARK    4  A    between atoms: N1_6  and  C6_11 
REMARK    5  A    between atoms: C4_7  and  C5_8 
REMARK    6  A    between atoms: C5_8  and  O3_9 
REMARK    7  A    between atoms: C6_11  and  C7_12 
REMARK    8  A    between atoms: C8_15  and  N3_16 
REMARK    9  A    between atoms: C9_19  and  N5_20 
REMARK   10  A    between atoms: C12_23  and  N6_24 
REMARK   11  A    between atoms: C14_31  and  C15_32 
REMARK   12  A    between atoms: C16_38  and  N10_39 
ROOT
HETATM    1  C7  UNL     1      30.654   2.631  13.178  1.00  0.00     0.082 A 
HETATM    2  N2  UNL     1      30.969   1.575  13.940  1.00  0.00    -0.189 N 
ATOM      3  H2  UNL     1      31.952   1.378  14.127  1.00  0.00     0.184 HD
HETATM    4  C8  UNL     1      30.025   0.759  14.473  1.00  0.00     0.708 A 
HETATM    5  N11 UNL     1      28.743   1.061  14.191  1.00  0.00    -0.172 N 
ATOM      6  H11 UNL     1      28.017   0.460  14.578  1.00  0.00     0.186 HD
HETATM    7  C17 UNL     1      28.355   2.111  13.427  1.00  0.00     0.160 A 
HETATM    8  N12 UNL     1      27.203   2.639  12.986  1.00  0.00    -0.305 N 
ATOM      9  H12 UNL     1      26.277   2.269  13.196  1.00  0.00     0.171 HD
HETATM   10  C18 UNL     1      27.443   3.731  12.222  1.00  0.00     0.224 A 
HETATM   11  N13 UNL     1      26.568   4.493  11.628  1.00  0.00    -0.365 N 
ATOM     12 1H13 UNL     1      26.749   5.316  11.052  1.00  0.00     0.159 HD
ATOM     13 2H13 UNL     1      25.553   4.389  11.643  1.00  0.00     0.159 HD
HETATM   14  O5  UNL     1      28.745   3.865  12.202  1.00  0.00    -0.274 OA
HETATM   15  C19 UNL     1      29.345   2.929  12.901  1.00  0.00     0.148 A 
ENDROOT
BRANCH   4  16
HETATM   16  N3  UNL     1      30.388  -0.332  15.309  1.00  0.00    -0.052 N 
HETATM   17  N4  UNL     1      29.937  -0.513  16.528  1.00  0.00    -0.109 N 
HETATM   18  C9  UNL     1      30.419  -1.632  17.084  1.00  0.00     0.697 A 
ATOM     19  H4  UNL     1      29.294   0.124  16.998  1.00  0.00     0.207 HD
HETATM   20  N7  UNL     1      31.216  -2.191  16.174  1.00  0.00    -0.170 N 
HETATM   21  C14 UNL     1      31.191  -1.379  15.077  1.00  0.00     0.193 A 
ATOM     22  H7  UNL     1      31.743  -3.058  16.277  1.00  0.00     0.186 HD
BRANCH  18  23
HETATM   23  N5  UNL     1      30.147  -2.133  18.413  1.00  0.00    -0.214 N 
HETATM   24  C10 UNL     1      28.823  -2.071  19.021  1.00  0.00     0.143 C 
HETATM   25  C11 UNL     1      28.974  -2.752  20.342  1.00  0.00     0.055 C 
HETATM   26  C12 UNL     1      30.430  -2.600  20.666  1.00  0.00     0.203 C 
HETATM   27  C13 UNL     1      31.092  -2.721  19.294  1.00  0.00     0.174 C 
BRANCH  26  28
HETATM   28  N6  UNL     1      30.656  -1.260  21.199  1.00  0.00    -0.073 N 
ATOM     29  H63 UNL     1      30.341  -0.529  20.562  1.00  0.00     0.274 HD
ATOM     30  H62 UNL     1      30.038  -1.043  21.981  1.00  0.00     0.274 HD
ATOM     31  H61 UNL     1      31.642  -1.166  21.444  1.00  0.00     0.274 HD
ENDBRANCH  26  28
ENDBRANCH  18  23
BRANCH  21  32
HETATM   32  C15 UNL     1      31.917  -1.623  13.836  1.00  0.00     0.148 A 
HETATM   33  N8  UNL     1      31.510  -2.375  12.815  1.00  0.00    -0.234 N 
HETATM   34  O4  UNL     1      32.417  -2.374  11.869  1.00  0.00    -0.155 OA
ATOM     35  H8  UNL     1      30.623  -2.878  12.775  1.00  0.00     0.197 HD
HETATM   36  N9  UNL     1      33.441  -1.649  12.203  1.00  0.00    -0.224 N 
HETATM   37  C16 UNL     1      33.164  -1.150  13.451  1.00  0.00     0.154 A 
ATOM     38  H9  UNL     1      34.282  -1.483  11.649  1.00  0.00     0.198 HD
BRANCH  37  39
HETATM   39  N10 UNL     1      33.937  -0.399  14.133  1.00  0.00    -0.382 N 
ATOM     40 2H10 UNL     1      33.867  -0.239  15.138  1.00  0.00     0.157 HD
ATOM     41 1H10 UNL     1      34.716   0.155  13.778  1.00  0.00     0.157 HD
ENDBRANCH  37  39
ENDBRANCH  21  32
ENDBRANCH   4  16
BRANCH   1  42
HETATM   42  C6  UNL     1      31.720   3.550  12.720  1.00  0.00     0.183 C 
BRANCH  42  43
HETATM   43  N1  UNL     1      32.629   3.009  11.771  1.00  0.00    -0.371 N 
BRANCH  43  44
HETATM   44  C2  UNL     1      33.853   2.474  12.199  1.00  0.00     0.081 C 
HETATM   45  C1  UNL     1      34.731   2.028  11.022  1.00  0.00     0.075 C 
BRANCH  44  46
HETATM   46  C3  UNL     1      34.611   3.139  13.235  1.00  0.00     0.222 C 
HETATM   47  O1  UNL     1      34.602   2.787  14.440  1.00  0.00    -0.643 OA
HETATM   48  O2  UNL     1      35.422   4.251  12.917  1.00  0.00    -0.643 OA
ENDBRANCH  44  46
ENDBRANCH  43  44
BRANCH  43  49
HETATM   49  C4  UNL     1      32.519   3.563  10.469  1.00  0.00     0.149 C 
BRANCH  49  50
HETATM   50  C5  UNL     1      31.749   4.834  10.323  1.00  0.00     0.183 C 
BRANCH  50  51
HETATM   51  O3  UNL     1      30.476   4.584   9.751  1.00  0.00    -0.399 OA
ATOM     52  H3  UNL     1      30.033   5.399   9.551  1.00  0.00     0.209 HD
ENDBRANCH  50  51
ENDBRANCH  49  50
ENDBRANCH  43  49
ENDBRANCH  42  43
ENDBRANCH   1  42
TORSDOF 12
ENDMDL
MODEL 2
REMARK VINA RESULT: -8.585343997      2.915      7.716
REMARK  12 active torsions:
REMARK  status: ('A' for Active; 'I' for Inactive)
REMARK    1  A    between atoms: C2_2  and  C3_3 
REMARK    2  A    between atoms: C2_2  and  N1_6 
REMARK    3  A    between atoms: N1_6  and  C4_7 
REMARK    4  A    between atoms: N1_6  and  C6_11 
REMARK    5  A    between atoms: C4_7  and  C5_8 
REMARK    6  A    between atoms: C5_8  and  O3_9 
REMARK    7  A    between atoms: C6_11  and  C7_12 
REMARK    8  A    between atoms: C8_15  and  N3_16 
REMARK    9  A    between atoms: C9_19  and  N5_20 
REMARK   10  A    between atoms: C12_23  and  N6_24 
REMARK   11  A    between atoms: C14_31  and  C15_32 
REMARK   12  A    between atoms: C16_38  and  N10_39 
ROOT
HETATM    1  C7  UNL     1      29.714  -2.620  16.927  1.00  0.00     0.082 A 
HETATM    2  N2  UNL     1      30.003  -1.702  15.996  1.00  0.00    -0.189 N 
ATOM      3  H2  UNL     1      30.388  -2.009  15.103  1.00  0.00     0.184 HD
HETATM    4  C8  UNL     1      29.801  -0.376  16.201  1.00  0.00     0.708 A 
HETATM    5  N11 UNL     1      29.296  -0.024  17.398  1.00  0.00    -0.172 N 
ATOM      6  H11 UNL     1      29.138   0.968  17.575  1.00  0.00     0.186 HD
HETATM    7  C17 UNL     1      28.983  -0.900  18.384  1.00  0.00     0.160 A 
HETATM    8  N12 UNL     1      28.491  -0.849  19.631  1.00  0.00    -0.305 N 
ATOM      9  H12 UNL     1      28.226   0.008  20.116  1.00  0.00     0.171 HD
HETATM   10  C18 UNL     1      28.397  -2.094  20.155  1.00  0.00     0.224 A 
HETATM   11  N13 UNL     1      27.965  -2.427  21.340  1.00  0.00    -0.365 N 
ATOM     12 1H13 UNL     1      27.894  -3.365  21.735  1.00  0.00     0.159 HD
ATOM     13 2H13 UNL     1      27.625  -1.798  22.067  1.00  0.00     0.159 HD
HETATM   14  O5  UNL     1      28.833  -2.902  19.222  1.00  0.00    -0.274 OA
HETATM   15  C19 UNL     1      29.198  -2.249  18.142  1.00  0.00     0.148 A 
ENDROOT
BRANCH   4  16
HETATM   16  N3  UNL     1      30.081   0.573  15.179  1.00  0.00    -0.052 N 
HETATM   17  N4  UNL     1      29.172   1.298  14.572  1.00  0.00    -0.109 N 
HETATM   18  C9  UNL     1      29.708   2.129  13.669  1.00  0.00     0.697 A 
ATOM     19  H4  UNL     1      28.172   1.236  14.764  1.00  0.00     0.207 HD
HETATM   20  N7  UNL     1      31.025   1.923  13.704  1.00  0.00    -0.170 N 
HETATM   21  C14 UNL     1      31.247   0.958  14.642  1.00  0.00     0.193 A 
ATOM     22  H7  UNL     1      31.730   2.396  13.139  1.00  0.00     0.186 HD
BRANCH  18  23
HETATM   23  N5  UNL     1      29.006   3.057  12.812  1.00  0.00    -0.214 N 
HETATM   24  C10 UNL     1      29.692   4.080  12.031  1.00  0.00     0.143 C 
HETATM   25  C11 UNL     1      28.613   4.757  11.249  1.00  0.00     0.055 C 
HETATM   26  C12 UNL     1      27.375   4.524  12.062  1.00  0.00     0.203 C 
HETATM   27  C13 UNL     1      27.601   3.121  12.623  1.00  0.00     0.174 C 
BRANCH  26  28
HETATM   28  N6  UNL     1      27.345   5.488  13.159  1.00  0.00    -0.073 N 
ATOM     29  H63 UNL     1      26.564   6.140  13.084  1.00  0.00     0.274 HD
ATOM     30  H62 UNL     1      27.088   5.059  14.048  1.00  0.00     0.274 HD
ATOM     31  H61 UNL     1      28.247   5.963  13.202  1.00  0.00     0.274 HD
ENDBRANCH  26  28
ENDBRANCH  18  23
BRANCH  21  32
HETATM   32  C15 UNL     1      32.556   0.435  15.015  1.00  0.00     0.148 A 
HETATM   33  N8  UNL     1      33.187   0.629  16.172  1.00  0.00    -0.234 N 
HETATM   34  O4  UNL     1      34.346   0.018  16.158  1.00  0.00    -0.155 OA
ATOM     35  H8  UNL     1      32.822   1.173  16.954  1.00  0.00     0.197 HD
HETATM   36  N9  UNL     1      34.541  -0.591  15.027  1.00  0.00    -0.224 N 
HETATM   37  C16 UNL     1      33.423  -0.351  14.268  1.00  0.00     0.154 A 
ATOM     38  H9  UNL     1      35.360  -1.137  14.759  1.00  0.00     0.198 HD
BRANCH  37  39
HETATM   39  N10 UNL     1      33.238  -0.769  13.078  1.00  0.00    -0.382 N 
ATOM     40 2H10 UNL     1      33.567  -1.661  12.708  1.00  0.00     0.157 HD
ATOM     41 1H10 UNL     1      32.755  -0.275  12.327  1.00  0.00     0.157 HD
ENDBRANCH  37  39
ENDBRANCH  21  32
ENDBRANCH   4  16
BRANCH   1  42
HETATM   42  C6  UNL     1      29.849  -4.059  16.606  1.00  0.00     0.183 C 
BRANCH  42  43
HETATM   43  N1  UNL     1      31.057  -4.431  15.955  1.00  0.00    -0.371 N 
BRANCH  43  44
HETATM   44  C2  UNL     1      31.012  -5.172  14.765  1.00  0.00     0.081 C 
HETATM   45  C1  UNL     1      29.889  -6.217  14.778  1.00  0.00     0.075 C 
BRANCH  44  46
HETATM   46  C3  UNL     1      31.131  -4.502  13.490  1.00  0.00     0.222 C 
HETATM   47  O1  UNL     1      31.003  -5.082  12.383  1.00  0.00    -0.643 OA
HETATM   48  O2  UNL     1      31.406  -3.118  13.439  1.00  0.00    -0.643 OA
ENDBRANCH  44  46
ENDBRANCH  43  44
BRANCH  43  49
HETATM   49  C4  UNL     1      32.177  -4.551  16.818  1.00  0.00     0.149 C 
BRANCH  49  50
HETATM   50  C5  UNL     1      33.327  -3.627  16.588  1.00  0.00     0.183 C 
BRANCH  50  51
HETATM   51  O3  UNL     1      33.037  -2.333  17.092  1.00  0.00    -0.399 OA
ATOM     52  H3  UNL     1      32.123  -2.269  17.341  1.00  0.00     0.209 HD
ENDBRANCH  50  51
ENDBRANCH  49  50
ENDBRANCH  43  49
ENDBRANCH  42  43
ENDBRANCH   1  42
TORSDOF 12
ENDMDL
MODEL 3
REMARK VINA RESULT: -8.577597998      3.118      7.589
REMARK  12 active torsions:
REMARK  status: ('A' for Active; 'I' for Inactive)
REMARK    1  A    between atoms: C2_2  and  C3_3 
REMARK    2  A    between atoms: C2_2  and  N1_6 
REMARK    3  A    between atoms: N1_6  and  C4_7 
REMARK    4  A    between atoms: N1_6  and  C6_11 
REMARK    5  A    between atoms: C4_7  and  C5_8 
REMARK    6  A    between atoms: C5_8  and  O3_9 
REMARK    7  A    between atoms: C6_11  and  C7_12 
REMARK    8  A    between atoms: C8_15  and  N3_16 
REMARK    9  A    between atoms: C9_19  and  N5_20 
REMARK   10  A    between atoms: C12_23  and  N6_24 
REMARK   11  A    between atoms: C14_31  and  C15_32 
REMARK   12  A    between atoms: C16_38  and  N10_39 
ROOT
HETATM    1  C7  UNL     1      32.957  -1.118  14.184  1.00  0.00     0.082 A 
HETATM    2  N2  UNL     1      32.657  -0.073  13.402  1.00  0.00    -0.189 N 
ATOM      3  H2  UNL     1      32.544  -0.224  12.399  1.00  0.00     0.184 HD
HETATM    4  C8  UNL     1      32.499   1.180  13.897  1.00  0.00     0.708 A 
HETATM    5  N11 UNL     1      32.664   1.325  15.225  1.00  0.00    -0.172 N 
ATOM      6  H11 UNL     1      32.553   2.258  15.620  1.00  0.00     0.186 HD
HETATM    7  C17 UNL     1      32.970   0.312  16.073  1.00  0.00     0.160 A 
HETATM    8  N12 UNL     1      33.193   0.158  17.387  1.00  0.00    -0.305 N 
ATOM      9  H12 UNL     1      33.158   0.910  18.074  1.00  0.00     0.171 HD
HETATM   10  C18 UNL     1      33.470  -1.137  17.672  1.00  0.00     0.224 A 
HETATM   11  N13 UNL     1      33.740  -1.653  18.839  1.00  0.00    -0.365 N 
ATOM     12 1H13 UNL     1      33.949  -2.628  19.054  1.00  0.00     0.159 HD
ATOM     13 2H13 UNL     1      33.784  -1.162  19.731  1.00  0.00     0.159 HD
HETATM   14  O5  UNL     1      33.414  -1.768  16.527  1.00  0.00    -0.274 OA
HETATM   15  C19 UNL     1      33.121  -0.958  15.535  1.00  0.00     0.148 A 
ENDROOT
BRANCH   4  16
HETATM   16  N3  UNL     1      32.143   2.263  13.047  1.00  0.00    -0.052 N 
HETATM   17  N4  UNL     1      30.998   2.902  13.101  1.00  0.00    -0.109 N 
HETATM   18  C9  UNL     1      30.930   3.896  12.207  1.00  0.00     0.697 A 
ATOM     19  H4  UNL     1      30.246   2.669  13.750  1.00  0.00     0.207 HD
HETATM   20  N7  UNL     1      32.090   3.889  11.550  1.00  0.00    -0.170 N 
HETATM   21  C14 UNL     1      32.835   2.875  12.077  1.00  0.00     0.193 A 
ATOM     22  H7  UNL     1      32.368   4.521  10.799  1.00  0.00     0.186 HD
BRANCH  18  23
HETATM   23  N5  UNL     1      29.819   4.792  11.980  1.00  0.00    -0.214 N 
HETATM   24  C10 UNL     1      29.890   6.221  12.265  1.00  0.00     0.143 C 
HETATM   25  C11 UNL     1      28.571   6.767  11.825  1.00  0.00     0.055 C 
HETATM   26  C12 UNL     1      27.644   5.591  11.907  1.00  0.00     0.203 C 
HETATM   27  C13 UNL     1      28.540   4.429  11.483  1.00  0.00     0.174 C 
BRANCH  26  28
HETATM   28  N6  UNL     1      27.237   5.410  13.297  1.00  0.00    -0.073 N 
ATOM     29  H63 UNL     1      27.722   4.635  13.748  1.00  0.00     0.274 HD
ATOM     30  H62 UNL     1      27.573   6.159  13.903  1.00  0.00     0.274 HD
ATOM     31  H61 UNL     1      26.223   5.308  13.331  1.00  0.00     0.274 HD
ENDBRANCH  26  28
ENDBRANCH  18  23
BRANCH  21  32
HETATM   32  C15 UNL     1      34.186   2.520  11.659  1.00  0.00     0.148 A 
HETATM   33  N8  UNL     1      34.537   1.464  10.926  1.00  0.00    -0.234 N 
HETATM   34  O4  UNL     1      35.835   1.455  10.747  1.00  0.00    -0.155 OA
ATOM     35  H8  UNL     1      33.891   0.766  10.558  1.00  0.00     0.197 HD
HETATM   36  N9  UNL     1      36.396   2.468  11.335  1.00  0.00    -0.224 N 
HETATM   37  C16 UNL     1      35.381   3.175  11.929  1.00  0.00     0.154 A 
ATOM     38  H9  UNL     1      37.392   2.693  11.351  1.00  0.00     0.198 HD
BRANCH  37  39
HETATM   39  N10 UNL     1      35.527   4.235  12.621  1.00  0.00    -0.382 N 
ATOM     40 2H10 UNL     1      36.243   4.946  12.467  1.00  0.00     0.157 HD
ATOM     41 1H10 UNL     1      34.971   4.517  13.428  1.00  0.00     0.157 HD
ENDBRANCH  37  39
ENDBRANCH  21  32
ENDBRANCH   4  16
BRANCH   1  42
HETATM   42  C6  UNL     1      33.006  -2.480  13.604  1.00  0.00     0.183 C 
BRANCH  42  43
HETATM   43  N1  UNL     1      34.062  -2.715  12.682  1.00  0.00    -0.371 N 
BRANCH  43  44
HETATM   44  C2  UNL     1      33.867  -3.588  11.601  1.00  0.00     0.081 C 
HETATM   45  C1  UNL     1      34.821  -4.788  11.649  1.00  0.00     0.075 C 
BRANCH  44  46
HETATM   46  C3  UNL     1      32.528  -3.960  11.203  1.00  0.00     0.222 C 
HETATM   47  O1  UNL     1      31.963  -5.022  11.565  1.00  0.00    -0.643 OA
HETATM   48  O2  UNL     1      31.776  -3.109  10.362  1.00  0.00    -0.643 OA
ENDBRANCH  44  46
ENDBRANCH  43  44
BRANCH  43  49
HETATM   49  C4  UNL     1      35.363  -2.543  13.222  1.00  0.00     0.149 C 
BRANCH  49  50
HETATM   50  C5  UNL     1      36.228  -1.488  12.614  1.00  0.00     0.183 C 
BRANCH  50  51
HETATM   51  O3  UNL     1      35.837  -0.201  13.065  1.00  0.00    -0.399 OA
ATOM     52  H3  UNL     1      36.294   0.025  13.866  1.00  0.00     0.209 HD
ENDBRANCH  50  51
ENDBRANCH  49  50
ENDBRANCH  43  49
ENDBRANCH  42  43
ENDBRANCH   1  42
TORSDOF 12
ENDMDL
MODEL 4
REMARK VINA RESULT: -8.491548021      2.620      6.315
REMARK  12 active torsions:
REMARK  status: ('A' for Active; 'I' for Inactive)
REMARK    1  A    between atoms: C2_2  and  C3_3 
REMARK    2  A    between atoms: C2_2  and  N1_6 
REMARK    3  A    between atoms: N1_6  and  C4_7 
REMARK    4  A    between atoms: N1_6  and  C6_11 
REMARK    5  A    between atoms: C4_7  and  C5_8 
REMARK    6  A    between atoms: C5_8  and  O3_9 
REMARK    7  A    between atoms: C6_11  and  C7_12 
REMARK    8  A    between atoms: C8_15  and  N3_16 
REMARK    9  A    between atoms: C9_19  and  N5_20 
REMARK   10  A    between atoms: C12_23  and  N6_24 
REMARK   11  A    between atoms: C14_31  and  C15_32 
REMARK   12  A    between atoms: C16_38  and  N10_39 
ROOT
HETATM    1  C7  UNL     1      29.622   1.018  14.905  1.00  0.00     0.082 A 
HETATM    2  N2  UNL     1      30.555   0.493  14.101  1.00  0.00    -0.189 N 
ATOM      3  H2  UNL     1      30.706   0.910  13.182  1.00  0.00     0.184 HD
HETATM    4  C8  UNL     1      31.307  -0.576  14.466  1.00  0.00     0.708 A 
HETATM    5  N11 UNL     1      31.064  -1.091  15.686  1.00  0.00    -0.172 N 
ATOM      6  H11 UNL     1      31.616  -1.896  15.981  1.00  0.00     0.186 HD
HETATM    7  C17 UNL     1      30.135  -0.611  16.549  1.00  0.00     0.160 A 
HETATM    8  N12 UNL     1      29.682  -0.905  17.776  1.00  0.00    -0.305 N 
ATOM      9  H12 UNL     1      30.029  -1.669  18.356  1.00  0.00     0.171 HD
HETATM   10  C18 UNL     1      28.699  -0.046  18.138  1.00  0.00     0.224 A 
HETATM   11  N13 UNL     1      28.029  -0.030  19.256  1.00  0.00    -0.365 N 
ATOM     12 1H13 UNL     1      27.289   0.617  19.528  1.00  0.00     0.159 HD
ATOM     13 2H13 UNL     1      28.139  -0.667  20.045  1.00  0.00     0.159 HD
HETATM   14  O5  UNL     1      28.558   0.772  17.125  1.00  0.00    -0.274 OA
HETATM   15  C19 UNL     1      29.386   0.486  16.146  1.00  0.00     0.148 A 
ENDROOT
BRANCH   4  16
HETATM   16  N3  UNL     1      32.317  -1.088  13.606  1.00  0.00    -0.052 N 
HETATM   17  N4  UNL     1      32.310  -2.297  13.094  1.00  0.00    -0.109 N 
HETATM   18  C9  UNL     1      33.365  -2.515  12.299  1.00  0.00     0.697 A 
ATOM     19  H4  UNL     1      31.586  -2.990  13.280  1.00  0.00     0.207 HD
HETATM   20  N7  UNL     1      34.079  -1.388  12.304  1.00  0.00    -0.170 N 
HETATM   21  C14 UNL     1      33.422  -0.510  13.116  1.00  0.00     0.193 A 
ATOM     22  H7  UNL     1      34.948  -1.216  11.799  1.00  0.00     0.186 HD
BRANCH  18  23
HETATM   23  N5  UNL     1      33.684  -3.730  11.585  1.00  0.00    -0.214 N 
HETATM   24  C10 UNL     1      32.785  -4.878  11.545  1.00  0.00     0.143 C 
HETATM   25  C11 UNL     1      33.463  -5.868  10.655  1.00  0.00     0.055 C 
HETATM   26  C12 UNL     1      34.916  -5.509  10.752  1.00  0.00     0.203 C 
HETATM   27  C13 UNL     1      34.877  -3.985  10.860  1.00  0.00     0.174 C 
BRANCH  26  28
HETATM   28  N6  UNL     1      35.458  -6.071  11.985  1.00  0.00    -0.073 N 
ATOM     29  H63 UNL     1      34.887  -5.847  12.800  1.00  0.00     0.274 HD
ATOM     30  H62 UNL     1      35.366  -7.086  12.024  1.00  0.00     0.274 HD
ATOM     31  H61 UNL     1      36.424  -5.763  12.089  1.00  0.00     0.274 HD
ENDBRANCH  26  28
ENDBRANCH  18  23
BRANCH  21  32
HETATM   32  C15 UNL     1      33.850   0.855  13.397  1.00  0.00     0.148 A 
HETATM   33  N8  UNL     1      34.243   1.335  14.576  1.00  0.00    -0.234 N 
HETATM   34  O4  UNL     1      34.549   2.605  14.462  1.00  0.00    -0.155 OA
ATOM     35  H8  UNL     1      34.297   0.795  15.440  1.00  0.00     0.197 HD
HETATM   36  N9  UNL     1      34.378   3.020  13.244  1.00  0.00    -0.224 N 
HETATM   37  C16 UNL     1      33.933   1.936  12.530  1.00  0.00     0.154 A 
ATOM     38  H9  UNL     1      34.542   3.963  12.889  1.00  0.00     0.198 HD
BRANCH  37  39
HETATM   39  N10 UNL     1      33.633   1.942  11.290  1.00  0.00    -0.382 N 
ATOM     40 2H10 UNL     1      33.059   1.243  10.819  1.00  0.00     0.157 HD
ATOM     41 1H10 UNL     1      33.932   2.626  10.596  1.00  0.00     0.157 HD
ENDBRANCH  37  39
ENDBRANCH  21  32
ENDBRANCH   4  16
BRANCH   1  42
HETATM   42  C6  UNL     1      28.912   2.252  14.499  1.00  0.00     0.183 C 
BRANCH  42  43
HETATM   43  N1  UNL     1      28.149   2.154  13.303  1.00  0.00    -0.371 N 
BRANCH  43  44
HETATM   44  C2  UNL     1      28.362   3.066  12.259  1.00  0.00     0.081 C 
HETATM   45  C1  UNL     1      27.111   3.903  11.960  1.00  0.00     0.075 C 
BRANCH  44  46
HETATM   46  C3  UNL     1      29.576   3.850  12.218  1.00  0.00     0.222 C 
HETATM   47  O1  UNL     1      29.594   5.103  12.149  1.00  0.00    -0.643 OA
HETATM   48  O2  UNL     1      30.835   3.209  12.257  1.00  0.00    -0.643 OA
ENDBRANCH  44  46
ENDBRANCH  43  44
BRANCH  43  49
HETATM   49  C4  UNL     1      26.872   1.559  13.469  1.00  0.00     0.149 C 
BRANCH  49  50
HETATM   50  C5  UNL     1      26.043   2.013  14.626  1.00  0.00     0.183 C 
BRANCH  50  51
HETATM   51  O3  UNL     1      25.967   0.998  15.614  1.00  0.00    -0.399 OA
ATOM     52  H3  UNL     1      26.279   1.322  16.450  1.00  0.00     0.209 HD
ENDBRANCH  50  51
ENDBRANCH  49  50
ENDBRANCH  43  49
ENDBRANCH  42  43
ENDBRANCH   1  42
TORSDOF 12
ENDMDL
MODEL 5
REMARK VINA RESULT: -8.424561694      3.352      7.102
REMARK  12 active torsions:
REMARK  status: ('A' for Active; 'I' for Inactive)
REMARK    1  A    between atoms: C2_2  and  C3_3 
REMARK    2  A    between atoms: C2_2  and  N1_6 
REMARK    3  A    between atoms: N1_6  and  C4_7 
REMARK    4  A    between atoms: N1_6  and  C6_11 
REMARK    5  A    between atoms: C4_7  and  C5_8 
REMARK    6  A    between atoms: C5_8  and  O3_9 
REMARK    7  A    between atoms: C6_11  and  C7_12 
REMARK    8  A    between atoms: C8_15  and  N3_16 
REMARK    9  A    between atoms: C9_19  and  N5_20 
REMARK   10  A    between atoms: C12_23  and  N6_24 
REMARK   11  A    between atoms: C14_31  and  C15_32 
REMARK   12  A    between atoms: C16_38  and  N10_39 
ROOT
HETATM    1  C7  UNL     1      30.650   0.337  16.696  1.00  0.00     0.082 A 
HETATM    2  N2  UNL     1      31.574  -0.144  15.854  1.00  0.00    -0.189 N 
ATOM      3  H2  UNL     1      32.505  -0.356  16.212  1.00  0.00     0.184 HD
HETATM    4  C8  UNL     1      31.314  -0.358  14.540  1.00  0.00     0.708 A 
HETATM    5  N11 UNL     1      30.071  -0.056  14.118  1.00  0.00    -0.172 N 
ATOM      6  H11 UNL     1      29.854  -0.207  13.133  1.00  0.00     0.186 HD
HETATM    7  C17 UNL     1      29.090   0.434  14.914  1.00  0.00     0.160 A 
HETATM    8  N12 UNL     1      27.812   0.818  14.784  1.00  0.00    -0.305 N 
ATOM      9  H12 UNL     1      27.284   0.793  13.912  1.00  0.00     0.171 HD
HETATM   10  C18 UNL     1      27.320   1.242  15.973  1.00  0.00     0.224 A 
HETATM   11  N13 UNL     1      26.120   1.687  16.223  1.00  0.00    -0.365 N 
ATOM     12 1H13 UNL     1      25.750   2.006  17.118  1.00  0.00     0.159 HD
ATOM     13 2H13 UNL     1      25.353   1.787  15.558  1.00  0.00     0.159 HD
HETATM   14  O5  UNL     1      28.305   1.113  16.825  1.00  0.00    -0.274 OA
HETATM   15  C19 UNL     1      29.388   0.637  16.254  1.00  0.00     0.148 A 
ENDROOT
BRANCH   4  16
HETATM   16  N3  UNL     1      32.304  -0.904  13.677  1.00  0.00    -0.052 N 
HETATM   17  N4  UNL     1      32.280  -2.128  13.205  1.00  0.00    -0.109 N 
HETATM   18  C9  UNL     1      33.319  -2.378  12.397  1.00  0.00     0.697 A 
ATOM     19  H4  UNL     1      31.555  -2.810  13.427  1.00  0.00     0.207 HD
HETATM   20  N7  UNL     1      34.039  -1.257  12.353  1.00  0.00    -0.170 N 
HETATM   21  C14 UNL     1      33.403  -0.350  13.148  1.00  0.00     0.193 A 
ATOM     22  H7  UNL     1      34.899  -1.107  11.826  1.00  0.00     0.186 HD
BRANCH  18  23
HETATM   23  N5  UNL     1      33.616  -3.618  11.716  1.00  0.00    -0.214 N 
HETATM   24  C10 UNL     1      32.730  -4.775  11.765  1.00  0.00     0.143 C 
HETATM   25  C11 UNL     1      33.375  -5.793  10.883  1.00  0.00     0.055 C 
HETATM   26  C12 UNL     1      34.826  -5.417  10.894  1.00  0.00     0.203 C 
HETATM   27  C13 UNL     1      34.775  -3.890  10.944  1.00  0.00     0.174 C 
BRANCH  26  28
HETATM   28  N6  UNL     1      35.434  -5.924  12.121  1.00  0.00    -0.073 N 
ATOM     29  H63 UNL     1      35.417  -6.943  12.171  1.00  0.00     0.274 HD
ATOM     30  H62 UNL     1      36.446  -5.799  12.135  1.00  0.00     0.274 HD
ATOM     31  H61 UNL     1      34.976  -5.486  12.919  1.00  0.00     0.274 HD
ENDBRANCH  26  28
ENDBRANCH  18  23
BRANCH  21  32
HETATM   32  C15 UNL     1      33.845   1.021  13.377  1.00  0.00     0.148 A 
HETATM   33  N8  UNL     1      34.228   1.546  14.540  1.00  0.00    -0.234 N 
HETATM   34  O4  UNL     1      34.551   2.806  14.377  1.00  0.00    -0.155 OA
ATOM     35  H8  UNL     1      34.264   1.043  15.427  1.00  0.00     0.197 HD
HETATM   36  N9  UNL     1      34.402   3.172  13.140  1.00  0.00    -0.224 N 
HETATM   37  C16 UNL     1      33.952   2.064  12.466  1.00  0.00     0.154 A 
ATOM     38  H9  UNL     1      34.582   4.097  12.749  1.00  0.00     0.198 HD
BRANCH  37  39
HETATM   39  N10 UNL     1      33.669   2.021  11.224  1.00  0.00    -0.382 N 
ATOM     40 2H10 UNL     1      33.148   1.275  10.764  1.00  0.00     0.157 HD
ATOM     41 1H10 UNL     1      33.932   2.706  10.516  1.00  0.00     0.157 HD
ENDBRANCH  37  39
ENDBRANCH  21  32
ENDBRANCH   4  16
BRANCH   1  42
HETATM   42  C6  UNL     1      30.957   0.442  18.141  1.00  0.00     0.183 C 
BRANCH  42  43
HETATM   43  N1  UNL     1      30.358  -0.546  18.968  1.00  0.00    -0.371 N 
BRANCH  43  44
HETATM   44  C2  UNL     1      30.281  -1.876  18.528  1.00  0.00     0.081 C 
HETATM   45  C1  UNL     1      31.505  -2.696  18.954  1.00  0.00     0.075 C 
BRANCH  44  46
HETATM   46  C3  UNL     1      29.045  -2.613  18.664  1.00  0.00     0.222 C 
HETATM   47  O1  UNL     1      28.631  -3.083  19.752  1.00  0.00    -0.643 OA
HETATM   48  O2  UNL     1      28.227  -2.840  17.535  1.00  0.00    -0.643 OA
ENDBRANCH  44  46
ENDBRANCH  43  44
BRANCH  43  49
HETATM   49  C4  UNL     1      29.385  -0.045  19.871  1.00  0.00     0.149 C 
BRANCH  49  50
HETATM   50  C5  UNL     1      29.390   1.422  20.147  1.00  0.00     0.183 C 
BRANCH  50  51
HETATM   51  O3  UNL     1      28.228   2.034  19.611  1.00  0.00    -0.399 OA
ATOM     52  H3  UNL     1      28.149   2.929  19.919  1.00  0.00     0.209 HD
ENDBRANCH  50  51
ENDBRANCH  49  50
ENDBRANCH  43  49
ENDBRANCH  42  43
ENDBRANCH   1  42
TORSDOF 12
ENDMDL
