MODEL 1
REMARK VINA RESULT: -7.816464994      0.000      0.000
REMARK  8 active torsions:
REMARK  status: ('A' for Active; 'I' for Inactive)
REMARK    1  A    between atoms: C2_2  and  N2_6 
REMARK    2  A    between atoms: N2_6  and  C3_8 
REMARK    3  A    between atoms: C3_8  and  C4_9 
REMARK       I    between atoms: C4_9  and  N3_11 
REMARK    4  A    between atoms: N3_11  and  C5_13 
REMARK    5  A    between atoms: C5_13  and  C6_14 
REMARK    6  A    between atoms: C6_14  and  C7_15 
REMARK    7  A    between atoms: C7_15  and  N4_16 
REMARK    8  A    between atoms: N4_16  and  C8_17 
ROOT
HETATM    1  C3  UNL     1     -27.932 -12.534  67.195  1.00  0.00     0.208 C 
HETATM    2  C11 UNL     1     -28.682 -12.223  65.940  1.00  0.00     0.189 C 
HETATM    3  N5  UNL     1     -28.366 -10.809  65.766  1.00  0.00    -0.338 N 
ATOM      4  H5  UNL     1     -28.267 -10.312  64.881  1.00  0.00     0.164 HD
HETATM    5  C12 UNL     1     -28.222 -10.254  67.080  1.00  0.00     0.318 C 
HETATM    6  O2  UNL     1     -28.135  -9.039  67.381  1.00  0.00    -0.247 OA
HETATM    7  N6  UNL     1     -28.196 -11.343  67.997  1.00  0.00    -0.307 N 
ATOM      8  H6  UNL     1     -28.333 -11.300  69.007  1.00  0.00     0.167 HD
ENDROOT
BRANCH   1   9
HETATM    9  N2  UNL     1     -26.506 -12.650  66.996  1.00  0.00    -0.345 N 
ATOM     10  H2  UNL     1     -25.908 -12.415  67.788  1.00  0.00     0.163 HD
BRANCH   9  11
HETATM   11  C2  UNL     1     -25.865 -13.056  65.809  1.00  0.00     0.068 C 
HETATM   12  C1  UNL     1     -25.144 -12.044  64.978  1.00  0.00     0.088 C 
HETATM   13  N1  UNL     1     -25.914 -14.288  65.455  1.00  0.00    -0.389 N 
ATOM     14  H12 UNL     1     -25.450 -14.582  64.596  1.00  0.00     0.157 HD
ATOM     15  H11 UNL     1     -26.406 -14.978  66.021  1.00  0.00     0.157 HD
ENDBRANCH   9  11
ENDBRANCH   1   9
BRANCH   1  16
HETATM   16  C4  UNL     1     -28.410 -13.749  67.897  1.00  0.00     0.268 C 
HETATM   17  O1  UNL     1     -27.897 -14.875  67.667  1.00  0.00    -0.269 OA
HETATM   18  N3  UNL     1     -29.462 -13.605  68.837  1.00  0.00    -0.357 N 
ATOM     19  H3  UNL     1     -29.864 -12.683  69.010  1.00  0.00     0.162 HD
BRANCH  18  20
HETATM   20  C5  UNL     1     -29.979 -14.775  69.567  1.00  0.00     0.129 C 
BRANCH  20  21
HETATM   21  C6  UNL     1     -30.093 -14.406  71.000  1.00  0.00     0.079 C 
BRANCH  21  22
HETATM   22  C7  UNL     1     -28.875 -13.995  71.653  1.00  0.00     0.156 C 
BRANCH  22  23
HETATM   23  N4  UNL     1     -28.993 -13.653  72.876  1.00  0.00    -0.432 NA
BRANCH  23  24
HETATM   24  C8  UNL     1     -29.165 -13.190  74.038  1.00  0.00     0.053 C 
HETATM   25  C9  UNL     1     -30.362 -12.383  74.186  1.00  0.00     0.079 C 
HETATM   26  C10 UNL     1     -28.136 -13.549  74.996  1.00  0.00     0.079 C 
ENDBRANCH  23  24
ENDBRANCH  22  23
ENDBRANCH  21  22
ENDBRANCH  20  21
ENDBRANCH  18  20
ENDBRANCH   1  16
TORSDOF 8
ENDMDL
MODEL 2
REMARK VINA RESULT: -7.783865783      0.702      1.123
REMARK  8 active torsions:
REMARK  status: ('A' for Active; 'I' for Inactive)
REMARK    1  A    between atoms: C2_2  and  N2_6 
REMARK    2  A    between atoms: N2_6  and  C3_8 
REMARK    3  A    between atoms: C3_8  and  C4_9 
REMARK       I    between atoms: C4_9  and  N3_11 
REMARK    4  A    between atoms: N3_11  and  C5_13 
REMARK    5  A    between atoms: C5_13  and  C6_14 
REMARK    6  A    between atoms: C6_14  and  C7_15 
REMARK    7  A    between atoms: C7_15  and  N4_16 
REMARK    8  A    between atoms: N4_16  and  C8_17 
ROOT
HETATM    1  C3  UNL     1     -27.732 -12.059  66.806  1.00  0.00     0.208 C 
HETATM    2  C11 UNL     1     -28.516 -11.814  65.557  1.00  0.00     0.189 C 
HETATM    3  N5  UNL     1     -28.282 -10.389  65.351  1.00  0.00    -0.338 N 
ATOM      4  H5  UNL     1     -28.223  -9.906  64.454  1.00  0.00     0.164 HD
HETATM    5  C12 UNL     1     -28.150  -9.801  66.651  1.00  0.00     0.318 C 
HETATM    6  O2  UNL     1     -28.125  -8.577  66.927  1.00  0.00    -0.247 OA
HETATM    7  N6  UNL     1     -28.050 -10.867  67.589  1.00  0.00    -0.307 N 
ATOM      8  H6  UNL     1     -28.175 -10.811  68.600  1.00  0.00     0.167 HD
ENDROOT
BRANCH   1   9
HETATM    9  N2  UNL     1     -26.306 -12.100  66.588  1.00  0.00    -0.345 N 
ATOM     10  H2  UNL     1     -25.712 -11.744  67.338  1.00  0.00     0.163 HD
BRANCH   9  11
HETATM   11  C2  UNL     1     -25.657 -12.585  65.435  1.00  0.00     0.068 C 
HETATM   12  C1  UNL     1     -24.999 -11.622  64.500  1.00  0.00     0.088 C 
HETATM   13  N1  UNL     1     -25.645 -13.846  65.201  1.00  0.00    -0.389 N 
ATOM     14  H12 UNL     1     -25.176 -14.197  64.367  1.00  0.00     0.157 HD
ATOM     15  H11 UNL     1     -26.095 -14.503  65.839  1.00  0.00     0.157 HD
ENDBRANCH   9  11
ENDBRANCH   1   9
BRANCH   1  16
HETATM   16  C4  UNL     1     -28.133 -13.284  67.539  1.00  0.00     0.268 C 
HETATM   17  O1  UNL     1     -28.046 -14.417  67.002  1.00  0.00    -0.269 OA
HETATM   18  N3  UNL     1     -28.615 -13.139  68.866  1.00  0.00    -0.357 N 
ATOM     19  H3  UNL     1     -28.676 -12.210  69.283  1.00  0.00     0.162 HD
BRANCH  18  20
HETATM   20  C5  UNL     1     -29.027 -14.318  69.645  1.00  0.00     0.129 C 
BRANCH  20  21
HETATM   21  C6  UNL     1     -28.761 -14.035  71.078  1.00  0.00     0.079 C 
BRANCH  21  22
HETATM   22  C7  UNL     1     -29.911 -14.015  71.948  1.00  0.00     0.156 C 
BRANCH  22  23
HETATM   23  N4  UNL     1     -29.710 -13.543  73.116  1.00  0.00    -0.432 NA
BRANCH  23  24
HETATM   24  C8  UNL     1     -29.551 -12.947  74.218  1.00  0.00     0.053 C 
HETATM   25  C9  UNL     1     -28.382 -13.374  74.963  1.00  0.00     0.079 C 
HETATM   26  C10 UNL     1     -30.565 -11.956  74.526  1.00  0.00     0.079 C 
ENDBRANCH  23  24
ENDBRANCH  22  23
ENDBRANCH  21  22
ENDBRANCH  20  21
ENDBRANCH  18  20
ENDBRANCH   1  16
TORSDOF 8
ENDMDL
MODEL 3
REMARK VINA RESULT: -7.589103860      1.099      1.243
REMARK  8 active torsions:
REMARK  status: ('A' for Active; 'I' for Inactive)
REMARK    1  A    between atoms: C2_2  and  N2_6 
REMARK    2  A    between atoms: N2_6  and  C3_8 
REMARK    3  A    between atoms: C3_8  and  C4_9 
REMARK       I    between atoms: C4_9  and  N3_11 
REMARK    4  A    between atoms: N3_11  and  C5_13 
REMARK    5  A    between atoms: C5_13  and  C6_14 
REMARK    6  A    between atoms: C6_14  and  C7_15 
REMARK    7  A    between atoms: C7_15  and  N4_16 
REMARK    8  A    between atoms: N4_16  and  C8_17 
ROOT
HETATM    1  C3  UNL     1     -28.201 -11.725  66.210  1.00  0.00     0.208 C 
HETATM    2  C11 UNL     1     -29.488 -11.153  65.710  1.00  0.00     0.189 C 
HETATM    3  N5  UNL     1     -29.143  -9.740  65.594  1.00  0.00    -0.338 N 
ATOM      4  H5  UNL     1     -29.509  -9.079  64.909  1.00  0.00     0.164 HD
HETATM    5  C12 UNL     1     -28.192  -9.462  66.629  1.00  0.00     0.318 C 
HETATM    6  O2  UNL     1     -27.782  -8.334  66.996  1.00  0.00    -0.247 OA
HETATM    7  N6  UNL     1     -27.787 -10.712  67.177  1.00  0.00    -0.307 N 
ATOM      8  H6  UNL     1     -27.307 -10.869  68.064  1.00  0.00     0.167 HD
ENDROOT
BRANCH   1   9
HETATM    9  N2  UNL     1     -27.185 -11.829  65.189  1.00  0.00    -0.345 N 
ATOM     10  H2  UNL     1     -27.502 -11.831  64.219  1.00  0.00     0.163 HD
BRANCH   9  11
HETATM   11  C2  UNL     1     -25.797 -11.930  65.409  1.00  0.00     0.068 C 
HETATM   12  C1  UNL     1     -24.925 -10.741  65.162  1.00  0.00     0.088 C 
HETATM   13  N1  UNL     1     -25.301 -13.040  65.815  1.00  0.00    -0.389 N 
ATOM     14  H12 UNL     1     -24.296 -13.112  65.974  1.00  0.00     0.157 HD
ATOM     15  H11 UNL     1     -25.895 -13.851  65.983  1.00  0.00     0.157 HD
ENDBRANCH   9  11
ENDBRANCH   1   9
BRANCH   1  16
HETATM   16  C4  UNL     1     -28.343 -13.046  66.869  1.00  0.00     0.268 C 
HETATM   17  O1  UNL     1     -28.184 -14.113  66.223  1.00  0.00    -0.269 OA
HETATM   18  N3  UNL     1     -28.665 -13.069  68.251  1.00  0.00    -0.357 N 
ATOM     19  H3  UNL     1     -28.790 -12.192  68.756  1.00  0.00     0.162 HD
BRANCH  18  20
HETATM   20  C5  UNL     1     -28.818 -14.350  68.961  1.00  0.00     0.129 C 
BRANCH  20  21
HETATM   21  C6  UNL     1     -28.650 -14.091  70.413  1.00  0.00     0.079 C 
BRANCH  21  22
HETATM   22  C7  UNL     1     -29.849 -14.138  71.213  1.00  0.00     0.156 C 
BRANCH  22  23
HETATM   23  N4  UNL     1     -29.727 -13.723  72.413  1.00  0.00    -0.432 NA
BRANCH  23  24
HETATM   24  C8  UNL     1     -29.463 -13.324  73.582  1.00  0.00     0.053 C 
HETATM   25  C9  UNL     1     -30.408 -12.356  74.108  1.00  0.00     0.079 C 
HETATM   26  C10 UNL     1     -28.269 -13.903  74.169  1.00  0.00     0.079 C 
ENDBRANCH  23  24
ENDBRANCH  22  23
ENDBRANCH  21  22
ENDBRANCH  20  21
ENDBRANCH  18  20
ENDBRANCH   1  16
TORSDOF 8
ENDMDL
MODEL 4
REMARK VINA RESULT: -7.536021527      2.695      4.607
REMARK  8 active torsions:
REMARK  status: ('A' for Active; 'I' for Inactive)
REMARK    1  A    between atoms: C2_2  and  N2_6 
REMARK    2  A    between atoms: N2_6  and  C3_8 
REMARK    3  A    between atoms: C3_8  and  C4_9 
REMARK       I    between atoms: C4_9  and  N3_11 
REMARK    4  A    between atoms: N3_11  and  C5_13 
REMARK    5  A    between atoms: C5_13  and  C6_14 
REMARK    6  A    between atoms: C6_14  and  C7_15 
REMARK    7  A    between atoms: C7_15  and  N4_16 
REMARK    8  A    between atoms: N4_16  and  C8_17 
ROOT
HETATM    1  C3  UNL     1     -24.747 -11.333  64.870  1.00  0.00     0.208 C 
HETATM    2  C11 UNL     1     -24.702 -11.662  63.413  1.00  0.00     0.189 C 
HETATM    3  N5  UNL     1     -23.274 -11.543  63.140  1.00  0.00    -0.338 N 
ATOM      4  H5  UNL     1     -22.737 -12.082  62.461  1.00  0.00     0.164 HD
HETATM    5  C12 UNL     1     -22.772 -10.522  64.011  1.00  0.00     0.318 C 
HETATM    6  O2  UNL     1     -21.639  -9.982  63.968  1.00  0.00    -0.247 OA
HETATM    7  N6  UNL     1     -23.801 -10.222  64.948  1.00  0.00    -0.307 N 
ATOM      8  H6  UNL     1     -23.865  -9.402  65.550  1.00  0.00     0.167 HD
ENDROOT
BRANCH   1   9
HETATM    9  N2  UNL     1     -24.271 -12.403  65.714  1.00  0.00    -0.345 N 
ATOM     10  H2  UNL     1     -23.928 -12.146  66.639  1.00  0.00     0.163 HD
BRANCH   9  11
HETATM   11  C2  UNL     1     -24.238 -13.771  65.377  1.00  0.00     0.068 C 
HETATM   12  C1  UNL     1     -25.486 -14.587  65.487  1.00  0.00     0.088 C 
HETATM   13  N1  UNL     1     -23.137 -14.298  64.985  1.00  0.00    -0.389 N 
ATOM     14  H12 UNL     1     -23.113 -15.287  64.741  1.00  0.00     0.157 HD
ATOM     15  H11 UNL     1     -22.285 -13.741  64.910  1.00  0.00     0.157 HD
ENDBRANCH   9  11
ENDBRANCH   1   9
BRANCH   1  16
HETATM   16  C4  UNL     1     -26.084 -10.910  65.352  1.00  0.00     0.268 C 
HETATM   17  O1  UNL     1     -26.859 -10.249  64.615  1.00  0.00    -0.269 OA
HETATM   18  N3  UNL     1     -26.463 -11.275  66.670  1.00  0.00    -0.357 N 
ATOM     19  H3  UNL     1     -25.819 -11.811  67.252  1.00  0.00     0.162 HD
BRANCH  18  20
HETATM   20  C5  UNL     1     -27.778 -10.885  67.205  1.00  0.00     0.129 C 
BRANCH  20  21
HETATM   21  C6  UNL     1     -28.637 -12.095  67.234  1.00  0.00     0.079 C 
BRANCH  21  22
HETATM   22  C7  UNL     1     -28.059 -13.273  67.833  1.00  0.00     0.156 C 
BRANCH  22  23
HETATM   23  N4  UNL     1     -28.579 -13.641  68.938  1.00  0.00    -0.432 NA
BRANCH  23  24
HETATM   24  C8  UNL     1     -28.962 -14.052  70.069  1.00  0.00     0.053 C 
HETATM   25  C9  UNL     1     -30.287 -14.645  70.070  1.00  0.00     0.079 C 
HETATM   26  C10 UNL     1     -28.009 -13.852  71.145  1.00  0.00     0.079 C 
ENDBRANCH  23  24
ENDBRANCH  22  23
ENDBRANCH  21  22
ENDBRANCH  20  21
ENDBRANCH  18  20
ENDBRANCH   1  16
TORSDOF 8
ENDMDL
MODEL 5
REMARK VINA RESULT: -7.459836491     10.004     11.577
REMARK  8 active torsions:
REMARK  status: ('A' for Active; 'I' for Inactive)
REMARK    1  A    between atoms: C2_2  and  N2_6 
REMARK    2  A    between atoms: N2_6  and  C3_8 
REMARK    3  A    between atoms: C3_8  and  C4_9 
REMARK       I    between atoms: C4_9  and  N3_11 
REMARK    4  A    between atoms: N3_11  and  C5_13 
REMARK    5  A    between atoms: C5_13  and  C6_14 
REMARK    6  A    between atoms: C6_14  and  C7_15 
REMARK    7  A    between atoms: C7_15  and  N4_16 
REMARK    8  A    between atoms: N4_16  and  C8_17 
ROOT
HETATM    1  C3  UNL     1     -36.258 -10.264  75.391  1.00  0.00     0.208 C 
HETATM    2  C11 UNL     1     -35.773 -10.098  73.987  1.00  0.00     0.189 C 
HETATM    3  N5  UNL     1     -36.603 -11.070  73.284  1.00  0.00    -0.338 N 
ATOM      4  H5  UNL     1     -36.946 -10.998  72.326  1.00  0.00     0.164 HD
HETATM    5  C12 UNL     1     -36.845 -12.144  74.201  1.00  0.00     0.318 C 
HETATM    6  O2  UNL     1     -37.356 -13.261  73.939  1.00  0.00    -0.247 OA
HETATM    7  N6  UNL     1     -36.397 -11.715  75.482  1.00  0.00    -0.307 N 
ATOM      8  H6  UNL     1     -36.211 -12.300  76.297  1.00  0.00     0.167 HD
ENDROOT
BRANCH   1   9
HETATM    9  N2  UNL     1     -37.548  -9.661  75.626  1.00  0.00    -0.345 N 
ATOM     10  H2  UNL     1     -38.294 -10.276  75.953  1.00  0.00     0.163 HD
BRANCH   9  11
HETATM   11  C2  UNL     1     -37.873  -8.302  75.446  1.00  0.00     0.068 C 
HETATM   12  C1  UNL     1     -38.249  -7.809  74.086  1.00  0.00     0.088 C 
HETATM   13  N1  UNL     1     -37.838  -7.506  76.451  1.00  0.00    -0.389 N 
ATOM     14  H12 UNL     1     -38.073  -6.522  76.321  1.00  0.00     0.157 HD
ATOM     15  H11 UNL     1     -37.581  -7.842  77.379  1.00  0.00     0.157 HD
ENDBRANCH   9  11
ENDBRANCH   1   9
BRANCH   1  16
HETATM   16  C4  UNL     1     -35.311  -9.767  76.418  1.00  0.00     0.268 C 
HETATM   17  O1  UNL     1     -35.696  -9.527  77.591  1.00  0.00    -0.269 OA
HETATM   18  N3  UNL     1     -33.958  -9.571  76.039  1.00  0.00    -0.357 N 
ATOM     19  H3  UNL     1     -33.666  -9.773  75.083  1.00  0.00     0.162 HD
BRANCH  18  20
HETATM   20  C5  UNL     1     -32.971  -9.081  77.016  1.00  0.00     0.129 C 
BRANCH  20  21
HETATM   21  C6  UNL     1     -31.659  -9.691  76.685  1.00  0.00     0.079 C 
BRANCH  21  22
HETATM   22  C7  UNL     1     -30.518  -9.178  77.403  1.00  0.00     0.156 C 
BRANCH  22  23
HETATM   23  N4  UNL     1     -30.616  -9.189  78.675  1.00  0.00    -0.432 NA
BRANCH  23  24
HETATM   24  C8  UNL     1     -30.569  -9.181  79.936  1.00  0.00     0.053 C 
HETATM   25  C9  UNL     1     -29.537 -10.034  80.499  1.00  0.00     0.079 C 
HETATM   26  C10 UNL     1     -31.551  -8.329  80.578  1.00  0.00     0.079 C 
ENDBRANCH  23  24
ENDBRANCH  22  23
ENDBRANCH  21  22
ENDBRANCH  20  21
ENDBRANCH  18  20
ENDBRANCH   1  16
TORSDOF 8
ENDMDL
