MODEL 1
REMARK VINA RESULT: -7.733864762      0.000      0.000
REMARK  9 active torsions:
REMARK  status: ('A' for Active; 'I' for Inactive)
REMARK    1  A    between atoms: C2_5  and  C3_6 
REMARK    2  A    between atoms: C3_6  and  C4_7 
REMARK    3  A    between atoms: C3_6  and  N4_12 
REMARK    4  A    between atoms: C4_7  and  N3_8 
REMARK    5  A    between atoms: N4_12  and  N5_14 
REMARK    6  A    between atoms: N5_14  and  C5_16 
REMARK    7  A    between atoms: C12_35  and  N10_36 
REMARK    8  A    between atoms: N11_39  and  C13_40 
REMARK    9  A    between atoms: C13_40  and  O5_41 
ROOT
HETATM    1  C3  UNL     1      18.501   4.540  11.336  1.00  0.00     0.180 C 
ENDROOT
BRANCH   1   2
HETATM    2  C2  UNL     1      18.388   5.434  10.161  1.00  0.00     0.104 A 
HETATM    3  N2  UNL     1      19.370   5.505   9.217  1.00  0.00    -0.295 N 
HETATM    4  N1  UNL     1      19.293   6.283   8.158  1.00  0.00    -0.278 N 
ATOM      5  H2  UNL     1      20.203   4.930   9.338  1.00  0.00     0.187 HD
HETATM    6  C1  UNL     1      20.374   6.309   7.194  1.00  0.00     0.179 C 
HETATM    7  C11 UNL     1      18.230   7.070   7.925  1.00  0.00     0.169 A 
HETATM    8  C10 UNL     1      17.185   7.062   8.829  1.00  0.00     0.152 A 
HETATM    9  N9  UNL     1      17.943   7.937   6.915  1.00  0.00    -0.173 N 
HETATM   10  C9  UNL     1      17.295   6.239   9.929  1.00  0.00     0.229 A 
HETATM   11  N11 UNL     1      16.283   7.928   8.349  1.00  0.00    -0.154 N 
HETATM   12  O4  UNL     1      16.314   6.269  10.730  1.00  0.00    -0.284 OA
HETATM   13  C12 UNL     1      16.739   8.468   7.175  1.00  0.00     0.682 A 
ATOM     14  H9  UNL     1      18.534   8.145   6.110  1.00  0.00     0.186 HD
BRANCH  11  15
HETATM   15  C13 UNL     1      15.013   8.245   8.966  1.00  0.00     0.314 C 
BRANCH  15  16
HETATM   16  O5  UNL     1      14.115   7.189   8.747  1.00  0.00    -0.381 OA
ATOM     17  H5  UNL     1      14.241   6.526   9.416  1.00  0.00     0.211 HD
ENDBRANCH  15  16
ENDBRANCH  11  15
BRANCH  13  18
HETATM   18  N10 UNL     1      16.069   9.340   6.485  1.00  0.00    -0.234 N 
ATOM     19 2H10 UNL     1      16.075  10.339   6.690  1.00  0.00     0.174 HD
ATOM     20 1H10 UNL     1      15.466   9.188   5.677  1.00  0.00     0.174 HD
ENDBRANCH  13  18
ENDBRANCH   1   2
BRANCH   1  21
HETATM   21  C4  UNL     1      19.949   3.996  11.334  1.00  0.00     0.262 C 
BRANCH  21  22
HETATM   22  N3  UNL     1      20.758   4.657  12.316  1.00  0.00    -0.077 N 
ATOM     23  H33 UNL     1      21.439   4.020  12.731  1.00  0.00     0.274 HD
ATOM     24  H32 UNL     1      21.404   5.318  11.885  1.00  0.00     0.274 HD
ATOM     25  H31 UNL     1      20.184   5.106  13.030  1.00  0.00     0.274 HD
ENDBRANCH  21  22
ENDBRANCH   1  21
BRANCH   1  26
HETATM   26  N4  UNL     1      17.613   3.423  11.344  1.00  0.00    -0.310 N 
ATOM     27  H4  UNL     1      17.849   2.638  10.737  1.00  0.00     0.181 HD
BRANCH  26  28
HETATM   28  N5  UNL     1      16.458   3.309  12.103  1.00  0.00    -0.135 N 
ATOM     29  H5  UNL     1      15.625   2.917  11.666  1.00  0.00     0.205 HD
BRANCH  28  30
HETATM   30  C5  UNL     1      16.390   3.677  13.338  1.00  0.00     0.703 C 
HETATM   31  N6  UNL     1      16.842   2.849  14.289  1.00  0.00    -0.140 N 
HETATM   32  C6  UNL     1      16.606   2.949  15.624  1.00  0.00     0.341 C 
ATOM     33  H6  UNL     1      17.420   2.067  13.980  1.00  0.00     0.189 HD
HETATM   34  O1  UNL     1      17.227   2.129  16.335  1.00  0.00    -0.246 OA
HETATM   35  N7  UNL     1      15.806   3.794  16.292  1.00  0.00    -0.270 N 
HETATM   36  C7  UNL     1      15.097   4.817  15.811  1.00  0.00     0.318 C 
ATOM     37  H7  UNL     1      15.732   3.634  17.297  1.00  0.00     0.174 HD
HETATM   38  O2  UNL     1      14.246   5.352  16.572  1.00  0.00    -0.262 OA
HETATM   39  C8  UNL     1      15.159   5.401  14.541  1.00  0.00     0.328 C 
HETATM   40  O3  UNL     1      14.535   6.475  14.353  1.00  0.00    -0.261 OA
HETATM   41  N8  UNL     1      15.839   4.913  13.484  1.00  0.00    -0.150 N 
ATOM     42  H8  UNL     1      15.953   5.549  12.695  1.00  0.00     0.188 HD
ENDBRANCH  28  30
ENDBRANCH  26  28
ENDBRANCH   1  26
TORSDOF 9
ENDMDL
MODEL 2
REMARK VINA RESULT: -7.544735726      0.890      2.043
REMARK  9 active torsions:
REMARK  status: ('A' for Active; 'I' for Inactive)
REMARK    1  A    between atoms: C2_5  and  C3_6 
REMARK    2  A    between atoms: C3_6  and  C4_7 
REMARK    3  A    between atoms: C3_6  and  N4_12 
REMARK    4  A    between atoms: C4_7  and  N3_8 
REMARK    5  A    between atoms: N4_12  and  N5_14 
REMARK    6  A    between atoms: N5_14  and  C5_16 
REMARK    7  A    between atoms: C12_35  and  N10_36 
REMARK    8  A    between atoms: N11_39  and  C13_40 
REMARK    9  A    between atoms: C13_40  and  O5_41 
ROOT
HETATM    1  C3  UNL     1      19.042   5.518  11.735  1.00  0.00     0.180 C 
ENDROOT
BRANCH   1   2
HETATM    2  C2  UNL     1      18.660   6.065  10.414  1.00  0.00     0.104 A 
HETATM    3  N2  UNL     1      19.510   6.024   9.347  1.00  0.00    -0.295 N 
HETATM    4  N1  UNL     1      19.194   6.492   8.159  1.00  0.00    -0.278 N 
ATOM      5  H2  UNL     1      20.433   5.610   9.477  1.00  0.00     0.187 HD
HETATM    6  C1  UNL     1      20.146   6.415   7.069  1.00  0.00     0.179 C 
HETATM    7  C11 UNL     1      17.999   7.051   7.905  1.00  0.00     0.169 A 
HETATM    8  C10 UNL     1      17.073   7.135   8.927  1.00  0.00     0.152 A 
HETATM    9  N9  UNL     1      17.468   7.591   6.773  1.00  0.00    -0.173 N 
HETATM   10  C9  UNL     1      17.433   6.637  10.161  1.00  0.00     0.229 A 
HETATM   11  N11 UNL     1      15.996   7.727   8.393  1.00  0.00    -0.154 N 
HETATM   12  O4  UNL     1      16.553   6.740  11.066  1.00  0.00    -0.284 OA
HETATM   13  C12 UNL     1      16.230   8.009   7.074  1.00  0.00     0.682 A 
ATOM     14  H9  UNL     1      17.927   7.664   5.865  1.00  0.00     0.186 HD
BRANCH  11  15
HETATM   15  C13 UNL     1      14.767   8.023   9.097  1.00  0.00     0.314 C 
BRANCH  15  16
HETATM   16  O5  UNL     1      13.714   7.304   8.509  1.00  0.00    -0.381 OA
ATOM     17  H5  UNL     1      12.925   7.833   8.529  1.00  0.00     0.211 HD
ENDBRANCH  15  16
ENDBRANCH  11  15
BRANCH  13  18
HETATM   18  N10 UNL     1      15.357   8.585   6.304  1.00  0.00    -0.234 N 
ATOM     19 2H10 UNL     1      15.611   9.128   5.479  1.00  0.00     0.174 HD
ATOM     20 1H10 UNL     1      14.341   8.592   6.384  1.00  0.00     0.174 HD
ENDBRANCH  13  18
ENDBRANCH   1   2
BRANCH   1  21
HETATM   21  C4  UNL     1      20.588   5.490  11.767  1.00  0.00     0.262 C 
BRANCH  21  22
HETATM   22  N3  UNL     1      21.118   6.612  12.486  1.00  0.00    -0.077 N 
ATOM     23  H33 UNL     1      20.813   6.610  13.460  1.00  0.00     0.274 HD
ATOM     24  H32 UNL     1      22.122   6.519  12.637  1.00  0.00     0.274 HD
ATOM     25  H31 UNL     1      20.889   7.492  12.024  1.00  0.00     0.274 HD
ENDBRANCH  21  22
ENDBRANCH   1  21
BRANCH   1  26
HETATM   26  N4  UNL     1      18.574   4.200  12.012  1.00  0.00    -0.310 N 
ATOM     27  H4  UNL     1      19.280   3.480  12.166  1.00  0.00     0.181 HD
BRANCH  26  28
HETATM   28  N5  UNL     1      17.245   3.809  12.090  1.00  0.00    -0.135 N 
ATOM     29  H5  UNL     1      16.766   3.538  11.231  1.00  0.00     0.205 HD
BRANCH  28  30
HETATM   30  C5  UNL     1      16.588   3.773  13.200  1.00  0.00     0.703 C 
HETATM   31  N6  UNL     1      15.968   4.882  13.624  1.00  0.00    -0.140 N 
HETATM   32  C6  UNL     1      15.473   5.101  14.871  1.00  0.00     0.341 C 
ATOM     33  H6  UNL     1      15.857   5.635  12.945  1.00  0.00     0.189 HD
HETATM   34  O1  UNL     1      14.830   6.165  15.006  1.00  0.00    -0.246 OA
HETATM   35  N7  UNL     1      15.571   4.349  15.978  1.00  0.00    -0.270 N 
HETATM   36  C7  UNL     1      16.118   3.138  16.109  1.00  0.00     0.318 C 
ATOM     37  H7  UNL     1      15.177   4.754  16.826  1.00  0.00     0.174 HD
HETATM   38  O2  UNL     1      16.297   2.698  17.277  1.00  0.00    -0.262 OA
HETATM   39  C8  UNL     1      16.539   2.258  15.106  1.00  0.00     0.328 C 
HETATM   40  O3  UNL     1      16.856   1.089  15.442  1.00  0.00    -0.261 OA
HETATM   41  N8  UNL     1      16.636   2.550  13.794  1.00  0.00    -0.150 N 
ATOM     42  H8  UNL     1      16.762   1.754  13.168  1.00  0.00     0.188 HD
ENDBRANCH  28  30
ENDBRANCH  26  28
ENDBRANCH   1  26
TORSDOF 9
ENDMDL
MODEL 3
REMARK VINA RESULT: -7.484635698      2.096      2.674
REMARK  9 active torsions:
REMARK  status: ('A' for Active; 'I' for Inactive)
REMARK    1  A    between atoms: C2_5  and  C3_6 
REMARK    2  A    between atoms: C3_6  and  C4_7 
REMARK    3  A    between atoms: C3_6  and  N4_12 
REMARK    4  A    between atoms: C4_7  and  N3_8 
REMARK    5  A    between atoms: N4_12  and  N5_14 
REMARK    6  A    between atoms: N5_14  and  C5_16 
REMARK    7  A    between atoms: C12_35  and  N10_36 
REMARK    8  A    between atoms: N11_39  and  C13_40 
REMARK    9  A    between atoms: C13_40  and  O5_41 
ROOT
HETATM    1  C3  UNL     1      18.032   2.298  11.669  1.00  0.00     0.180 C 
ENDROOT
BRANCH   1   2
HETATM    2  C2  UNL     1      18.504   3.670  11.377  1.00  0.00     0.104 A 
HETATM    3  N2  UNL     1      19.833   3.969  11.298  1.00  0.00    -0.295 N 
HETATM    4  N1  UNL     1      20.282   5.177  11.030  1.00  0.00    -0.278 N 
ATOM      5  H2  UNL     1      20.510   3.223  11.454  1.00  0.00     0.187 HD
HETATM    6  C1  UNL     1      21.707   5.425  10.961  1.00  0.00     0.179 C 
HETATM    7  C11 UNL     1      19.457   6.214  10.811  1.00  0.00     0.169 A 
HETATM    8  C10 UNL     1      18.093   6.004  10.871  1.00  0.00     0.152 A 
HETATM    9  N9  UNL     1      19.697   7.524  10.524  1.00  0.00    -0.173 N 
HETATM   10  C9  UNL     1      17.653   4.729  11.155  1.00  0.00     0.229 A 
HETATM   11  N11 UNL     1      17.530   7.193  10.618  1.00  0.00    -0.154 N 
HETATM   12  O4  UNL     1      16.394   4.586  11.201  1.00  0.00    -0.284 OA
HETATM   13  C12 UNL     1      18.506   8.130  10.403  1.00  0.00     0.682 A 
ATOM     14  H9  UNL     1      20.612   7.962  10.419  1.00  0.00     0.186 HD
BRANCH  11  15
HETATM   15  C13 UNL     1      16.108   7.455  10.571  1.00  0.00     0.314 C 
BRANCH  15  16
HETATM   16  O5  UNL     1      15.561   6.834   9.437  1.00  0.00    -0.381 OA
ATOM     17  H5  UNL     1      15.708   7.385   8.677  1.00  0.00     0.211 HD
ENDBRANCH  15  16
ENDBRANCH  11  15
BRANCH  13  18
HETATM   18  N10 UNL     1      18.252   9.374  10.134  1.00  0.00    -0.234 N 
ATOM     19 2H10 UNL     1      18.890  10.137  10.358  1.00  0.00     0.174 HD
ATOM     20 1H10 UNL     1      17.429   9.775   9.684  1.00  0.00     0.174 HD
ENDBRANCH  13  18
ENDBRANCH   1   2
BRANCH   1  21
HETATM   21  C4  UNL     1      17.646   1.669  10.309  1.00  0.00     0.262 C 
BRANCH  21  22
HETATM   22  N3  UNL     1      16.222   1.594  10.151  1.00  0.00    -0.077 N 
ATOM     23  H33 UNL     1      15.884   0.638  10.256  1.00  0.00     0.274 HD
ATOM     24  H32 UNL     1      15.736   2.020  10.941  1.00  0.00     0.274 HD
ATOM     25  H31 UNL     1      15.924   2.001   9.265  1.00  0.00     0.274 HD
ENDBRANCH  21  22
ENDBRANCH   1  21
BRANCH   1  26
HETATM   26  N4  UNL     1      16.898   2.209  12.530  1.00  0.00    -0.310 N 
ATOM     27  H4  UNL     1      15.990   2.439  12.126  1.00  0.00     0.181 HD
BRANCH  26  28
HETATM   28  N5  UNL     1      16.920   1.840  13.866  1.00  0.00    -0.135 N 
ATOM     29  H5  UNL     1      17.208   0.891  14.104  1.00  0.00     0.205 HD
BRANCH  28  30
HETATM   30  C5  UNL     1      16.592   2.642  14.822  1.00  0.00     0.703 C 
HETATM   31  N6  UNL     1      16.339   2.137  16.036  1.00  0.00    -0.140 N 
HETATM   32  C6  UNL     1      15.729   2.781  17.066  1.00  0.00     0.341 C 
ATOM     33  H6  UNL     1      16.633   1.174  16.204  1.00  0.00     0.189 HD
HETATM   34  O1  UNL     1      15.705   2.150  18.146  1.00  0.00    -0.246 OA
HETATM   35  N7  UNL     1      15.148   3.990  17.098  1.00  0.00    -0.270 N 
HETATM   36  C7  UNL     1      15.099   4.910  16.131  1.00  0.00     0.318 C 
ATOM     37  H7  UNL     1      14.686   4.238  17.973  1.00  0.00     0.174 HD
HETATM   38  O2  UNL     1      14.323   5.890  16.292  1.00  0.00    -0.262 OA
HETATM   39  C8  UNL     1      15.805   4.945  14.924  1.00  0.00     0.328 C 
HETATM   40  O3  UNL     1      15.750   5.996  14.238  1.00  0.00    -0.261 OA
HETATM   41  N8  UNL     1      16.551   3.941  14.420  1.00  0.00    -0.150 N 
ATOM     42  H8  UNL     1      17.161   4.187  13.640  1.00  0.00     0.188 HD
ENDBRANCH  28  30
ENDBRANCH  26  28
ENDBRANCH   1  26
TORSDOF 9
ENDMDL
MODEL 4
REMARK VINA RESULT: -7.469337779      1.083      2.176
REMARK  9 active torsions:
REMARK  status: ('A' for Active; 'I' for Inactive)
REMARK    1  A    between atoms: C2_5  and  C3_6 
REMARK    2  A    between atoms: C3_6  and  C4_7 
REMARK    3  A    between atoms: C3_6  and  N4_12 
REMARK    4  A    between atoms: C4_7  and  N3_8 
REMARK    5  A    between atoms: N4_12  and  N5_14 
REMARK    6  A    between atoms: N5_14  and  C5_16 
REMARK    7  A    between atoms: C12_35  and  N10_36 
REMARK    8  A    between atoms: N11_39  and  C13_40 
REMARK    9  A    between atoms: C13_40  and  O5_41 
ROOT
HETATM    1  C3  UNL     1      18.900   4.623  11.711  1.00  0.00     0.180 C 
ENDROOT
BRANCH   1   2
HETATM    2  C2  UNL     1      18.661   5.407  10.478  1.00  0.00     0.104 A 
HETATM    3  N2  UNL     1      19.573   5.447   9.465  1.00  0.00    -0.295 N 
HETATM    4  N1  UNL     1      19.383   6.127   8.354  1.00  0.00    -0.278 N 
ATOM      5  H2  UNL     1      20.443   4.927   9.573  1.00  0.00     0.187 HD
HETATM    6  C1  UNL     1      20.394   6.125   7.317  1.00  0.00     0.179 C 
HETATM    7  C11 UNL     1      18.264   6.837   8.133  1.00  0.00     0.169 A 
HETATM    8  C10 UNL     1      17.283   6.853   9.106  1.00  0.00     0.152 A 
HETATM    9  N9  UNL     1      17.863   7.600   7.078  1.00  0.00    -0.173 N 
HETATM   10  C9  UNL     1      17.511   6.134  10.259  1.00  0.00     0.229 A 
HETATM   11  N11 UNL     1      16.304   7.628   8.621  1.00  0.00    -0.154 N 
HETATM   12  O4  UNL     1      16.585   6.182  11.122  1.00  0.00    -0.284 OA
HETATM   13  C12 UNL     1      16.650   8.089   7.379  1.00  0.00     0.682 A 
ATOM     14  H9  UNL     1      18.387   7.767   6.219  1.00  0.00     0.186 HD
BRANCH  11  15
HETATM   15  C13 UNL     1      15.062   7.933   9.299  1.00  0.00     0.314 C 
BRANCH  15  16
HETATM   16  O5  UNL     1      14.001   7.310   8.622  1.00  0.00    -0.381 OA
ATOM     17  H5  UNL     1      13.750   7.843   7.876  1.00  0.00     0.211 HD
ENDBRANCH  15  16
ENDBRANCH  11  15
BRANCH  13  18
HETATM   18  N10 UNL     1      15.889   8.865   6.669  1.00  0.00    -0.234 N 
ATOM     19 2H10 UNL     1      16.168   9.797   6.364  1.00  0.00     0.174 HD
ATOM     20 1H10 UNL     1      14.948   8.688   6.318  1.00  0.00     0.174 HD
ENDBRANCH  13  18
ENDBRANCH   1   2
BRANCH   1  21
HETATM   21  C4  UNL     1      19.539   3.287  11.262  1.00  0.00     0.262 C 
BRANCH  21  22
HETATM   22  N3  UNL     1      18.541   2.294  10.989  1.00  0.00    -0.077 N 
ATOM     23  H33 UNL     1      17.877   2.210  11.759  1.00  0.00     0.274 HD
ATOM     24  H32 UNL     1      17.897   2.602  10.260  1.00  0.00     0.274 HD
ATOM     25  H31 UNL     1      18.964   1.395  10.760  1.00  0.00     0.274 HD
ENDBRANCH  21  22
ENDBRANCH   1  21
BRANCH   1  26
HETATM   26  N4  UNL     1      17.738   4.317  12.479  1.00  0.00    -0.310 N 
ATOM     27  H4  UNL     1      17.178   3.520  12.174  1.00  0.00     0.181 HD
BRANCH  26  28
HETATM   28  N5  UNL     1      17.302   5.004  13.601  1.00  0.00    -0.135 N 
ATOM     29  H5  UNL     1      17.639   5.955  13.751  1.00  0.00     0.205 HD
BRANCH  28  30
HETATM   30  C5  UNL     1      16.490   4.495  14.465  1.00  0.00     0.703 C 
HETATM   31  N6  UNL     1      15.681   5.309  15.155  1.00  0.00    -0.140 N 
HETATM   32  C6  UNL     1      14.975   4.987  16.271  1.00  0.00     0.341 C 
ATOM     33  H6  UNL     1      15.586   6.264  14.809  1.00  0.00     0.189 HD
HETATM   34  O1  UNL     1      14.193   5.875  16.678  1.00  0.00    -0.246 OA
HETATM   35  N7  UNL     1      14.990   3.862  17.001  1.00  0.00    -0.270 N 
HETATM   36  C7  UNL     1      15.654   2.728  16.760  1.00  0.00     0.318 C 
ATOM     37  H7  UNL     1      14.423   3.874  17.848  1.00  0.00     0.174 HD
HETATM   38  O2  UNL     1      15.701   1.868  17.680  1.00  0.00    -0.262 OA
HETATM   39  C8  UNL     1      16.330   2.344  15.597  1.00  0.00     0.328 C 
HETATM   40  O3  UNL     1      16.731   1.156  15.513  1.00  0.00    -0.261 OA
HETATM   41  N8  UNL     1      16.593   3.140  14.542  1.00  0.00    -0.150 N 
ATOM     42  H8  UNL     1      16.910   2.668  13.695  1.00  0.00     0.188 HD
ENDBRANCH  28  30
ENDBRANCH  26  28
ENDBRANCH   1  26
TORSDOF 9
ENDMDL
MODEL 5
REMARK VINA RESULT: -7.437771795      1.850      2.816
REMARK  9 active torsions:
REMARK  status: ('A' for Active; 'I' for Inactive)
REMARK    1  A    between atoms: C2_5  and  C3_6 
REMARK    2  A    between atoms: C3_6  and  C4_7 
REMARK    3  A    between atoms: C3_6  and  N4_12 
REMARK    4  A    between atoms: C4_7  and  N3_8 
REMARK    5  A    between atoms: N4_12  and  N5_14 
REMARK    6  A    between atoms: N5_14  and  C5_16 
REMARK    7  A    between atoms: C12_35  and  N10_36 
REMARK    8  A    between atoms: N11_39  and  C13_40 
REMARK    9  A    between atoms: C13_40  and  O5_41 
ROOT
HETATM    1  C3  UNL     1      18.688   5.822  12.159  1.00  0.00     0.180 C 
ENDROOT
BRANCH   1   2
HETATM    2  C2  UNL     1      17.923   6.518  11.101  1.00  0.00     0.104 A 
HETATM    3  N2  UNL     1      18.250   6.399   9.782  1.00  0.00    -0.295 N 
HETATM    4  N1  UNL     1      17.582   6.998   8.819  1.00  0.00    -0.278 N 
ATOM      5  H2  UNL     1      19.050   5.819   9.530  1.00  0.00     0.187 HD
HETATM    6  C1  UNL     1      17.985   6.827   7.438  1.00  0.00     0.179 C 
HETATM    7  C11 UNL     1      16.517   7.777   9.066  1.00  0.00     0.169 A 
HETATM    8  C10 UNL     1      16.111   7.955  10.375  1.00  0.00     0.152 A 
HETATM    9  N9  UNL     1      15.692   8.481   8.241  1.00  0.00    -0.173 N 
HETATM   10  C9  UNL     1      16.831   7.317  11.361  1.00  0.00     0.229 A 
HETATM   11  N11 UNL     1      15.046   8.766  10.318  1.00  0.00    -0.154 N 
HETATM   12  O4  UNL     1      16.423   7.513  12.545  1.00  0.00    -0.284 OA
HETATM   13  C12 UNL     1      14.782   9.092   9.014  1.00  0.00     0.682 A 
ATOM     14  H9  UNL     1      15.755   8.533   7.224  1.00  0.00     0.186 HD
BRANCH  11  15
HETATM   15  C13 UNL     1      14.282   9.227  11.457  1.00  0.00     0.314 C 
BRANCH  15  16
HETATM   16  O5  UNL     1      14.306  10.631  11.492  1.00  0.00    -0.381 OA
ATOM     17  H5  UNL     1      14.094  10.925  12.370  1.00  0.00     0.211 HD
ENDBRANCH  15  16
ENDBRANCH  11  15
BRANCH  13  18
HETATM   18  N10 UNL     1      13.803   9.867   8.659  1.00  0.00    -0.234 N 
ATOM     19 2H10 UNL     1      12.840   9.544   8.567  1.00  0.00     0.174 HD
ATOM     20 1H10 UNL     1      13.826  10.860   8.427  1.00  0.00     0.174 HD
ENDBRANCH  13  18
ENDBRANCH   1   2
BRANCH   1  21
HETATM   21  C4  UNL     1      19.716   4.921  11.435  1.00  0.00     0.262 C 
BRANCH  21  22
HETATM   22  N3  UNL     1      19.435   3.530  11.646  1.00  0.00    -0.077 N 
ATOM     23  H33 UNL     1      18.512   3.394  12.061  1.00  0.00     0.274 HD
ATOM     24  H32 UNL     1      19.284   3.041  10.764  1.00  0.00     0.274 HD
ATOM     25  H31 UNL     1      20.164   3.083  12.202  1.00  0.00     0.274 HD
ENDBRANCH  21  22
ENDBRANCH   1  21
BRANCH   1  26
HETATM   26  N4  UNL     1      17.918   4.995  13.030  1.00  0.00    -0.310 N 
ATOM     27  H4  UNL     1      17.676   4.064  12.692  1.00  0.00     0.181 HD
BRANCH  26  28
HETATM   28  N5  UNL     1      17.469   5.344  14.295  1.00  0.00    -0.135 N 
ATOM     29  H5  UNL     1      17.896   6.146  14.759  1.00  0.00     0.205 HD
BRANCH  28  30
HETATM   30  C5  UNL     1      16.535   4.701  14.911  1.00  0.00     0.703 C 
HETATM   31  N6  UNL     1      15.644   5.387  15.637  1.00  0.00    -0.140 N 
HETATM   32  C6  UNL     1      14.781   4.870  16.552  1.00  0.00     0.341 C 
ATOM     33  H6  UNL     1      15.609   6.396  15.489  1.00  0.00     0.189 HD
HETATM   34  O1  UNL     1      13.958   5.686  17.024  1.00  0.00    -0.246 OA
HETATM   35  N7  UNL     1      14.680   3.619  17.025  1.00  0.00    -0.270 N 
HETATM   36  C7  UNL     1      15.361   2.534  16.646  1.00  0.00     0.318 C 
ATOM     37  H7  UNL     1      13.997   3.479  17.769  1.00  0.00     0.174 HD
HETATM   38  O2  UNL     1      15.266   1.501  17.363  1.00  0.00    -0.262 OA
HETATM   39  C8  UNL     1      16.193   2.371  15.534  1.00  0.00     0.328 C 
HETATM   40  O3  UNL     1      16.590   1.211  15.259  1.00  0.00    -0.261 OA
HETATM   41  N8  UNL     1      16.614   3.356  14.716  1.00  0.00    -0.150 N 
ATOM     42  H8  UNL     1      17.045   3.057  13.841  1.00  0.00     0.188 HD
ENDBRANCH  28  30
ENDBRANCH  26  28
ENDBRANCH   1  26
TORSDOF 9
ENDMDL
