MODEL 1
REMARK VINA RESULT: -8.868095099      0.000      0.000
REMARK  7 active torsions:
REMARK  status: ('A' for Active; 'I' for Inactive)
REMARK    1  A    between atoms: C9_9  and  O1_10 
REMARK    2  A    between atoms: C10_12  and  C11_13 
REMARK    3  A    between atoms: C11_13  and  S1_14 
REMARK    4  A    between atoms: S1_14  and  C12_15 
REMARK    5  A    between atoms: N4_22  and  C13_23 
REMARK    6  A    between atoms: C16_26  and  N5_27 
REMARK    7  A    between atoms: N6_29  and  C17_31 
ROOT
HETATM    1  S1  UNL     1      35.762  -0.435 -23.274  1.00  0.00    -0.090 SA
ENDROOT
BRANCH   1   2
HETATM    2  C11 UNL     1      35.281   1.159 -22.644  1.00  0.00     0.090 C 
BRANCH   2   3
HETATM    3  C10 UNL     1      35.110   1.240 -21.133  1.00  0.00     0.031 C 
HETATM    4  C9  UNL     1      35.672   2.534 -20.605  1.00  0.00     0.070 C 
HETATM    5  C8  UNL     1      37.112   2.463 -20.204  1.00  0.00     0.039 C 
HETATM    6  C22 UNL     1      34.832   2.928 -19.434  1.00  0.00    -0.009 C 
HETATM    7  C7  UNL     1      37.277   1.392 -19.202  1.00  0.00     0.008 C 
HETATM    8  C6  UNL     1      36.273   1.307 -18.106  1.00  0.00    -0.004 C 
HETATM    9  C5  UNL     1      35.045   2.121 -18.201  1.00  0.00     0.001 C 
HETATM   10  C24 UNL     1      36.995   1.387 -16.773  1.00  0.00     0.006 C 
HETATM   11  C4  UNL     1      34.718   2.907 -16.930  1.00  0.00     0.007 C 
HETATM   12  C3  UNL     1      35.877   3.580 -16.309  1.00  0.00     0.018 C 
HETATM   13  C2  UNL     1      37.079   2.694 -16.121  1.00  0.00     0.021 C 
HETATM   14  C1  UNL     1      38.375   3.452 -16.444  1.00  0.00     0.024 C 
HETATM   15  C27 UNL     1      37.216   2.351 -14.677  1.00  0.00     0.135 C 
HETATM   16  C26 UNL     1      36.545   1.068 -14.417  1.00  0.00     0.079 C 
HETATM   17  O2  UNL     1      37.788   3.012 -13.830  1.00  0.00    -0.297 OA
HETATM   18  C25 UNL     1      36.446   0.412 -15.750  1.00  0.00     0.013 C 
HETATM   19  C21 UNL     1      33.444   2.688 -20.070  1.00  0.00     0.013 C 
HETATM   20  C23 UNL     1      34.948   4.418 -19.285  1.00  0.00     0.019 C 
HETATM   21  C20 UNL     1      33.633   1.402 -20.853  1.00  0.00     0.009 C 
BRANCH   4  22
HETATM   22  O1  UNL     1      35.576   3.499 -21.600  1.00  0.00    -0.389 OA
ATOM     23  H1  UNL     1      35.292   3.055 -22.391  1.00  0.00     0.210 HD
ENDBRANCH   4  22
ENDBRANCH   2   3
ENDBRANCH   1   2
BRANCH   1  24
HETATM   24  C12 UNL     1      34.729  -1.783 -22.889  1.00  0.00     0.183 A 
HETATM   25  N1  UNL     1      33.689  -2.247 -23.599  1.00  0.00    -0.263 N 
HETATM   26  N2  UNL     1      33.130  -3.273 -23.021  1.00  0.00    -0.226 N 
ATOM     27  H1  UNL     1      33.374  -1.846 -24.482  1.00  0.00     0.190 HD
HETATM   28  N3  UNL     1      33.804  -3.490 -21.925  1.00  0.00    -0.219 N 
ATOM     29  H2  UNL     1      32.326  -3.802 -23.358  1.00  0.00     0.210 HD
HETATM   30  N4  UNL     1      34.800  -2.587 -21.811  1.00  0.00    -0.217 N 
ATOM     31  H3  UNL     1      33.607  -4.231 -21.253  1.00  0.00     0.210 HD
BRANCH  30  32
HETATM   32  C13 UNL     1      35.709  -2.565 -20.717  1.00  0.00     0.062 A 
HETATM   33  C14 UNL     1      35.266  -2.146 -19.483  1.00  0.00     0.034 A 
HETATM   34  C15 UNL     1      36.100  -2.094 -18.379  1.00  0.00     0.035 A 
HETATM   35  C16 UNL     1      37.436  -2.479 -18.521  1.00  0.00     0.070 A 
HETATM   36  C18 UNL     1      37.895  -2.902 -19.751  1.00  0.00     0.064 A 
HETATM   37 CL1  UNL     1      39.583  -3.398 -19.962  1.00  0.00    -0.082 Cl
HETATM   38  C19 UNL     1      37.027  -2.941 -20.838  1.00  0.00     0.058 A 
BRANCH  35  39
HETATM   39  N5  UNL     1      38.340  -2.446 -17.422  1.00  0.00    -0.297 N 
HETATM   40  N6  UNL     1      39.127  -1.451 -17.227  1.00  0.00    -0.278 N 
ATOM     41  H6  UNL     1      39.138  -0.644 -17.850  1.00  0.00     0.189 HD
ATOM     42  H5  UNL     1      38.363  -3.233 -16.773  1.00  0.00     0.187 HD
BRANCH  40  43
HETATM   43  C17 UNL     1      39.987  -1.538 -16.089  1.00  0.00     0.199 C 
HETATM   44  N7  UNL     1      40.689  -2.742 -15.829  1.00  0.00    -0.068 NA
HETATM   45  S2  UNL     1      40.176  -0.270 -15.080  1.00  0.00    -0.043 SA
ENDBRANCH  40  43
ENDBRANCH  35  39
ENDBRANCH  30  32
ENDBRANCH   1  24
TORSDOF 7
ENDMDL
MODEL 2
REMARK VINA RESULT: -8.819294486      3.538      5.190
REMARK  7 active torsions:
REMARK  status: ('A' for Active; 'I' for Inactive)
REMARK    1  A    between atoms: C9_9  and  O1_10 
REMARK    2  A    between atoms: C10_12  and  C11_13 
REMARK    3  A    between atoms: C11_13  and  S1_14 
REMARK    4  A    between atoms: S1_14  and  C12_15 
REMARK    5  A    between atoms: N4_22  and  C13_23 
REMARK    6  A    between atoms: C16_26  and  N5_27 
REMARK    7  A    between atoms: N6_29  and  C17_31 
ROOT
HETATM    1  S1  UNL     1      34.482  -1.811 -20.325  1.00  0.00    -0.090 SA
ENDROOT
BRANCH   1   2
HETATM    2  C11 UNL     1      36.088  -1.489 -19.628  1.00  0.00     0.090 C 
BRANCH   2   3
HETATM    3  C10 UNL     1      36.088  -0.689 -18.332  1.00  0.00     0.031 C 
HETATM    4  C9  UNL     1      37.102   0.423 -18.397  1.00  0.00     0.070 C 
HETATM    5  C8  UNL     1      38.460   0.048 -17.892  1.00  0.00     0.039 C 
HETATM    6  C22 UNL     1      36.554   1.561 -17.599  1.00  0.00    -0.009 C 
HETATM    7  C7  UNL     1      38.336  -0.445 -16.507  1.00  0.00     0.008 C 
HETATM    8  C6  UNL     1      37.463   0.320 -15.574  1.00  0.00    -0.004 C 
HETATM    9  C5  UNL     1      36.585   1.372 -16.122  1.00  0.00     0.001 C 
HETATM   10  C24 UNL     1      38.283   0.733 -14.364  1.00  0.00     0.006 C 
HETATM   11  C4  UNL     1      36.659   2.701 -15.369  1.00  0.00     0.007 C 
HETATM   12  C3  UNL     1      38.028   3.136 -15.025  1.00  0.00     0.018 C 
HETATM   13  C2  UNL     1      38.865   2.075 -14.363  1.00  0.00     0.021 C 
HETATM   14  C1  UNL     1      40.309   2.111 -14.885  1.00  0.00     0.024 C 
HETATM   15  C27 UNL     1      39.003   2.390 -12.912  1.00  0.00     0.135 C 
HETATM   16  C26 UNL     1      37.959   1.678 -12.160  1.00  0.00     0.079 C 
HETATM   17  O2  UNL     1      39.838   3.118 -12.408  1.00  0.00    -0.297 OA
HETATM   18  C25 UNL     1      37.525   0.575 -13.061  1.00  0.00     0.013 C 
HETATM   19  C21 UNL     1      35.118   1.555 -18.169  1.00  0.00     0.013 C 
HETATM   20  C23 UNL     1      37.186   2.817 -18.124  1.00  0.00     0.019 C 
HETATM   21  C20 UNL     1      34.786   0.079 -18.275  1.00  0.00     0.009 C 
BRANCH   4  22
HETATM   22  O1  UNL     1      37.257   0.808 -19.723  1.00  0.00    -0.389 OA
ATOM     23  H1  UNL     1      36.384   0.889 -20.091  1.00  0.00     0.210 HD
ENDBRANCH   4  22
ENDBRANCH   2   3
ENDBRANCH   1   2
BRANCH   1  24
HETATM   24  C12 UNL     1      34.288  -1.524 -22.033  1.00  0.00     0.183 A 
HETATM   25  N1  UNL     1      34.188  -2.438 -23.010  1.00  0.00    -0.263 N 
HETATM   26  N2  UNL     1      34.054  -1.880 -24.180  1.00  0.00    -0.226 N 
ATOM     27  H1  UNL     1      34.213  -3.447 -22.856  1.00  0.00     0.190 HD
HETATM   28  N3  UNL     1      34.065  -0.591 -23.976  1.00  0.00    -0.219 N 
ATOM     29  H2  UNL     1      33.959  -2.355 -25.078  1.00  0.00     0.210 HD
HETATM   30  N4  UNL     1      34.208  -0.335 -22.660  1.00  0.00    -0.217 N 
ATOM     31  H3  UNL     1      33.978   0.118 -24.704  1.00  0.00     0.210 HD
BRANCH  30  32
HETATM   32  C13 UNL     1      34.256   0.981 -22.123  1.00  0.00     0.062 A 
HETATM   33  C14 UNL     1      33.212   1.430 -21.348  1.00  0.00     0.034 A 
HETATM   34  C15 UNL     1      33.192   2.702 -20.800  1.00  0.00     0.035 A 
HETATM   35  C16 UNL     1      34.269   3.559 -21.043  1.00  0.00     0.070 A 
HETATM   36  C18 UNL     1      35.324   3.125 -21.818  1.00  0.00     0.064 A 
HETATM   37 CL1  UNL     1      36.703   4.188 -22.142  1.00  0.00    -0.082 Cl
HETATM   38  C19 UNL     1      35.308   1.840 -22.351  1.00  0.00     0.058 A 
BRANCH  35  39
HETATM   39  N5  UNL     1      34.305   4.878 -20.508  1.00  0.00    -0.297 N 
HETATM   40  N6  UNL     1      33.598   5.211 -19.489  1.00  0.00    -0.278 N 
ATOM     41  H6  UNL     1      32.981   4.547 -19.022  1.00  0.00     0.189 HD
ATOM     42  H5  UNL     1      34.908   5.576 -20.944  1.00  0.00     0.187 HD
BRANCH  40  43
HETATM   43  C17 UNL     1      33.723   6.565 -19.048  1.00  0.00     0.199 C 
HETATM   44  N7  UNL     1      33.516   6.879 -17.681  1.00  0.00    -0.068 NA
HETATM   45  S2  UNL     1      34.101   7.758 -20.094  1.00  0.00    -0.043 SA
ENDBRANCH  40  43
ENDBRANCH  35  39
ENDBRANCH  30  32
ENDBRANCH   1  24
TORSDOF 7
ENDMDL
MODEL 3
REMARK VINA RESULT: -8.760603338      3.906      5.743
REMARK  7 active torsions:
REMARK  status: ('A' for Active; 'I' for Inactive)
REMARK    1  A    between atoms: C9_9  and  O1_10 
REMARK    2  A    between atoms: C10_12  and  C11_13 
REMARK    3  A    between atoms: C11_13  and  S1_14 
REMARK    4  A    between atoms: S1_14  and  C12_15 
REMARK    5  A    between atoms: N4_22  and  C13_23 
REMARK    6  A    between atoms: C16_26  and  N5_27 
REMARK    7  A    between atoms: N6_29  and  C17_31 
ROOT
HETATM    1  S1  UNL     1      35.847  -1.628 -18.786  1.00  0.00    -0.090 SA
ENDROOT
BRANCH   1   2
HETATM    2  C11 UNL     1      36.525  -0.007 -18.502  1.00  0.00     0.090 C 
BRANCH   2   3
HETATM    3  C10 UNL     1      36.702   0.379 -17.038  1.00  0.00     0.031 C 
HETATM    4  C9  UNL     1      37.906   1.268 -16.867  1.00  0.00     0.070 C 
HETATM    5  C8  UNL     1      39.178   0.533 -16.584  1.00  0.00     0.039 C 
HETATM    6  C22 UNL     1      37.597   2.209 -15.749  1.00  0.00    -0.009 C 
HETATM    7  C7  UNL     1      38.990  -0.304 -15.384  1.00  0.00     0.008 C 
HETATM    8  C6  UNL     1      38.296   0.305 -14.216  1.00  0.00    -0.004 C 
HETATM    9  C5  UNL     1      37.620   1.606 -14.388  1.00  0.00     0.001 C 
HETATM   10  C24 UNL     1      39.202   0.207 -13.001  1.00  0.00     0.006 C 
HETATM   11  C4  UNL     1      37.958   2.633 -13.305  1.00  0.00     0.007 C 
HETATM   12  C3  UNL     1      39.391   2.705 -12.953  1.00  0.00     0.018 C 
HETATM   13  C2  UNL     1      40.026   1.370 -12.672  1.00  0.00     0.021 C 
HETATM   14  C1  UNL     1      41.441   1.299 -13.266  1.00  0.00     0.024 C 
HETATM   15  C27 UNL     1      40.249   1.230 -11.204  1.00  0.00     0.135 C 
HETATM   16  C26 UNL     1      39.105   0.528 -10.605  1.00  0.00     0.079 C 
HETATM   17  O2  UNL     1      41.216   1.627 -10.581  1.00  0.00    -0.297 OA
HETATM   18  C25 UNL     1      38.453  -0.180 -11.741  1.00  0.00     0.013 C 
HETATM   19  C21 UNL     1      36.175   2.618 -16.194  1.00  0.00     0.013 C 
HETATM   20  C23 UNL     1      38.444   3.433 -15.952  1.00  0.00     0.019 C 
HETATM   21  C20 UNL     1      35.569   1.314 -16.679  1.00  0.00     0.009 C 
BRANCH   4  22
HETATM   22  O1  UNL     1      38.103   1.981 -18.044  1.00  0.00    -0.389 OA
ATOM     23  H1  UNL     1      37.524   2.733 -18.012  1.00  0.00     0.210 HD
ENDBRANCH   4  22
ENDBRANCH   2   3
ENDBRANCH   1   2
BRANCH   1  24
HETATM   24  C12 UNL     1      34.886  -1.844 -20.223  1.00  0.00     0.183 A 
HETATM   25  N1  UNL     1      34.644  -2.987 -20.882  1.00  0.00    -0.263 N 
HETATM   26  N2  UNL     1      33.884  -2.792 -21.923  1.00  0.00    -0.226 N 
ATOM     27  H1  UNL     1      35.010  -3.898 -20.603  1.00  0.00     0.190 HD
HETATM   28  N3  UNL     1      33.622  -1.514 -21.951  1.00  0.00    -0.219 N 
ATOM     29  H2  UNL     1      33.559  -3.498 -22.584  1.00  0.00     0.210 HD
HETATM   30  N4  UNL     1      34.225  -0.897 -20.915  1.00  0.00    -0.217 N 
ATOM     31  H3  UNL     1      33.046  -1.050 -22.654  1.00  0.00     0.210 HD
BRANCH  30  32
HETATM   32  C13 UNL     1      34.126   0.501 -20.677  1.00  0.00     0.062 A 
HETATM   33  C14 UNL     1      33.192   0.966 -19.780  1.00  0.00     0.034 A 
HETATM   34  C15 UNL     1      33.039   2.315 -19.506  1.00  0.00     0.035 A 
HETATM   35  C16 UNL     1      33.859   3.236 -20.163  1.00  0.00     0.070 A 
HETATM   36  C18 UNL     1      34.801   2.787 -21.066  1.00  0.00     0.064 A 
HETATM   37 CL1  UNL     1      35.856   3.930 -21.914  1.00  0.00    -0.082 Cl
HETATM   38  C19 UNL     1      34.925   1.423 -21.315  1.00  0.00     0.058 A 
BRANCH  35  39
HETATM   39  N5  UNL     1      33.748   4.635 -19.924  1.00  0.00    -0.297 N 
HETATM   40  N6  UNL     1      33.866   5.128 -18.745  1.00  0.00    -0.278 N 
ATOM     41  H6  UNL     1      34.045   4.541 -17.931  1.00  0.00     0.189 HD
ATOM     42  H5  UNL     1      33.569   5.261 -20.710  1.00  0.00     0.187 HD
BRANCH  40  43
HETATM   43  C17 UNL     1      33.734   6.548 -18.637  1.00  0.00     0.199 C 
HETATM   44  N7  UNL     1      33.380   7.127 -17.392  1.00  0.00    -0.068 NA
HETATM   45  S2  UNL     1      33.985   7.516 -19.926  1.00  0.00    -0.043 SA
ENDBRANCH  40  43
ENDBRANCH  35  39
ENDBRANCH  30  32
ENDBRANCH   1  24
TORSDOF 7
ENDMDL
MODEL 4
REMARK VINA RESULT: -8.747440482      2.974      3.428
REMARK  7 active torsions:
REMARK  status: ('A' for Active; 'I' for Inactive)
REMARK    1  A    between atoms: C9_9  and  O1_10 
REMARK    2  A    between atoms: C10_12  and  C11_13 
REMARK    3  A    between atoms: C11_13  and  S1_14 
REMARK    4  A    between atoms: S1_14  and  C12_15 
REMARK    5  A    between atoms: N4_22  and  C13_23 
REMARK    6  A    between atoms: C16_26  and  N5_27 
REMARK    7  A    between atoms: N6_29  and  C17_31 
ROOT
HETATM    1  S1  UNL     1      33.536  -0.327 -23.061  1.00  0.00    -0.090 SA
ENDROOT
BRANCH   1   2
HETATM    2  C11 UNL     1      34.526   0.997 -22.403  1.00  0.00     0.090 C 
BRANCH   2   3
HETATM    3  C10 UNL     1      34.524   1.123 -20.885  1.00  0.00     0.031 C 
HETATM    4  C9  UNL     1      35.148   2.426 -20.461  1.00  0.00     0.070 C 
HETATM    5  C8  UNL     1      36.623   2.353 -20.218  1.00  0.00     0.039 C 
HETATM    6  C22 UNL     1      34.445   2.861 -19.216  1.00  0.00    -0.009 C 
HETATM    7  C7  UNL     1      36.890   1.310 -19.210  1.00  0.00     0.008 C 
HETATM    8  C6  UNL     1      36.013   1.265 -18.008  1.00  0.00    -0.004 C 
HETATM    9  C5  UNL     1      34.787   2.087 -17.990  1.00  0.00     0.001 C 
HETATM   10  C24 UNL     1      36.878   1.376 -16.765  1.00  0.00     0.006 C 
HETATM   11  C4  UNL     1      34.607   2.913 -16.716  1.00  0.00     0.007 C 
HETATM   12  C3  UNL     1      35.830   3.592 -16.245  1.00  0.00     0.018 C 
HETATM   13  C2  UNL     1      37.041   2.700 -16.164  1.00  0.00     0.021 C 
HETATM   14  C1  UNL     1      38.298   3.437 -16.650  1.00  0.00     0.024 C 
HETATM   15  C27 UNL     1      37.334   2.397 -14.735  1.00  0.00     0.135 C 
HETATM   16  C26 UNL     1      36.688   1.130 -14.365  1.00  0.00     0.079 C 
HETATM   17  O2  UNL     1      38.000   3.078 -13.975  1.00  0.00    -0.297 OA
HETATM   18  C25 UNL     1      36.438   0.436 -15.659  1.00  0.00     0.013 C 
HETATM   19  C21 UNL     1      32.994   2.616 -19.688  1.00  0.00     0.013 C 
HETATM   20  C23 UNL     1      34.586   4.353 -19.125  1.00  0.00     0.019 C 
HETATM   21  C20 UNL     1      33.087   1.307 -20.449  1.00  0.00     0.009 C 
BRANCH   4  22
HETATM   22  O1  UNL     1      34.950   3.363 -21.467  1.00  0.00    -0.389 OA
ATOM     23  H1  UNL     1      34.085   3.203 -21.828  1.00  0.00     0.210 HD
ENDBRANCH   4  22
ENDBRANCH   2   3
ENDBRANCH   1   2
BRANCH   1  24
HETATM   24  C12 UNL     1      34.080  -1.953 -22.749  1.00  0.00     0.183 A 
HETATM   25  N1  UNL     1      33.326  -3.036 -22.505  1.00  0.00    -0.263 N 
HETATM   26  N2  UNL     1      34.057  -4.098 -22.311  1.00  0.00    -0.226 N 
ATOM     27  H1  UNL     1      32.307  -3.029 -22.474  1.00  0.00     0.190 HD
HETATM   28  N3  UNL     1      35.299  -3.715 -22.429  1.00  0.00    -0.219 N 
ATOM     29  H2  UNL     1      33.724  -5.040 -22.108  1.00  0.00     0.210 HD
HETATM   30  N4  UNL     1      35.351  -2.396 -22.699  1.00  0.00    -0.217 N 
ATOM     31  H3  UNL     1      36.111  -4.325 -22.330  1.00  0.00     0.210 HD
BRANCH  30  32
HETATM   32  C13 UNL     1      36.569  -1.685 -22.882  1.00  0.00     0.062 A 
HETATM   33  C14 UNL     1      37.336  -1.373 -21.783  1.00  0.00     0.034 A 
HETATM   34  C15 UNL     1      38.530  -0.677 -21.890  1.00  0.00     0.035 A 
HETATM   35  C16 UNL     1      38.970  -0.280 -23.156  1.00  0.00     0.070 A 
HETATM   36  C18 UNL     1      38.213  -0.586 -24.267  1.00  0.00     0.064 A 
HETATM   37 CL1  UNL     1      38.746  -0.097 -25.884  1.00  0.00    -0.082 Cl
HETATM   38  C19 UNL     1      37.020  -1.286 -24.120  1.00  0.00     0.058 A 
BRANCH  35  39
HETATM   39  N5  UNL     1      40.188   0.437 -23.328  1.00  0.00    -0.297 N 
HETATM   40  N6  UNL     1      41.022   0.589 -22.364  1.00  0.00    -0.278 N 
ATOM     41  H6  UNL     1      40.849   0.204 -21.436  1.00  0.00     0.189 HD
ATOM     42  H5  UNL     1      40.403   0.840 -24.240  1.00  0.00     0.187 HD
BRANCH  40  43
HETATM   43  C17 UNL     1      42.208   1.329 -22.665  1.00  0.00     0.199 C 
HETATM   44  N7  UNL     1      42.107   2.686 -23.061  1.00  0.00    -0.068 NA
HETATM   45  S2  UNL     1      43.681   0.636 -22.557  1.00  0.00    -0.043 SA
ENDBRANCH  40  43
ENDBRANCH  35  39
ENDBRANCH  30  32
ENDBRANCH   1  24
TORSDOF 7
ENDMDL
MODEL 5
REMARK VINA RESULT: -8.688108571      3.666      5.007
REMARK  7 active torsions:
REMARK  status: ('A' for Active; 'I' for Inactive)
REMARK    1  A    between atoms: C9_9  and  O1_10 
REMARK    2  A    between atoms: C10_12  and  C11_13 
REMARK    3  A    between atoms: C11_13  and  S1_14 
REMARK    4  A    between atoms: S1_14  and  C12_15 
REMARK    5  A    between atoms: N4_22  and  C13_23 
REMARK    6  A    between atoms: C16_26  and  N5_27 
REMARK    7  A    between atoms: N6_29  and  C17_31 
ROOT
HETATM    1  S1  UNL     1      33.668  -2.220 -22.723  1.00  0.00    -0.090 SA
ENDROOT
BRANCH   1   2
HETATM    2  C11 UNL     1      33.687  -1.126 -21.320  1.00  0.00     0.090 C 
BRANCH   2   3
HETATM    3  C10 UNL     1      33.897   0.348 -21.644  1.00  0.00     0.031 C 
HETATM    4  C9  UNL     1      34.694   1.020 -20.557  1.00  0.00     0.070 C 
HETATM    5  C8  UNL     1      33.863   1.620 -19.465  1.00  0.00     0.039 C 
HETATM    6  C22 UNL     1      35.520   2.078 -21.213  1.00  0.00    -0.009 C 
HETATM    7  C7  UNL     1      32.909   2.575 -20.060  1.00  0.00     0.008 C 
HETATM    8  C6  UNL     1      33.421   3.509 -21.101  1.00  0.00    -0.004 C 
HETATM    9  C5  UNL     1      34.768   3.284 -21.660  1.00  0.00     0.001 C 
HETATM   10  C24 UNL     1      33.138   4.935 -20.661  1.00  0.00     0.006 C 
HETATM   11  C4  UNL     1      35.647   4.535 -21.694  1.00  0.00     0.007 C 
HETATM   12  C3  UNL     1      35.601   5.352 -20.465  1.00  0.00     0.018 C 
HETATM   13  C2  UNL     1      34.210   5.662 -19.981  1.00  0.00     0.021 C 
HETATM   14  C1  UNL     1      34.129   5.571 -18.450  1.00  0.00     0.024 C 
HETATM   15  C27 UNL     1      33.895   7.090 -20.270  1.00  0.00     0.135 C 
HETATM   16  C26 UNL     1      33.194   7.181 -21.559  1.00  0.00     0.079 C 
HETATM   17  O2  UNL     1      34.167   8.045 -19.565  1.00  0.00    -0.297 OA
HETATM   18  C25 UNL     1      32.654   5.814 -21.797  1.00  0.00     0.013 C 
HETATM   19  C21 UNL     1      36.053   1.237 -22.395  1.00  0.00     0.013 C 
HETATM   20  C23 UNL     1      36.710   2.323 -20.331  1.00  0.00     0.019 C 
HETATM   21  C20 UNL     1      34.847   0.421 -22.819  1.00  0.00     0.009 C 
BRANCH   4  22
HETATM   22  O1  UNL     1      35.522   0.076 -19.963  1.00  0.00    -0.389 OA
ATOM     23  H1  UNL     1      36.127   0.550 -19.405  1.00  0.00     0.210 HD
ENDBRANCH   4  22
ENDBRANCH   2   3
ENDBRANCH   1   2
BRANCH   1  24
HETATM   24  C12 UNL     1      34.634  -3.665 -22.614  1.00  0.00     0.183 A 
HETATM   25  N1  UNL     1      34.206  -4.937 -22.597  1.00  0.00    -0.263 N 
HETATM   26  N2  UNL     1      35.198  -5.778 -22.504  1.00  0.00    -0.226 N 
ATOM     27  H1  UNL     1      33.225  -5.212 -22.650  1.00  0.00     0.190 HD
HETATM   28  N3  UNL     1      36.286  -5.059 -22.461  1.00  0.00    -0.219 N 
ATOM     29  H2  UNL     1      35.136  -6.796 -22.472  1.00  0.00     0.210 HD
HETATM   30  N4  UNL     1      35.975  -3.749 -22.527  1.00  0.00    -0.217 N 
ATOM     31  H3  UNL     1      37.233  -5.433 -22.388  1.00  0.00     0.210 HD
BRANCH  30  32
HETATM   32  C13 UNL     1      36.951  -2.715 -22.500  1.00  0.00     0.062 A 
HETATM   33  C14 UNL     1      37.536  -2.373 -21.303  1.00  0.00     0.034 A 
HETATM   34  C15 UNL     1      38.489  -1.371 -21.206  1.00  0.00     0.035 A 
HETATM   35  C16 UNL     1      38.868  -0.685 -22.362  1.00  0.00     0.070 A 
HETATM   36  C18 UNL     1      38.291  -1.015 -23.571  1.00  0.00     0.064 A 
HETATM   37 CL1  UNL     1      38.753  -0.164 -25.054  1.00  0.00    -0.082 Cl
HETATM   38  C19 UNL     1      37.338  -2.027 -23.629  1.00  0.00     0.058 A 
BRANCH  35  39
HETATM   39  N5  UNL     1      39.840   0.354 -22.325  1.00  0.00    -0.297 N 
HETATM   40  N6  UNL     1      41.028   0.150 -21.882  1.00  0.00    -0.278 N 
ATOM     41  H6  UNL     1      41.325  -0.763 -21.539  1.00  0.00     0.189 HD
ATOM     42  H5  UNL     1      39.587   1.285 -22.658  1.00  0.00     0.187 HD
BRANCH  40  43
HETATM   43  C17 UNL     1      41.911   1.274 -21.897  1.00  0.00     0.199 C 
HETATM   44  N7  UNL     1      41.712   2.310 -22.844  1.00  0.00    -0.068 NA
HETATM   45  S2  UNL     1      43.147   1.386 -20.838  1.00  0.00    -0.043 SA
ENDBRANCH  40  43
ENDBRANCH  35  39
ENDBRANCH  30  32
ENDBRANCH   1  24
TORSDOF 7
ENDMDL
