MODEL 1
REMARK VINA RESULT: -7.185804415      0.000      0.000
REMARK  8 active torsions:
REMARK  status: ('A' for Active; 'I' for Inactive)
REMARK    1  A    between atoms: O1_2  and  C2_3 
REMARK    2  A    between atoms: C3_4  and  O2_5 
REMARK    3  A    between atoms: C6_9  and  O3_10 
REMARK    4  A    between atoms: C8_12  and  O4_13 
REMARK    5  A    between atoms: C10_15  and  O5_16 
REMARK    6  A    between atoms: C11_20  and  C12_21 
REMARK    7  A    between atoms: C19_31  and  O8_32 
REMARK    8  A    between atoms: C24_37  and  O9_38 
ROOT
HETATM    1  C2  UNL     1     -21.934  -3.016  30.361  1.00  0.00     0.138 A 
HETATM    2  C3  UNL     1     -21.207  -3.997  29.733  1.00  0.00     0.113 A 
HETATM    3  C4  UNL     1     -21.735  -4.892  28.778  1.00  0.00     0.018 A 
HETATM    4  C5  UNL     1     -23.070  -4.744  28.486  1.00  0.00     0.064 A 
HETATM    5  C6  UNL     1     -23.811  -3.727  29.140  1.00  0.00     0.119 A 
HETATM    6  C8  UNL     1     -23.255  -2.869  30.069  1.00  0.00     0.139 A 
HETATM    7  C10 UNL     1     -23.877  -5.542  27.562  1.00  0.00     0.150 C 
HETATM    8  N1  UNL     1     -23.921  -6.868  27.178  1.00  0.00    -0.363 N 
ATOM      9  H1  UNL     1     -24.358  -6.970  26.262  1.00  0.00     0.162 HD
HETATM   10  C11 UNL     1     -23.527  -8.134  27.704  1.00  0.00     0.115 C 
HETATM   11  C15 UNL     1     -23.452  -9.145  26.535  1.00  0.00     0.138 C 
HETATM   12  C16 UNL     1     -22.091  -9.536  26.179  1.00  0.00     0.261 C 
HETATM   13  O6  UNL     1     -21.380 -10.015  27.121  1.00  0.00    -0.265 OA
HETATM   14  O7  UNL     1     -21.499  -9.444  24.954  1.00  0.00    -0.314 OA
HETATM   15  C17 UNL     1     -21.851  -9.846  23.700  1.00  0.00     0.156 C 
HETATM   16  C18 UNL     1     -23.329 -10.042  23.470  1.00  0.00     0.042 C 
HETATM   17  C19 UNL     1     -21.342  -8.918  22.619  1.00  0.00     0.150 C 
HETATM   18  C21 UNL     1     -20.437  -7.923  23.271  1.00  0.00     0.041 C 
HETATM   19  C22 UNL     1     -21.082  -6.687  23.768  1.00  0.00     0.013 C 
HETATM   20  C23 UNL     1     -21.754  -5.875  22.680  1.00  0.00     0.012 C 
HETATM   21  C24 UNL     1     -20.066  -5.842  24.526  1.00  0.00     0.128 C 
HETATM   22  C26 UNL     1     -20.636  -5.395  25.825  1.00  0.00     0.066 C 
HETATM   23  C27 UNL     1     -20.251  -6.067  27.064  1.00  0.00    -0.080 C 
HETATM   24  C28 UNL     1     -19.167  -7.128  26.974  1.00  0.00     0.043 C 
HETATM   25  C29 UNL     1     -20.741  -5.820  28.277  1.00  0.00     0.018 C 
ENDROOT
BRANCH  10  26
HETATM   26  C12 UNL     1     -24.591  -8.786  28.609  1.00  0.00     0.050 C 
HETATM   27  C13 UNL     1     -24.551  -8.096  29.951  1.00  0.00     0.034 C 
HETATM   28  C14 UNL     1     -25.928  -8.721  27.963  1.00  0.00     0.034 C 
HETATM   29 CL1  UNL     1     -24.214 -10.500  28.876  1.00  0.00    -0.118 Cl
ENDBRANCH  10  26
BRANCH   7  30
HETATM   30  O5  UNL     1     -24.781  -4.780  26.956  1.00  0.00    -0.346 OA
ATOM     31  H5  UNL     1     -25.095  -5.201  26.165  1.00  0.00     0.219 HD
ENDBRANCH   7  30
BRANCH   5  32
HETATM   32  O3  UNL     1     -25.171  -3.514  28.887  1.00  0.00    -0.352 OA
HETATM   33  C7  UNL     1     -26.238  -4.006  29.624  1.00  0.00     0.210 C 
ENDBRANCH   5  32
BRANCH   2  34
HETATM   34  O2  UNL     1     -19.851  -4.056  30.124  1.00  0.00    -0.357 OA
ATOM     35  H2  UNL     1     -19.271  -3.506  29.610  1.00  0.00     0.217 HD
ENDBRANCH   2  34
BRANCH   6  36
HETATM   36  O4  UNL     1     -24.072  -1.899  30.655  1.00  0.00    -0.351 OA
HETATM   37  C9  UNL     1     -24.439  -2.047  31.993  1.00  0.00     0.210 C 
ENDBRANCH   6  36
BRANCH  17  38
HETATM   38  O8  UNL     1     -20.559  -9.703  21.758  1.00  0.00    -0.388 OA
HETATM   39  C20 UNL     1     -19.298  -9.146  21.577  1.00  0.00     0.202 C 
ENDBRANCH  17  38
BRANCH   1  40
HETATM   40  O1  UNL     1     -21.350  -2.166  31.294  1.00  0.00    -0.351 OA
HETATM   41  C1  UNL     1     -20.766  -0.935  31.032  1.00  0.00     0.210 C 
ENDBRANCH   1  40
BRANCH  21  42
HETATM   42  O9  UNL     1     -18.872  -6.520  24.547  1.00  0.00    -0.390 OA
HETATM   43  C25 UNL     1     -17.791  -5.813  24.052  1.00  0.00     0.202 C 
ENDBRANCH  21  42
TORSDOF 8
ENDMDL
MODEL 2
REMARK VINA RESULT: -7.129845596      3.209      5.122
REMARK  8 active torsions:
REMARK  status: ('A' for Active; 'I' for Inactive)
REMARK    1  A    between atoms: O1_2  and  C2_3 
REMARK    2  A    between atoms: C3_4  and  O2_5 
REMARK    3  A    between atoms: C6_9  and  O3_10 
REMARK    4  A    between atoms: C8_12  and  O4_13 
REMARK    5  A    between atoms: C10_15  and  O5_16 
REMARK    6  A    between atoms: C11_20  and  C12_21 
REMARK    7  A    between atoms: C19_31  and  O8_32 
REMARK    8  A    between atoms: C24_37  and  O9_38 
ROOT
HETATM    1  C2  UNL     1     -25.670   0.056  28.155  1.00  0.00     0.138 A 
HETATM    2  C3  UNL     1     -24.696  -0.913  28.155  1.00  0.00     0.113 A 
HETATM    3  C4  UNL     1     -24.917  -2.262  28.505  1.00  0.00     0.018 A 
HETATM    4  C5  UNL     1     -26.202  -2.589  28.867  1.00  0.00     0.064 A 
HETATM    5  C6  UNL     1     -27.199  -1.580  28.862  1.00  0.00     0.119 A 
HETATM    6  C8  UNL     1     -26.941  -0.269  28.511  1.00  0.00     0.139 A 
HETATM    7  C10 UNL     1     -26.705  -3.895  29.296  1.00  0.00     0.150 C 
HETATM    8  N1  UNL     1     -26.209  -4.955  30.030  1.00  0.00    -0.363 N 
ATOM      9  H1  UNL     1     -26.702  -5.819  29.807  1.00  0.00     0.162 HD
HETATM   10  C11 UNL     1     -25.200  -5.178  31.014  1.00  0.00     0.115 C 
HETATM   11  C15 UNL     1     -24.878  -6.691  31.045  1.00  0.00     0.138 C 
HETATM   12  C16 UNL     1     -23.572  -7.027  30.487  1.00  0.00     0.261 C 
HETATM   13  O6  UNL     1     -22.570  -6.431  31.000  1.00  0.00    -0.265 OA
HETATM   14  O7  UNL     1     -23.306  -7.906  29.478  1.00  0.00    -0.314 OA
HETATM   15  C17 UNL     1     -23.647  -9.205  29.238  1.00  0.00     0.156 C 
HETATM   16  C18 UNL     1     -24.891  -9.690  29.941  1.00  0.00     0.042 C 
HETATM   17  C19 UNL     1     -23.809  -9.509  27.766  1.00  0.00     0.150 C 
HETATM   18  C21 UNL     1     -23.356  -8.305  27.006  1.00  0.00     0.041 C 
HETATM   19  C22 UNL     1     -24.395  -7.291  26.718  1.00  0.00     0.013 C 
HETATM   20  C23 UNL     1     -25.538  -7.816  25.874  1.00  0.00     0.012 C 
HETATM   21  C24 UNL     1     -23.759  -6.068  26.068  1.00  0.00     0.128 C 
HETATM   22  C26 UNL     1     -24.236  -4.826  26.731  1.00  0.00     0.066 C 
HETATM   23  C27 UNL     1     -23.382  -4.135  27.694  1.00  0.00    -0.080 C 
HETATM   24  C28 UNL     1     -21.968  -4.662  27.877  1.00  0.00     0.043 C 
HETATM   25  C29 UNL     1     -23.713  -3.064  28.413  1.00  0.00     0.018 C 
ENDROOT
BRANCH  10  26
HETATM   26  C12 UNL     1     -25.680  -4.934  32.458  1.00  0.00     0.050 C 
HETATM   27  C13 UNL     1     -26.061  -6.266  33.057  1.00  0.00     0.034 C 
HETATM   28  C14 UNL     1     -24.632  -4.225  33.238  1.00  0.00     0.034 C 
HETATM   29 CL1  UNL     1     -27.130  -3.908  32.465  1.00  0.00    -0.118 Cl
ENDBRANCH  10  26
BRANCH   7  30
HETATM   30  O5  UNL     1     -27.946  -4.083  28.858  1.00  0.00    -0.346 OA
ATOM     31  H5  UNL     1     -27.983  -3.990  27.914  1.00  0.00     0.219 HD
ENDBRANCH   7  30
BRANCH   5  32
HETATM   32  O3  UNL     1     -28.528  -1.842  29.213  1.00  0.00    -0.352 OA
HETATM   33  C7  UNL     1     -29.119  -1.620  30.448  1.00  0.00     0.210 C 
ENDBRANCH   5  32
BRANCH   2  34
HETATM   34  O2  UNL     1     -23.416  -0.452  27.775  1.00  0.00    -0.357 OA
ATOM     35  H2  UNL     1     -22.707  -1.048  27.987  1.00  0.00     0.217 HD
ENDBRANCH   2  34
BRANCH   6  36
HETATM   36  O4  UNL     1     -27.994   0.648  28.539  1.00  0.00    -0.351 OA
HETATM   37  C9  UNL     1     -28.560   1.061  27.332  1.00  0.00     0.210 C 
ENDBRANCH   6  36
BRANCH  17  38
HETATM   38  O8  UNL     1     -22.916 -10.554  27.477  1.00  0.00    -0.388 OA
HETATM   39  C20 UNL     1     -21.810 -10.090  26.773  1.00  0.00     0.202 C 
ENDBRANCH  17  38
BRANCH   1  40
HETATM   40  O1  UNL     1     -25.383   1.370  27.800  1.00  0.00    -0.351 OA
HETATM   41  C1  UNL     1     -25.266   1.865  26.508  1.00  0.00     0.210 C 
ENDBRANCH   1  40
BRANCH  21  42
HETATM   42  O9  UNL     1     -22.403  -6.277  25.993  1.00  0.00    -0.390 OA
HETATM   43  C25 UNL     1     -21.874  -6.219  24.716  1.00  0.00     0.202 C 
ENDBRANCH  21  42
TORSDOF 8
ENDMDL
MODEL 3
REMARK VINA RESULT: -7.083154195      1.154      1.258
REMARK  8 active torsions:
REMARK  status: ('A' for Active; 'I' for Inactive)
REMARK    1  A    between atoms: O1_2  and  C2_3 
REMARK    2  A    between atoms: C3_4  and  O2_5 
REMARK    3  A    between atoms: C6_9  and  O3_10 
REMARK    4  A    between atoms: C8_12  and  O4_13 
REMARK    5  A    between atoms: C10_15  and  O5_16 
REMARK    6  A    between atoms: C11_20  and  C12_21 
REMARK    7  A    between atoms: C19_31  and  O8_32 
REMARK    8  A    between atoms: C24_37  and  O9_38 
ROOT
HETATM    1  C2  UNL     1     -23.430  -3.050  31.135  1.00  0.00     0.138 A 
HETATM    2  C3  UNL     1     -22.457  -3.858  30.597  1.00  0.00     0.113 A 
HETATM    3  C4  UNL     1     -22.677  -4.780  29.552  1.00  0.00     0.018 A 
HETATM    4  C5  UNL     1     -23.962  -4.850  29.069  1.00  0.00     0.064 A 
HETATM    5  C6  UNL     1     -24.958  -4.012  29.633  1.00  0.00     0.119 A 
HETATM    6  C8  UNL     1     -24.700  -3.119  30.655  1.00  0.00     0.139 A 
HETATM    7  C10 UNL     1     -24.475  -5.727  28.016  1.00  0.00     0.150 C 
HETATM    8  N1  UNL     1     -24.227  -7.020  27.596  1.00  0.00    -0.363 N 
ATOM      9  H1  UNL     1     -24.505  -7.149  26.623  1.00  0.00     0.162 HD
HETATM   10  C11 UNL     1     -23.692  -8.224  28.142  1.00  0.00     0.115 C 
HETATM   11  C15 UNL     1     -23.274  -9.145  26.971  1.00  0.00     0.138 C 
HETATM   12  C16 UNL     1     -21.828  -9.276  26.811  1.00  0.00     0.261 C 
HETATM   13  O6  UNL     1     -21.183  -9.673  27.835  1.00  0.00    -0.265 OA
HETATM   14  O7  UNL     1     -21.095  -9.021  25.690  1.00  0.00    -0.314 OA
HETATM   15  C17 UNL     1     -21.189  -9.412  24.387  1.00  0.00     0.156 C 
HETATM   16  C18 UNL     1     -22.561  -9.848  23.936  1.00  0.00     0.042 C 
HETATM   17  C19 UNL     1     -20.707  -8.356  23.418  1.00  0.00     0.150 C 
HETATM   18  C21 UNL     1     -20.095  -7.255  24.221  1.00  0.00     0.041 C 
HETATM   19  C22 UNL     1     -21.014  -6.176  24.649  1.00  0.00     0.013 C 
HETATM   20  C23 UNL     1     -21.660  -5.437  23.495  1.00  0.00     0.012 C 
HETATM   21  C24 UNL     1     -20.283  -5.208  25.571  1.00  0.00     0.128 C 
HETATM   22  C26 UNL     1     -21.100  -4.933  26.782  1.00  0.00     0.066 C 
HETATM   23  C27 UNL     1     -20.780  -5.592  28.047  1.00  0.00    -0.080 C 
HETATM   24  C28 UNL     1     -19.523  -6.443  28.091  1.00  0.00     0.043 C 
HETATM   25  C29 UNL     1     -21.473  -5.495  29.180  1.00  0.00     0.018 C 
ENDROOT
BRANCH  10  26
HETATM   26  C12 UNL     1     -24.739  -9.095  28.863  1.00  0.00     0.050 C 
HETATM   27  C13 UNL     1     -24.890  -8.577  30.272  1.00  0.00     0.034 C 
HETATM   28  C14 UNL     1     -26.018  -9.098  28.105  1.00  0.00     0.034 C 
HETATM   29 CL1  UNL     1     -24.182 -10.778  28.967  1.00  0.00    -0.118 Cl
ENDBRANCH  10  26
BRANCH   7  30
HETATM   30  O5  UNL     1     -25.406  -5.103  27.302  1.00  0.00    -0.346 OA
ATOM     31  H5  UNL     1     -25.407  -5.419  26.407  1.00  0.00     0.219 HD
ENDBRANCH   7  30
BRANCH   5  32
HETATM   32  O3  UNL     1     -26.284  -4.025  29.187  1.00  0.00    -0.352 OA
HETATM   33  C7  UNL     1     -27.371  -4.591  29.836  1.00  0.00     0.210 C 
ENDBRANCH   5  32
BRANCH   2  34
HETATM   34  O2  UNL     1     -21.182  -3.701  31.183  1.00  0.00    -0.357 OA
ATOM     35  H2  UNL     1     -21.040  -4.230  31.959  1.00  0.00     0.217 HD
ENDBRANCH   2  34
BRANCH   6  36
HETATM   36  O4  UNL     1     -25.752  -2.337  31.139  1.00  0.00    -0.351 OA
HETATM   37  C9  UNL     1     -25.996  -1.097  30.548  1.00  0.00     0.210 C 
ENDBRANCH   6  36
BRANCH  17  38
HETATM   38  O8  UNL     1     -19.683  -8.949  22.662  1.00  0.00    -0.388 OA
HETATM   39  C20 UNL     1     -19.307  -8.133  21.600  1.00  0.00     0.202 C 
ENDBRANCH  17  38
BRANCH   1  40
HETATM   40  O1  UNL     1     -23.144  -2.162  32.167  1.00  0.00    -0.351 OA
HETATM   41  C1  UNL     1     -22.720  -0.848  32.025  1.00  0.00     0.210 C 
ENDBRANCH   1  40
BRANCH  21  42
HETATM   42  O9  UNL     1     -19.002  -5.670  25.751  1.00  0.00    -0.390 OA
HETATM   43  C25 UNL     1     -18.005  -4.773  25.409  1.00  0.00     0.202 C 
ENDBRANCH  21  42
TORSDOF 8
ENDMDL
MODEL 4
REMARK VINA RESULT: -7.020575302      2.679      8.110
REMARK  8 active torsions:
REMARK  status: ('A' for Active; 'I' for Inactive)
REMARK    1  A    between atoms: O1_2  and  C2_3 
REMARK    2  A    between atoms: C3_4  and  O2_5 
REMARK    3  A    between atoms: C6_9  and  O3_10 
REMARK    4  A    between atoms: C8_12  and  O4_13 
REMARK    5  A    between atoms: C10_15  and  O5_16 
REMARK    6  A    between atoms: C11_20  and  C12_21 
REMARK    7  A    between atoms: C19_31  and  O8_32 
REMARK    8  A    between atoms: C24_37  and  O9_38 
ROOT
HETATM    1  C2  UNL     1     -21.270  -8.480  22.368  1.00  0.00     0.138 A 
HETATM    2  C3  UNL     1     -21.157  -8.769  23.706  1.00  0.00     0.113 A 
HETATM    3  C4  UNL     1     -21.430  -7.852  24.743  1.00  0.00     0.018 A 
HETATM    4  C5  UNL     1     -21.829  -6.597  24.350  1.00  0.00     0.064 A 
HETATM    5  C6  UNL     1     -21.942  -6.311  22.965  1.00  0.00     0.119 A 
HETATM    6  C8  UNL     1     -21.667  -7.238  21.980  1.00  0.00     0.139 A 
HETATM    7  C10 UNL     1     -22.150  -5.452  25.204  1.00  0.00     0.150 C 
HETATM    8  N1  UNL     1     -21.682  -4.948  26.401  1.00  0.00    -0.363 N 
ATOM      9  H1  UNL     1     -22.385  -4.364  26.854  1.00  0.00     0.162 HD
HETATM   10  C11 UNL     1     -20.489  -5.016  27.182  1.00  0.00     0.115 C 
HETATM   11  C15 UNL     1     -20.833  -4.597  28.632  1.00  0.00     0.138 C 
HETATM   12  C16 UNL     1     -20.812  -5.702  29.585  1.00  0.00     0.261 C 
HETATM   13  O6  UNL     1     -19.730  -6.372  29.647  1.00  0.00    -0.265 OA
HETATM   14  O7  UNL     1     -21.821  -6.097  30.415  1.00  0.00    -0.314 OA
HETATM   15  C17 UNL     1     -22.616  -5.449  31.314  1.00  0.00     0.156 C 
HETATM   16  C18 UNL     1     -22.770  -3.964  31.094  1.00  0.00     0.042 C 
HETATM   17  C19 UNL     1     -24.004  -6.041  31.406  1.00  0.00     0.150 C 
HETATM   18  C21 UNL     1     -24.013  -7.295  30.593  1.00  0.00     0.041 C 
HETATM   19  C22 UNL     1     -24.376  -7.141  29.166  1.00  0.00     0.013 C 
HETATM   20  C23 UNL     1     -25.770  -6.587  28.953  1.00  0.00     0.012 C 
HETATM   21  C24 UNL     1     -24.205  -8.471  28.443  1.00  0.00     0.128 C 
HETATM   22  C26 UNL     1     -23.453  -8.273  27.175  1.00  0.00     0.066 C 
HETATM   23  C27 UNL     1     -22.037  -8.623  27.101  1.00  0.00    -0.080 C 
HETATM   24  C28 UNL     1     -21.423  -9.306  28.312  1.00  0.00     0.043 C 
HETATM   25  C29 UNL     1     -21.232  -8.427  26.059  1.00  0.00     0.018 C 
ENDROOT
BRANCH  10  26
HETATM   26  C12 UNL     1     -19.436  -3.958  26.796  1.00  0.00     0.050 C 
HETATM   27  C13 UNL     1     -18.687  -4.463  25.587  1.00  0.00     0.034 C 
HETATM   28  C14 UNL     1     -20.086  -2.642  26.568  1.00  0.00     0.034 C 
HETATM   29 CL1  UNL     1     -18.258  -3.747  28.108  1.00  0.00    -0.118 Cl
ENDBRANCH  10  26
BRANCH   7  30
HETATM   30  O5  UNL     1     -23.139  -4.739  24.674  1.00  0.00    -0.346 OA
ATOM     31  H5  UNL     1     -23.438  -5.135  23.864  1.00  0.00     0.219 HD
ENDBRANCH   7  30
BRANCH   5  32
HETATM   32  O3  UNL     1     -22.348  -5.057  22.493  1.00  0.00    -0.352 OA
HETATM   33  C7  UNL     1     -21.526  -4.028  22.060  1.00  0.00     0.210 C 
ENDBRANCH   5  32
BRANCH   2  34
HETATM   34  O2  UNL     1     -20.730 -10.086  23.983  1.00  0.00    -0.357 OA
ATOM     35  H2  UNL     1     -20.380 -10.550  23.231  1.00  0.00     0.217 HD
ENDBRANCH   2  34
BRANCH   6  36
HETATM   36  O4  UNL     1     -21.811  -6.856  20.644  1.00  0.00    -0.351 OA
HETATM   37  C9  UNL     1     -20.666  -6.696  19.862  1.00  0.00     0.210 C 
ENDBRANCH   6  36
BRANCH  17  38
HETATM   38  O8  UNL     1     -24.192  -6.404  32.749  1.00  0.00    -0.388 OA
HETATM   39  C20 UNL     1     -25.500  -6.821  32.979  1.00  0.00     0.202 C 
ENDBRANCH  17  38
BRANCH   1  40
HETATM   40  O1  UNL     1     -20.984  -9.433  21.395  1.00  0.00    -0.351 OA
HETATM   41  C1  UNL     1     -21.897 -10.273  20.775  1.00  0.00     0.210 C 
ENDBRANCH   1  40
BRANCH  21  42
HETATM   42  O9  UNL     1     -23.721  -9.390  29.341  1.00  0.00    -0.390 OA
HETATM   43  C25 UNL     1     -24.477 -10.543  29.459  1.00  0.00     0.202 C 
ENDBRANCH  21  42
TORSDOF 8
ENDMDL
MODEL 5
REMARK VINA RESULT: -6.947426315      2.659      7.853
REMARK  8 active torsions:
REMARK  status: ('A' for Active; 'I' for Inactive)
REMARK    1  A    between atoms: O1_2  and  C2_3 
REMARK    2  A    between atoms: C3_4  and  O2_5 
REMARK    3  A    between atoms: C6_9  and  O3_10 
REMARK    4  A    between atoms: C8_12  and  O4_13 
REMARK    5  A    between atoms: C10_15  and  O5_16 
REMARK    6  A    between atoms: C11_20  and  C12_21 
REMARK    7  A    between atoms: C19_31  and  O8_32 
REMARK    8  A    between atoms: C24_37  and  O9_38 
ROOT
HETATM    1  C2  UNL     1     -21.821  -4.083  23.450  1.00  0.00     0.138 A 
HETATM    2  C3  UNL     1     -23.023  -3.814  24.058  1.00  0.00     0.113 A 
HETATM    3  C4  UNL     1     -23.431  -4.364  25.292  1.00  0.00     0.018 A 
HETATM    4  C5  UNL     1     -22.543  -5.224  25.893  1.00  0.00     0.064 A 
HETATM    5  C6  UNL     1     -21.305  -5.493  25.255  1.00  0.00     0.119 A 
HETATM    6  C8  UNL     1     -20.942  -4.932  24.047  1.00  0.00     0.139 A 
HETATM    7  C10 UNL     1     -22.714  -5.951  27.152  1.00  0.00     0.150 C 
HETATM    8  N1  UNL     1     -23.768  -6.548  27.815  1.00  0.00    -0.363 N 
ATOM      9  H1  UNL     1     -23.577  -6.625  28.814  1.00  0.00     0.162 HD
HETATM   10  C11 UNL     1     -25.049  -7.088  27.493  1.00  0.00     0.115 C 
HETATM   11  C15 UNL     1     -25.888  -7.156  28.791  1.00  0.00     0.138 C 
HETATM   12  C16 UNL     1     -26.972  -6.179  28.844  1.00  0.00     0.261 C 
HETATM   13  O6  UNL     1     -27.799  -6.202  27.875  1.00  0.00    -0.265 OA
HETATM   14  O7  UNL     1     -27.197  -5.246  29.813  1.00  0.00    -0.314 OA
HETATM   15  C17 UNL     1     -27.291  -5.297  31.173  1.00  0.00     0.156 C 
HETATM   16  C18 UNL     1     -26.605  -6.470  31.829  1.00  0.00     0.042 C 
HETATM   17  C19 UNL     1     -26.784  -4.040  31.845  1.00  0.00     0.150 C 
HETATM   18  C21 UNL     1     -26.499  -3.040  30.773  1.00  0.00     0.041 C 
HETATM   19  C22 UNL     1     -25.131  -3.065  30.209  1.00  0.00     0.013 C 
HETATM   20  C23 UNL     1     -24.049  -2.786  31.232  1.00  0.00     0.012 C 
HETATM   21  C24 UNL     1     -25.035  -2.094  29.039  1.00  0.00     0.128 C 
HETATM   22  C26 UNL     1     -24.382  -2.752  27.876  1.00  0.00     0.066 C 
HETATM   23  C27 UNL     1     -25.190  -3.234  26.758  1.00  0.00    -0.080 C 
HETATM   24  C28 UNL     1     -26.676  -2.916  26.784  1.00  0.00     0.043 C 
HETATM   25  C29 UNL     1     -24.744  -3.905  25.698  1.00  0.00     0.018 C 
ENDROOT
BRANCH  10  26
HETATM   26  C12 UNL     1     -25.007  -8.571  27.073  1.00  0.00     0.050 C 
HETATM   27  C13 UNL     1     -25.283  -9.411  28.296  1.00  0.00     0.034 C 
HETATM   28  C14 UNL     1     -25.968  -8.822  25.968  1.00  0.00     0.034 C 
HETATM   29 CL1  UNL     1     -23.390  -9.002  26.480  1.00  0.00    -0.118 Cl
ENDBRANCH  10  26
BRANCH   7  30
HETATM   30  O5  UNL     1     -21.556  -6.045  27.796  1.00  0.00    -0.346 OA
ATOM     31  H5  UNL     1     -21.026  -5.272  27.643  1.00  0.00     0.219 HD
ENDBRANCH   7  30
BRANCH   5  32
HETATM   32  O3  UNL     1     -20.350  -6.353  25.812  1.00  0.00    -0.352 OA
HETATM   33  C7  UNL     1     -20.066  -7.649  25.409  1.00  0.00     0.210 C 
ENDBRANCH   5  32
BRANCH   2  34
HETATM   34  O2  UNL     1     -23.853  -2.926  23.339  1.00  0.00    -0.357 OA
ATOM     35  H2  UNL     1     -24.453  -3.351  22.737  1.00  0.00     0.217 HD
ENDBRANCH   2  34
BRANCH   6  36
HETATM   36  O4  UNL     1     -19.698  -5.262  23.504  1.00  0.00    -0.351 OA
HETATM   37  C9  UNL     1     -18.622  -4.398  23.711  1.00  0.00     0.210 C 
ENDBRANCH   6  36
BRANCH  17  38
HETATM   38  O8  UNL     1     -27.849  -3.545  32.615  1.00  0.00    -0.388 OA
HETATM   39  C20 UNL     1     -28.299  -2.324  32.124  1.00  0.00     0.202 C 
ENDBRANCH  17  38
BRANCH   1  40
HETATM   40  O1  UNL     1     -21.482  -3.506  22.231  1.00  0.00    -0.351 OA
HETATM   41  C1  UNL     1     -21.657  -4.074  20.977  1.00  0.00     0.210 C 
ENDBRANCH   1  40
BRANCH  21  42
HETATM   42  O9  UNL     1     -26.272  -1.528  28.847  1.00  0.00    -0.390 OA
HETATM   43  C25 UNL     1     -26.295  -0.146  28.902  1.00  0.00     0.202 C 
ENDBRANCH  21  42
TORSDOF 8
ENDMDL
