MODEL 1
REMARK VINA RESULT: -6.120153709      0.000      0.000
REMARK  4 active torsions:
REMARK  status: ('A' for Active; 'I' for Inactive)
REMARK    1  A    between atoms: S1_2  and  C2_3 
REMARK    2  A    between atoms: C4_6  and  C5_7 
REMARK    3  A    between atoms: N2_14  and  N3_16 
REMARK    4  A    between atoms: N3_16  and  O1_18 
ROOT
HETATM    1  C2  UNL     1     -35.613 -16.186 -11.486  1.00  0.00     0.085 A 
HETATM    2  C3  UNL     1     -36.327 -16.773 -12.530  1.00  0.00     0.144 A 
HETATM    3  F1  UNL     1     -36.412 -16.115 -13.713  1.00  0.00    -0.204 F 
HETATM    4  C4  UNL     1     -36.929 -17.998 -12.356  1.00  0.00     0.001 A 
HETATM    5  C8  UNL     1     -36.820 -18.638 -11.133  1.00  0.00     0.100 A 
HETATM    6  N1  UNL     1     -36.125 -18.040 -10.158  1.00  0.00    -0.349 N 
ATOM      7  H1  UNL     1     -36.052 -18.525  -9.263  1.00  0.00     0.166 HD
HETATM    8  C9  UNL     1     -35.516 -16.847 -10.270  1.00  0.00     0.141 A 
HETATM    9  N2  UNL     1     -34.856 -16.317  -9.289  1.00  0.00    -0.265 N 
ATOM     10  H2  UNL     1     -34.404 -15.409  -9.398  1.00  0.00     0.190 HD
ENDROOT
BRANCH   1  11
HETATM   11  S1  UNL     1     -34.811 -14.598 -11.698  1.00  0.00    -0.128 SA
HETATM   12  C1  UNL     1     -36.068 -13.309 -11.850  1.00  0.00     0.096 C 
ENDBRANCH   1  11
BRANCH   9  13
HETATM   13  N3  UNL     1     -34.779 -17.004  -8.093  1.00  0.00    -0.208 N 
ATOM     14  H3  UNL     1     -35.651 -17.234  -7.615  1.00  0.00     0.215 HD
BRANCH  13  15
HETATM   15  O1  UNL     1     -33.715 -17.357  -7.565  1.00  0.00    -0.274 OA
ATOM     16  H1  UNL     1     -33.533 -18.245  -7.279  1.00  0.00     0.246 HD
ENDBRANCH  13  15
ENDBRANCH   9  13
BRANCH   4  17
HETATM   17  C5  UNL     1     -37.707 -18.622 -13.439  1.00  0.00     0.015 C 
HETATM   18  C6  UNL     1     -38.211 -20.011 -13.018  1.00  0.00     0.015 C 
HETATM   19  C7  UNL     1     -38.957 -17.821 -13.762  1.00  0.00     0.015 C 
ENDBRANCH   4  17
TORSDOF 4
ENDMDL
MODEL 2
REMARK VINA RESULT: -6.041337726      2.281      2.981
REMARK  4 active torsions:
REMARK  status: ('A' for Active; 'I' for Inactive)
REMARK    1  A    between atoms: S1_2  and  C2_3 
REMARK    2  A    between atoms: C4_6  and  C5_7 
REMARK    3  A    between atoms: N2_14  and  N3_16 
REMARK    4  A    between atoms: N3_16  and  O1_18 
ROOT
HETATM    1  C2  UNL     1     -34.217 -14.777  -9.245  1.00  0.00     0.085 A 
HETATM    2  C3  UNL     1     -34.837 -14.790 -10.493  1.00  0.00     0.144 A 
HETATM    3  F1  UNL     1     -34.832 -13.654 -11.236  1.00  0.00    -0.204 F 
HETATM    4  C4  UNL     1     -35.441 -15.936 -10.957  1.00  0.00     0.001 A 
HETATM    5  C8  UNL     1     -35.426 -17.074 -10.168  1.00  0.00     0.100 A 
HETATM    6  N1  UNL     1     -34.819 -17.019  -8.977  1.00  0.00    -0.349 N 
ATOM      7  H1  UNL     1     -34.816 -17.866  -8.409  1.00  0.00     0.166 HD
HETATM    8  C9  UNL     1     -34.214 -15.930  -8.474  1.00  0.00     0.141 A 
HETATM    9  N2  UNL     1     -33.641 -15.937  -7.311  1.00  0.00    -0.265 N 
ATOM     10  H2  UNL     1     -33.189 -15.097  -6.950  1.00  0.00     0.190 HD
ENDROOT
BRANCH   1  11
HETATM   11  S1  UNL     1     -33.414 -13.298  -8.631  1.00  0.00    -0.128 SA
HETATM   12  C1  UNL     1     -34.667 -12.055  -8.242  1.00  0.00     0.096 C 
ENDBRANCH   1  11
BRANCH   9  13
HETATM   13  N3  UNL     1     -33.657 -17.103  -6.571  1.00  0.00    -0.208 N 
ATOM     14  H3  UNL     1     -33.988 -17.954  -7.024  1.00  0.00     0.215 HD
BRANCH  13  15
HETATM   15  O1  UNL     1     -33.292 -17.177  -5.388  1.00  0.00    -0.274 OA
ATOM     16  H1  UNL     1     -32.497 -17.615  -5.105  1.00  0.00     0.246 HD
ENDBRANCH  13  15
ENDBRANCH   9  13
BRANCH   4  17
HETATM   17  C5  UNL     1     -36.123 -15.961 -12.262  1.00  0.00     0.015 C 
HETATM   18  C6  UNL     1     -35.933 -17.321 -12.950  1.00  0.00     0.015 C 
HETATM   19  C7  UNL     1     -37.625 -15.791 -12.111  1.00  0.00     0.015 C 
ENDBRANCH   4  17
TORSDOF 4
ENDMDL
MODEL 3
REMARK VINA RESULT: -5.876856096      3.829      4.821
REMARK  4 active torsions:
REMARK  status: ('A' for Active; 'I' for Inactive)
REMARK    1  A    between atoms: S1_2  and  C2_3 
REMARK    2  A    between atoms: C4_6  and  C5_7 
REMARK    3  A    between atoms: N2_14  and  N3_16 
REMARK    4  A    between atoms: N3_16  and  O1_18 
ROOT
HETATM    1  C2  UNL     1     -34.150 -14.878  -8.237  1.00  0.00     0.085 A 
HETATM    2  C3  UNL     1     -34.764 -15.888  -8.978  1.00  0.00     0.144 A 
HETATM    3  F1  UNL     1     -35.091 -17.047  -8.354  1.00  0.00    -0.204 F 
HETATM    4  C4  UNL     1     -35.030 -15.704 -10.315  1.00  0.00     0.001 A 
HETATM    5  C8  UNL     1     -34.679 -14.506 -10.916  1.00  0.00     0.100 A 
HETATM    6  N1  UNL     1     -34.093 -13.563 -10.168  1.00  0.00    -0.349 N 
ATOM      7  H1  UNL     1     -33.842 -12.686 -10.625  1.00  0.00     0.166 HD
HETATM    8  C9  UNL     1     -33.809 -13.687  -8.860  1.00  0.00     0.141 A 
HETATM    9  N2  UNL     1     -33.239 -12.737  -8.188  1.00  0.00    -0.265 N 
ATOM     10  H2  UNL     1     -33.032 -12.855  -7.196  1.00  0.00     0.190 HD
ENDROOT
BRANCH   1  11
HETATM   11  S1  UNL     1     -33.808 -15.095  -6.492  1.00  0.00    -0.128 SA
HETATM   12  C1  UNL     1     -35.363 -15.334  -5.603  1.00  0.00     0.096 C 
ENDBRANCH   1  11
BRANCH   9  13
HETATM   13  N3  UNL     1     -32.915 -11.564  -8.841  1.00  0.00    -0.208 N 
ATOM     14  H3  UNL     1     -31.932 -11.388  -9.052  1.00  0.00     0.215 HD
BRANCH  13  15
HETATM   15  O1  UNL     1     -33.746 -10.711  -9.185  1.00  0.00    -0.274 OA
ATOM     16  H1  UNL     1     -33.529  -9.924  -9.672  1.00  0.00     0.246 HD
ENDBRANCH  13  15
ENDBRANCH   9  13
BRANCH   4  17
HETATM   17  C5  UNL     1     -35.655 -16.768 -11.118  1.00  0.00     0.015 C 
HETATM   18  C6  UNL     1     -37.178 -16.782 -10.912  1.00  0.00     0.015 C 
HETATM   19  C7  UNL     1     -35.452 -16.537 -12.606  1.00  0.00     0.015 C 
ENDBRANCH   4  17
TORSDOF 4
ENDMDL
MODEL 4
REMARK VINA RESULT: -5.698733354      2.254      2.741
REMARK  4 active torsions:
REMARK  status: ('A' for Active; 'I' for Inactive)
REMARK    1  A    between atoms: S1_2  and  C2_3 
REMARK    2  A    between atoms: C4_6  and  C5_7 
REMARK    3  A    between atoms: N2_14  and  N3_16 
REMARK    4  A    between atoms: N3_16  and  O1_18 
ROOT
HETATM    1  C2  UNL     1     -35.805 -14.241 -12.929  1.00  0.00     0.085 A 
HETATM    2  C3  UNL     1     -36.276 -15.456 -13.425  1.00  0.00     0.144 A 
HETATM    3  F1  UNL     1     -36.752 -15.502 -14.695  1.00  0.00    -0.204 F 
HETATM    4  C4  UNL     1     -36.254 -16.583 -12.636  1.00  0.00     0.001 A 
HETATM    5  C8  UNL     1     -35.761 -16.496 -11.345  1.00  0.00     0.100 A 
HETATM    6  N1  UNL     1     -35.318 -15.310 -10.908  1.00  0.00    -0.349 N 
ATOM      7  H1  UNL     1     -34.958 -15.262  -9.955  1.00  0.00     0.166 HD
HETATM    8  C9  UNL     1     -35.315 -14.178 -11.633  1.00  0.00     0.141 A 
HETATM    9  N2  UNL     1     -34.874 -13.057 -11.155  1.00  0.00    -0.265 N 
ATOM     10  H2  UNL     1     -34.883 -12.211 -11.724  1.00  0.00     0.190 HD
ENDROOT
BRANCH   1  11
HETATM   11  S1  UNL     1     -35.815 -12.766 -13.946  1.00  0.00    -0.128 SA
HETATM   12  C1  UNL     1     -37.454 -12.008 -13.885  1.00  0.00     0.096 C 
ENDBRANCH   1  11
BRANCH   9  13
HETATM   13  N3  UNL     1     -34.391 -13.032  -9.861  1.00  0.00    -0.208 N 
ATOM     14  H3  UNL     1     -35.000 -12.662  -9.130  1.00  0.00     0.215 HD
BRANCH  13  15
HETATM   15  O1  UNL     1     -33.264 -13.431  -9.534  1.00  0.00    -0.274 OA
ATOM     16  H1  UNL     1     -32.459 -13.149  -9.955  1.00  0.00     0.246 HD
ENDBRANCH  13  15
ENDBRANCH   9  13
BRANCH   4  17
HETATM   17  C5  UNL     1     -36.769 -17.870 -13.135  1.00  0.00     0.015 C 
HETATM   18  C6  UNL     1     -36.488 -18.996 -12.129  1.00  0.00     0.015 C 
HETATM   19  C7  UNL     1     -38.279 -17.841 -13.297  1.00  0.00     0.015 C 
ENDBRANCH   4  17
TORSDOF 4
ENDMDL
MODEL 5
REMARK VINA RESULT: -5.685005417      3.335      4.301
REMARK  4 active torsions:
REMARK  status: ('A' for Active; 'I' for Inactive)
REMARK    1  A    between atoms: S1_2  and  C2_3 
REMARK    2  A    between atoms: C4_6  and  C5_7 
REMARK    3  A    between atoms: N2_14  and  N3_16 
REMARK    4  A    between atoms: N3_16  and  O1_18 
ROOT
HETATM    1  C2  UNL     1     -34.448 -15.464  -9.076  1.00  0.00     0.085 A 
HETATM    2  C3  UNL     1     -35.240 -16.156  -9.992  1.00  0.00     0.144 A 
HETATM    3  F1  UNL     1     -35.649 -17.412  -9.681  1.00  0.00    -0.204 F 
HETATM    4  C4  UNL     1     -35.595 -15.569 -11.185  1.00  0.00     0.001 A 
HETATM    5  C8  UNL     1     -35.157 -14.286 -11.465  1.00  0.00     0.100 A 
HETATM    6  N1  UNL     1     -34.399 -13.657 -10.558  1.00  0.00    -0.349 N 
ATOM      7  H1  UNL     1     -34.085 -12.712 -10.779  1.00  0.00     0.166 HD
HETATM    8  C9  UNL     1     -34.022 -14.179  -9.378  1.00  0.00     0.141 A 
HETATM    9  N2  UNL     1     -33.286 -13.520  -8.539  1.00  0.00    -0.265 N 
ATOM     10  H2  UNL     1     -33.011 -13.938  -7.650  1.00  0.00     0.190 HD
ENDROOT
BRANCH   1  11
HETATM   11  S1  UNL     1     -33.986 -16.206  -7.512  1.00  0.00    -0.128 SA
HETATM   12  C1  UNL     1     -35.061 -15.569  -6.207  1.00  0.00     0.096 C 
ENDBRANCH   1  11
BRANCH   9  13
HETATM   13  N3  UNL     1     -32.881 -12.242  -8.873  1.00  0.00    -0.208 N 
ATOM     14  H3  UNL     1     -31.898 -12.096  -9.104  1.00  0.00     0.215 HD
BRANCH  13  15
HETATM   15  O1  UNL     1     -33.640 -11.263  -8.907  1.00  0.00    -0.274 OA
ATOM     16  H1  UNL     1     -33.495 -10.462  -8.416  1.00  0.00     0.246 HD
ENDBRANCH  13  15
ENDBRANCH   9  13
BRANCH   4  17
HETATM   17  C5  UNL     1     -36.410 -16.295 -12.174  1.00  0.00     0.015 C 
HETATM   18  C6  UNL     1     -36.894 -15.346 -13.282  1.00  0.00     0.015 C 
HETATM   19  C7  UNL     1     -35.602 -17.366 -12.886  1.00  0.00     0.015 C 
ENDBRANCH   4  17
TORSDOF 4
ENDMDL
