MODEL 1
REMARK VINA RESULT: -5.901191628      0.000      0.000
REMARK  7 active torsions:
REMARK  status: ('A' for Active; 'I' for Inactive)
REMARK    1  A    between atoms: C2_2  and  C3_3 
REMARK    2  A    between atoms: C3_3  and  C4_4 
REMARK    3  A    between atoms: C4_4  and  C5_5 
REMARK    4  A    between atoms: C5_5  and  N1_6 
REMARK    5  A    between atoms: C6_7  and  O1_8 
REMARK    6  A    between atoms: C9_12  and  O2_13 
REMARK    7  A    between atoms: C13_18  and  C14_19 
ROOT
HETATM    1  N1  UNL     1      33.424   2.847  54.745  1.00  0.00    -0.307 N 
HETATM    2  C6  UNL     1      33.481   1.508  54.654  1.00  0.00     0.156 A 
HETATM    3  C7  UNL     1      34.814   1.093  54.588  1.00  0.00     0.036 A 
HETATM    4  C8  UNL     1      35.551   2.243  54.644  1.00  0.00     0.015 A 
HETATM    5  C9  UNL     1      34.681   3.331  54.743  1.00  0.00     0.152 A 
HETATM    6  C10 UNL     1      36.973   1.882  54.579  1.00  0.00     0.043 A 
HETATM    7  C11 UNL     1      37.703   2.361  55.843  1.00  0.00     0.019 C 
HETATM    8  C12 UNL     1      36.986   0.420  54.481  1.00  0.00    -0.005 A 
HETATM    9  C13 UNL     1      35.743  -0.025  54.486  1.00  0.00     0.008 A 
ENDROOT
BRANCH   1  10
HETATM   10  C5  UNL     1      32.262   3.713  54.837  1.00  0.00     0.133 C 
BRANCH  10  11
HETATM   11  C4  UNL     1      31.692   3.629  56.253  1.00  0.00     0.020 C 
BRANCH  11  12
HETATM   12  C3  UNL     1      30.183   3.615  56.129  1.00  0.00     0.001 C 
BRANCH  12  13
HETATM   13  C2  UNL     1      29.811   3.146  54.720  1.00  0.00    -0.004 C 
HETATM   14  C1  UNL     1      29.067   1.836  54.860  1.00  0.00     0.005 C 
ENDBRANCH  12  13
ENDBRANCH  11  12
ENDBRANCH  10  11
ENDBRANCH   1  10
BRANCH   2  15
HETATM   15  O1  UNL     1      32.393   0.672  54.628  1.00  0.00    -0.345 OA
ATOM     16  H1  UNL     1      32.434  -0.277  54.629  1.00  0.00     0.219 HD
ENDBRANCH   2  15
BRANCH   5  17
HETATM   17  O2  UNL     1      35.112   4.648  54.820  1.00  0.00    -0.345 OA
ATOM     18  H2  UNL     1      35.938   5.026  54.542  1.00  0.00     0.219 HD
ENDBRANCH   5  17
BRANCH   9  19
HETATM   19  C14 UNL     1      35.270  -1.449  54.403  1.00  0.00     0.216 C 
HETATM   20 CL1  UNL     1      34.289  -1.633  52.938  1.00  0.00    -0.078 Cl
HETATM   21 CL2  UNL     1      36.711  -2.487  54.337  1.00  0.00    -0.078 Cl
HETATM   22 CL3  UNL     1      34.289  -1.811  55.849  1.00  0.00    -0.078 Cl
ENDBRANCH   9  19
TORSDOF 7
ENDMDL
MODEL 2
REMARK VINA RESULT: -5.891190807      0.018      1.131
REMARK  7 active torsions:
REMARK  status: ('A' for Active; 'I' for Inactive)
REMARK    1  A    between atoms: C2_2  and  C3_3 
REMARK    2  A    between atoms: C3_3  and  C4_4 
REMARK    3  A    between atoms: C4_4  and  C5_5 
REMARK    4  A    between atoms: C5_5  and  N1_6 
REMARK    5  A    between atoms: C6_7  and  O1_8 
REMARK    6  A    between atoms: C9_12  and  O2_13 
REMARK    7  A    between atoms: C13_18  and  C14_19 
ROOT
HETATM    1  N1  UNL     1      33.417   2.842  54.744  1.00  0.00    -0.307 N 
HETATM    2  C6  UNL     1      33.475   1.502  54.657  1.00  0.00     0.156 A 
HETATM    3  C7  UNL     1      34.809   1.088  54.595  1.00  0.00     0.036 A 
HETATM    4  C8  UNL     1      35.545   2.239  54.649  1.00  0.00     0.015 A 
HETATM    5  C9  UNL     1      34.675   3.327  54.742  1.00  0.00     0.152 A 
HETATM    6  C10 UNL     1      36.967   1.879  54.588  1.00  0.00     0.043 A 
HETATM    7  C11 UNL     1      37.695   2.362  55.851  1.00  0.00     0.019 C 
HETATM    8  C12 UNL     1      36.982   0.416  54.494  1.00  0.00    -0.005 A 
HETATM    9  C13 UNL     1      35.738  -0.030  54.499  1.00  0.00     0.008 A 
ENDROOT
BRANCH   1  10
HETATM   10  C5  UNL     1      32.255   3.707  54.831  1.00  0.00     0.133 C 
BRANCH  10  11
HETATM   11  C4  UNL     1      31.693   3.641  56.251  1.00  0.00     0.020 C 
BRANCH  11  12
HETATM   12  C3  UNL     1      30.184   3.609  56.135  1.00  0.00     0.001 C 
BRANCH  12  13
HETATM   13  C2  UNL     1      29.810   3.145  54.725  1.00  0.00    -0.004 C 
HETATM   14  C1  UNL     1      29.067   1.833  54.861  1.00  0.00     0.005 C 
ENDBRANCH  12  13
ENDBRANCH  11  12
ENDBRANCH  10  11
ENDBRANCH   1  10
BRANCH   2  15
HETATM   15  O1  UNL     1      32.388   0.666  54.633  1.00  0.00    -0.345 OA
ATOM     16  H1  UNL     1      32.414  -0.268  54.803  1.00  0.00     0.219 HD
ENDBRANCH   2  15
BRANCH   5  17
HETATM   17  O2  UNL     1      35.104   4.644  54.816  1.00  0.00    -0.345 OA
ATOM     18  H2  UNL     1      35.915   5.028  54.504  1.00  0.00     0.219 HD
ENDBRANCH   5  17
BRANCH   9  19
HETATM   19  C14 UNL     1      35.267  -1.454  54.420  1.00  0.00     0.216 C 
HETATM   20 CL1  UNL     1      36.687  -2.513  54.340  1.00  0.00    -0.078 Cl
HETATM   21 CL2  UNL     1      34.311  -1.783  55.881  1.00  0.00    -0.078 Cl
HETATM   22 CL3  UNL     1      34.273  -1.647  52.950  1.00  0.00    -0.078 Cl
ENDBRANCH   9  19
TORSDOF 7
ENDMDL
MODEL 3
REMARK VINA RESULT: -5.885634354      0.013      1.131
REMARK  7 active torsions:
REMARK  status: ('A' for Active; 'I' for Inactive)
REMARK    1  A    between atoms: C2_2  and  C3_3 
REMARK    2  A    between atoms: C3_3  and  C4_4 
REMARK    3  A    between atoms: C4_4  and  C5_5 
REMARK    4  A    between atoms: C5_5  and  N1_6 
REMARK    5  A    between atoms: C6_7  and  O1_8 
REMARK    6  A    between atoms: C9_12  and  O2_13 
REMARK    7  A    between atoms: C13_18  and  C14_19 
ROOT
HETATM    1  N1  UNL     1      33.427   2.850  54.749  1.00  0.00    -0.307 N 
HETATM    2  C6  UNL     1      33.485   1.511  54.658  1.00  0.00     0.156 A 
HETATM    3  C7  UNL     1      34.818   1.098  54.592  1.00  0.00     0.036 A 
HETATM    4  C8  UNL     1      35.555   2.248  54.647  1.00  0.00     0.015 A 
HETATM    5  C9  UNL     1      34.684   3.335  54.745  1.00  0.00     0.152 A 
HETATM    6  C10 UNL     1      36.976   1.888  54.581  1.00  0.00     0.043 A 
HETATM    7  C11 UNL     1      37.707   2.368  55.843  1.00  0.00     0.019 C 
HETATM    8  C12 UNL     1      36.991   0.426  54.484  1.00  0.00    -0.005 A 
HETATM    9  C13 UNL     1      35.748  -0.020  54.490  1.00  0.00     0.008 A 
ENDROOT
BRANCH   1  10
HETATM   10  C5  UNL     1      32.264   3.715  54.841  1.00  0.00     0.133 C 
BRANCH  10  11
HETATM   11  C4  UNL     1      31.692   3.627  56.256  1.00  0.00     0.020 C 
BRANCH  11  12
HETATM   12  C3  UNL     1      30.183   3.615  56.129  1.00  0.00     0.001 C 
BRANCH  12  13
HETATM   13  C2  UNL     1      29.813   3.144  54.719  1.00  0.00    -0.004 C 
HETATM   14  C1  UNL     1      29.066   1.836  54.860  1.00  0.00     0.005 C 
ENDBRANCH  12  13
ENDBRANCH  11  12
ENDBRANCH  10  11
ENDBRANCH   1  10
BRANCH   2  15
HETATM   15  O1  UNL     1      32.398   0.674  54.634  1.00  0.00    -0.345 OA
ATOM     16  H1  UNL     1      31.546   0.897  54.278  1.00  0.00     0.219 HD
ENDBRANCH   2  15
BRANCH   5  17
HETATM   17  O2  UNL     1      35.113   4.653  54.820  1.00  0.00    -0.345 OA
ATOM     18  H2  UNL     1      35.256   5.193  55.588  1.00  0.00     0.219 HD
ENDBRANCH   5  17
BRANCH   9  19
HETATM   19  C14 UNL     1      35.277  -1.445  54.409  1.00  0.00     0.216 C 
HETATM   20 CL1  UNL     1      34.302  -1.798  55.847  1.00  0.00    -0.078 Cl
HETATM   21 CL2  UNL     1      34.307  -1.603  52.929  1.00  0.00    -0.078 Cl
HETATM   22 CL3  UNL     1      36.703  -2.516  54.355  1.00  0.00    -0.078 Cl
ENDBRANCH   9  19
TORSDOF 7
ENDMDL
MODEL 4
REMARK VINA RESULT: -5.366263934      1.103      1.503
REMARK  7 active torsions:
REMARK  status: ('A' for Active; 'I' for Inactive)
REMARK    1  A    between atoms: C2_2  and  C3_3 
REMARK    2  A    between atoms: C3_3  and  C4_4 
REMARK    3  A    between atoms: C4_4  and  C5_5 
REMARK    4  A    between atoms: C5_5  and  N1_6 
REMARK    5  A    between atoms: C6_7  and  O1_8 
REMARK    6  A    between atoms: C9_12  and  O2_13 
REMARK    7  A    between atoms: C13_18  and  C14_19 
ROOT
HETATM    1  N1  UNL     1      33.974   1.982  55.142  1.00  0.00    -0.307 N 
HETATM    2  C6  UNL     1      33.941   0.665  54.882  1.00  0.00     0.156 A 
HETATM    3  C7  UNL     1      35.109   0.283  54.216  1.00  0.00     0.036 A 
HETATM    4  C8  UNL     1      35.843   1.431  54.091  1.00  0.00     0.015 A 
HETATM    5  C9  UNL     1      35.132   2.484  54.669  1.00  0.00     0.152 A 
HETATM    6  C10 UNL     1      37.093   1.104  53.395  1.00  0.00     0.043 A 
HETATM    7  C11 UNL     1      38.301   1.440  54.283  1.00  0.00     0.019 C 
HETATM    8  C12 UNL     1      37.013  -0.336  53.133  1.00  0.00    -0.005 A 
HETATM    9  C13 UNL     1      35.871  -0.799  53.607  1.00  0.00     0.008 A 
ENDROOT
BRANCH   1  10
HETATM   10  C5  UNL     1      32.988   2.811  55.811  1.00  0.00     0.133 C 
BRANCH  10  11
HETATM   11  C4  UNL     1      32.042   3.399  54.763  1.00  0.00     0.020 C 
BRANCH  11  12
HETATM   12  C3  UNL     1      30.686   3.554  55.420  1.00  0.00     0.001 C 
BRANCH  12  13
HETATM   13  C2  UNL     1      29.607   3.109  54.429  1.00  0.00    -0.004 C 
HETATM   14  C1  UNL     1      29.237   1.682  54.771  1.00  0.00     0.005 C 
ENDBRANCH  12  13
ENDBRANCH  11  12
ENDBRANCH  10  11
ENDBRANCH   1  10
BRANCH   2  15
HETATM   15  O1  UNL     1      32.914  -0.180  55.218  1.00  0.00    -0.345 OA
ATOM     16  H1  UNL     1      32.308  -0.574  54.602  1.00  0.00     0.219 HD
ENDBRANCH   2  15
BRANCH   5  17
HETATM   17  O2  UNL     1      35.600   3.790  54.710  1.00  0.00    -0.345 OA
ATOM     18  H2  UNL     1      35.920   4.288  55.452  1.00  0.00     0.219 HD
ENDBRANCH   5  17
BRANCH   9  19
HETATM   19  C14 UNL     1      35.358  -2.211  53.566  1.00  0.00     0.216 C 
HETATM   20 CL1  UNL     1      36.550  -3.219  52.725  1.00  0.00    -0.078 Cl
HETATM   21 CL2  UNL     1      35.142  -2.750  55.245  1.00  0.00    -0.078 Cl
HETATM   22 CL3  UNL     1      33.806  -2.230  52.684  1.00  0.00    -0.078 Cl
ENDBRANCH   9  19
TORSDOF 7
ENDMDL
MODEL 5
REMARK VINA RESULT: -5.330549636      1.086      1.189
REMARK  7 active torsions:
REMARK  status: ('A' for Active; 'I' for Inactive)
REMARK    1  A    between atoms: C2_2  and  C3_3 
REMARK    2  A    between atoms: C3_3  and  C4_4 
REMARK    3  A    between atoms: C4_4  and  C5_5 
REMARK    4  A    between atoms: C5_5  and  N1_6 
REMARK    5  A    between atoms: C6_7  and  O1_8 
REMARK    6  A    between atoms: C9_12  and  O2_13 
REMARK    7  A    between atoms: C13_18  and  C14_19 
ROOT
HETATM    1  N1  UNL     1      33.907   1.949  55.195  1.00  0.00    -0.307 N 
HETATM    2  C6  UNL     1      33.888   0.634  54.920  1.00  0.00     0.156 A 
HETATM    3  C7  UNL     1      35.066   0.270  54.262  1.00  0.00     0.036 A 
HETATM    4  C8  UNL     1      35.790   1.424  54.156  1.00  0.00     0.015 A 
HETATM    5  C9  UNL     1      35.065   2.466  54.738  1.00  0.00     0.152 A 
HETATM    6  C10 UNL     1      37.050   1.115  53.469  1.00  0.00     0.043 A 
HETATM    7  C11 UNL     1      38.246   1.453  54.371  1.00  0.00     0.019 C 
HETATM    8  C12 UNL     1      36.985  -0.322  53.190  1.00  0.00    -0.005 A 
HETATM    9  C13 UNL     1      35.842  -0.800  53.648  1.00  0.00     0.008 A 
ENDROOT
BRANCH   1  10
HETATM   10  C5  UNL     1      32.908   2.762  55.863  1.00  0.00     0.133 C 
BRANCH  10  11
HETATM   11  C4  UNL     1      31.992   3.387  54.810  1.00  0.00     0.020 C 
BRANCH  11  12
HETATM   12  C3  UNL     1      30.626   3.550  55.443  1.00  0.00     0.001 C 
BRANCH  12  13
HETATM   13  C2  UNL     1      29.564   3.088  54.442  1.00  0.00    -0.004 C 
HETATM   14  C1  UNL     1      29.194   1.664  54.799  1.00  0.00     0.005 C 
ENDBRANCH  12  13
ENDBRANCH  11  12
ENDBRANCH  10  11
ENDBRANCH   1  10
BRANCH   2  15
HETATM   15  O1  UNL     1      32.865  -0.223  55.238  1.00  0.00    -0.345 OA
ATOM     16  H1  UNL     1      32.699  -0.578  56.103  1.00  0.00     0.219 HD
ENDBRANCH   2  15
BRANCH   5  17
HETATM   17  O2  UNL     1      35.522   3.774  54.798  1.00  0.00    -0.345 OA
ATOM     18  H2  UNL     1      36.039   4.198  55.472  1.00  0.00     0.219 HD
ENDBRANCH   5  17
BRANCH   9  19
HETATM   19  C14 UNL     1      35.342  -2.215  53.587  1.00  0.00     0.216 C 
HETATM   20 CL1  UNL     1      33.815  -2.235  52.686  1.00  0.00    -0.078 Cl
HETATM   21 CL2  UNL     1      36.580  -3.185  52.760  1.00  0.00    -0.078 Cl
HETATM   22 CL3  UNL     1      35.080  -2.802  55.252  1.00  0.00    -0.078 Cl
ENDBRANCH   9  19
TORSDOF 7
ENDMDL
