MODEL 1
REMARK VINA RESULT: -6.874856237      0.000      0.000
REMARK  12 active torsions:
REMARK  status: ('A' for Active; 'I' for Inactive)
REMARK    1  A    between atoms: C2_3  and  O2_5 
REMARK    2  A    between atoms: O2_5  and  C3_6 
REMARK    3  A    between atoms: C4_7  and  N2_8 
REMARK    4  A    between atoms: N2_8  and  C5_10 
REMARK    5  A    between atoms: C12_22  and  O4_23 
REMARK    6  A    between atoms: C14_27  and  C15_28 
REMARK    7  A    between atoms: C16_29  and  C17_30 
REMARK    8  A    between atoms: C17_30  and  C18_32 
REMARK    9  A    between atoms: C18_32  and  C19_33 
REMARK   10  A    between atoms: N5_34  and  N6_36 
REMARK   11  A    between atoms: N6_36  and  C20_38 
REMARK   12  A    between atoms: C21_41  and  O6_42 
ROOT
HETATM    1  C1  UNL     1      -5.896  11.448  14.624  1.00  0.00     0.235 C 
HETATM    2  N1  UNL     1      -5.141  12.473  14.169  1.00  0.00    -0.370 NA
HETATM    3  C2  UNL     1      -4.388  13.496  13.713  1.00  0.00     0.444 C 
HETATM    4  O1  UNL     1      -4.271  13.980  12.557  1.00  0.00    -0.221 OA
ENDROOT
BRANCH   3   5
HETATM    5  O2  UNL     1      -3.550  14.212  14.648  1.00  0.00    -0.245 OA
BRANCH   5   6
HETATM    6  C3  UNL     1      -2.204  13.945  14.761  1.00  0.00     0.145 A 
HETATM    7  C4  UNL     1      -1.303  14.770  14.084  1.00  0.00     0.106 A 
HETATM    8  C12 UNL     1       0.036  14.527  14.186  1.00  0.00     0.118 A 
HETATM    9  C13 UNL     1       0.482  13.443  14.975  1.00  0.00     0.082 A 
HETATM   10 CL1  UNL     1       2.225  13.230  14.975  1.00  0.00    -0.080 Cl
HETATM   11  C14 UNL     1      -0.355  12.616  15.648  1.00  0.00     0.025 A 
HETATM   12  C21 UNL     1      -1.722  12.910  15.511  1.00  0.00     0.116 A 
BRANCH   7  13
HETATM   13  N2  UNL     1      -1.837  15.811  13.328  1.00  0.00    -0.333 N 
ATOM     14  H2  UNL     1      -2.098  15.604  12.364  1.00  0.00     0.168 HD
BRANCH  13  15
HETATM   15  C5  UNL     1      -2.051  17.159  13.797  1.00  0.00     0.173 A 
HETATM   16  N3  UNL     1      -3.192  17.718  14.017  1.00  0.00    -0.345 N 
HETATM   17  C6  UNL     1      -3.067  19.062  14.472  1.00  0.00     0.107 A 
ATOM     18  H3  UNL     1      -4.087  17.249  13.881  1.00  0.00     0.163 HD
HETATM   19  C7  UNL     1      -3.730  20.063  13.536  1.00  0.00     0.054 C 
HETATM   20  C10 UNL     1      -3.828  19.325  15.753  1.00  0.00     0.054 C 
HETATM   21  N4  UNL     1      -1.654  19.299  14.570  1.00  0.00    -0.328 N 
HETATM   22  C8  UNL     1      -3.760  21.316  14.383  1.00  0.00     0.004 C 
HETATM   23  C9  UNL     1      -3.794  20.831  15.823  1.00  0.00     0.004 C 
HETATM   24  C11 UNL     1      -1.006  18.097  14.126  1.00  0.00     0.287 A 
ATOM     25  H4  UNL     1      -1.201  20.154  14.891  1.00  0.00     0.165 HD
HETATM   26  O3  UNL     1       0.246  17.949  14.060  1.00  0.00    -0.264 OA
ENDBRANCH  13  15
ENDBRANCH   7  13
BRANCH   8  27
HETATM   27  O4  UNL     1       0.919  15.351  13.520  1.00  0.00    -0.357 OA
ATOM     28  H4  UNL     1       0.749  16.285  13.495  1.00  0.00     0.218 HD
ENDBRANCH   8  27
BRANCH  11  29
HETATM   29  C15 UNL     1       0.079  11.528  16.475  1.00  0.00     0.020 C 
HETATM   30  C16 UNL     1       0.653  10.410  16.231  1.00  0.00     0.051 C 
BRANCH  30  31
HETATM   31  C17 UNL     1       0.964   9.479  17.331  1.00  0.00     0.154 C 
HETATM   32  O5  UNL     1       2.135   9.002  17.393  1.00  0.00    -0.293 OA
BRANCH  31  33
HETATM   33  C18 UNL     1      -0.027   9.067  18.359  1.00  0.00     0.129 C 
BRANCH  33  34
HETATM   34  C19 UNL     1       0.765   8.539  19.496  1.00  0.00     0.088 C 
HETATM   35  N5  UNL     1       1.524   9.351  20.171  1.00  0.00    -0.313 N 
ATOM     36  H5  UNL     1       1.607  10.344  19.955  1.00  0.00     0.185 HD
BRANCH  35  37
HETATM   37  N6  UNL     1       2.227   8.734  21.233  1.00  0.00    -0.279 N 
ATOM     38  H6  UNL     1       1.722   8.445  22.072  1.00  0.00     0.189 HD
BRANCH  37  39
HETATM   39  C20 UNL     1       3.605   8.517  21.144  1.00  0.00     0.199 C 
HETATM   40  N7  UNL     1       4.331   8.537  19.943  1.00  0.00    -0.068 NA
HETATM   41  S1  UNL     1       4.417   8.194  22.542  1.00  0.00    -0.043 SA
ENDBRANCH  37  39
ENDBRANCH  35  37
ENDBRANCH  33  34
ENDBRANCH  31  33
ENDBRANCH  30  31
ENDBRANCH  11  29
BRANCH  12  42
HETATM   42  O6  UNL     1      -2.626  12.093  16.182  1.00  0.00    -0.352 OA
HETATM   43  C22 UNL     1      -3.171  12.518  17.414  1.00  0.00     0.210 C 
ENDBRANCH  12  42
ENDBRANCH   5   6
ENDBRANCH   3   5
TORSDOF 11
ENDMDL
MODEL 2
REMARK VINA RESULT: -6.177466085      2.329      2.455
REMARK  12 active torsions:
REMARK  status: ('A' for Active; 'I' for Inactive)
REMARK    1  A    between atoms: C2_3  and  O2_5 
REMARK    2  A    between atoms: O2_5  and  C3_6 
REMARK    3  A    between atoms: C4_7  and  N2_8 
REMARK    4  A    between atoms: N2_8  and  C5_10 
REMARK    5  A    between atoms: C12_22  and  O4_23 
REMARK    6  A    between atoms: C14_27  and  C15_28 
REMARK    7  A    between atoms: C16_29  and  C17_30 
REMARK    8  A    between atoms: C17_30  and  C18_32 
REMARK    9  A    between atoms: C18_32  and  C19_33 
REMARK   10  A    between atoms: N5_34  and  N6_36 
REMARK   11  A    between atoms: N6_36  and  C20_38 
REMARK   12  A    between atoms: C21_41  and  O6_42 
ROOT
HETATM    1  C1  UNL     1      -6.367  11.941  15.360  1.00  0.00     0.235 C 
HETATM    2  N1  UNL     1      -5.429  12.677  14.723  1.00  0.00    -0.370 NA
HETATM    3  C2  UNL     1      -4.493  13.413  14.087  1.00  0.00     0.444 C 
HETATM    4  O1  UNL     1      -4.244  13.545  12.860  1.00  0.00    -0.221 OA
ENDROOT
BRANCH   3   5
HETATM    5  O2  UNL     1      -3.586  14.216  14.876  1.00  0.00    -0.245 OA
BRANCH   5   6
HETATM    6  C3  UNL     1      -2.237  13.946  14.921  1.00  0.00     0.145 A 
HETATM    7  C4  UNL     1      -1.373  14.741  14.162  1.00  0.00     0.106 A 
HETATM    8  C12 UNL     1      -0.032  14.494  14.197  1.00  0.00     0.118 A 
HETATM    9  C13 UNL     1       0.455  13.437  14.999  1.00  0.00     0.082 A 
HETATM   10 CL1  UNL     1       2.195  13.215  14.907  1.00  0.00    -0.080 Cl
HETATM   11  C14 UNL     1      -0.344  12.641  15.749  1.00  0.00     0.025 A 
HETATM   12  C21 UNL     1      -1.716  12.937  15.680  1.00  0.00     0.116 A 
BRANCH   7  13
HETATM   13  N2  UNL     1      -1.947  15.756  13.400  1.00  0.00    -0.333 N 
ATOM     14  H2  UNL     1      -2.264  15.514  12.461  1.00  0.00     0.168 HD
BRANCH  13  15
HETATM   15  C5  UNL     1      -2.128  17.122  13.830  1.00  0.00     0.173 A 
HETATM   16  N3  UNL     1      -3.255  17.712  14.042  1.00  0.00    -0.345 N 
HETATM   17  C6  UNL     1      -3.097  19.066  14.454  1.00  0.00     0.107 A 
ATOM     18  H3  UNL     1      -4.161  17.258  13.927  1.00  0.00     0.163 HD
HETATM   19  C7  UNL     1      -3.745  20.052  13.493  1.00  0.00     0.054 C 
HETATM   20  C10 UNL     1      -3.841  19.384  15.733  1.00  0.00     0.054 C 
HETATM   21  N4  UNL     1      -1.678  19.275  14.534  1.00  0.00    -0.328 N 
HETATM   22  C8  UNL     1      -3.742  21.330  14.302  1.00  0.00     0.004 C 
HETATM   23  C9  UNL     1      -3.774  20.890  15.757  1.00  0.00     0.004 C 
HETATM   24  C11 UNL     1      -1.060  18.046  14.122  1.00  0.00     0.287 A 
ATOM     25  H4  UNL     1      -1.204  20.129  14.826  1.00  0.00     0.165 HD
HETATM   26  O3  UNL     1       0.188  17.869  14.051  1.00  0.00    -0.264 OA
ENDBRANCH  13  15
ENDBRANCH   7  13
BRANCH   8  27
HETATM   27  O4  UNL     1       0.814  15.288  13.452  1.00  0.00    -0.357 OA
ATOM     28  H4  UNL     1       0.927  15.100  12.528  1.00  0.00     0.218 HD
ENDBRANCH   8  27
BRANCH  11  29
HETATM   29  C15 UNL     1       0.133  11.582  16.590  1.00  0.00     0.020 C 
HETATM   30  C16 UNL     1       0.218  10.312  16.446  1.00  0.00     0.051 C 
BRANCH  30  31
HETATM   31  C17 UNL     1       0.759   9.476  17.533  1.00  0.00     0.154 C 
HETATM   32  O5  UNL     1       0.093   9.391  18.606  1.00  0.00    -0.293 OA
BRANCH  31  33
HETATM   33  C18 UNL     1       2.047   8.740  17.436  1.00  0.00     0.129 C 
BRANCH  33  34
HETATM   34  C19 UNL     1       1.708   7.399  16.903  1.00  0.00     0.088 C 
HETATM   35  N5  UNL     1       2.194   6.343  17.488  1.00  0.00    -0.313 N 
ATOM     36  H5  UNL     1       2.806   6.391  18.303  1.00  0.00     0.185 HD
BRANCH  35  37
HETATM   37  N6  UNL     1       1.798   5.121  16.894  1.00  0.00    -0.279 N 
ATOM     38  H6  UNL     1       0.810   4.948  16.705  1.00  0.00     0.189 HD
BRANCH  37  39
HETATM   39  C20 UNL     1       2.747   4.150  16.563  1.00  0.00     0.199 C 
HETATM   40  N7  UNL     1       3.877   3.854  17.341  1.00  0.00    -0.068 NA
HETATM   41  S1  UNL     1       2.529   3.320  15.155  1.00  0.00    -0.043 SA
ENDBRANCH  37  39
ENDBRANCH  35  37
ENDBRANCH  33  34
ENDBRANCH  31  33
ENDBRANCH  30  31
ENDBRANCH  11  29
BRANCH  12  42
HETATM   42  O6  UNL     1      -2.582  12.150  16.432  1.00  0.00    -0.352 OA
HETATM   43  C22 UNL     1      -2.945  12.559  17.734  1.00  0.00     0.210 C 
ENDBRANCH  12  42
ENDBRANCH   5   6
ENDBRANCH   3   5
TORSDOF 11
ENDMDL
MODEL 3
REMARK VINA RESULT: -6.086761642      1.773      2.088
REMARK  12 active torsions:
REMARK  status: ('A' for Active; 'I' for Inactive)
REMARK    1  A    between atoms: C2_3  and  O2_5 
REMARK    2  A    between atoms: O2_5  and  C3_6 
REMARK    3  A    between atoms: C4_7  and  N2_8 
REMARK    4  A    between atoms: N2_8  and  C5_10 
REMARK    5  A    between atoms: C12_22  and  O4_23 
REMARK    6  A    between atoms: C14_27  and  C15_28 
REMARK    7  A    between atoms: C16_29  and  C17_30 
REMARK    8  A    between atoms: C17_30  and  C18_32 
REMARK    9  A    between atoms: C18_32  and  C19_33 
REMARK   10  A    between atoms: N5_34  and  N6_36 
REMARK   11  A    between atoms: N6_36  and  C20_38 
REMARK   12  A    between atoms: C21_41  and  O6_42 
ROOT
HETATM    1  C1  UNL     1      -5.175  10.992  13.453  1.00  0.00     0.235 C 
HETATM    2  N1  UNL     1      -4.708  12.259  13.406  1.00  0.00    -0.370 NA
HETATM    3  C2  UNL     1      -4.242  13.525  13.359  1.00  0.00     0.444 C 
HETATM    4  O1  UNL     1      -4.316  14.395  12.453  1.00  0.00    -0.221 OA
ENDROOT
BRANCH   3   5
HETATM    5  O2  UNL     1      -3.531  14.047  14.504  1.00  0.00    -0.245 OA
BRANCH   5   6
HETATM    6  C3  UNL     1      -2.179  13.843  14.668  1.00  0.00     0.145 A 
HETATM    7  C4  UNL     1      -1.293  14.727  14.047  1.00  0.00     0.106 A 
HETATM    8  C12 UNL     1       0.051  14.547  14.201  1.00  0.00     0.118 A 
HETATM    9  C13 UNL     1       0.517  13.466  14.984  1.00  0.00     0.082 A 
HETATM   10 CL1  UNL     1       2.268  13.338  15.053  1.00  0.00    -0.080 Cl
HETATM   11  C14 UNL     1      -0.304  12.584  15.602  1.00  0.00     0.025 A 
HETATM   12  C21 UNL     1      -1.678  12.814  15.415  1.00  0.00     0.116 A 
BRANCH   7  13
HETATM   13  N2  UNL     1      -1.846  15.759  13.293  1.00  0.00    -0.333 N 
ATOM     14  H2  UNL     1      -2.113  15.545  12.332  1.00  0.00     0.168 HD
BRANCH  13  15
HETATM   15  C5  UNL     1      -2.073  17.106  13.760  1.00  0.00     0.173 A 
HETATM   16  N3  UNL     1      -3.219  17.656  13.974  1.00  0.00    -0.345 N 
HETATM   17  C6  UNL     1      -3.106  19.002  14.427  1.00  0.00     0.107 A 
ATOM     18  H3  UNL     1      -4.110  17.180  13.833  1.00  0.00     0.163 HD
HETATM   19  C7  UNL     1      -3.771  19.997  13.487  1.00  0.00     0.054 C 
HETATM   20  C10 UNL     1      -3.876  19.261  15.705  1.00  0.00     0.054 C 
HETATM   21  N4  UNL     1      -1.696  19.249  14.532  1.00  0.00    -0.328 N 
HETATM   22  C8  UNL     1      -3.815  21.250  14.332  1.00  0.00     0.004 C 
HETATM   23  C9  UNL     1      -3.853  20.766  15.773  1.00  0.00     0.004 C 
HETATM   24  C11 UNL     1      -1.036  18.051  14.093  1.00  0.00     0.287 A 
ATOM     25  H4  UNL     1      -1.250  20.108  14.855  1.00  0.00     0.165 HD
HETATM   26  O3  UNL     1       0.217  17.913  14.033  1.00  0.00    -0.264 OA
ENDBRANCH  13  15
ENDBRANCH   7  13
BRANCH   8  27
HETATM   27  O4  UNL     1       0.919  15.428  13.592  1.00  0.00    -0.357 OA
ATOM     28  H4  UNL     1       1.770  15.582  13.983  1.00  0.00     0.218 HD
ENDBRANCH   8  27
BRANCH  11  29
HETATM   29  C15 UNL     1       0.149  11.499  16.423  1.00  0.00     0.020 C 
HETATM   30  C16 UNL     1       0.625  10.338  16.165  1.00  0.00     0.051 C 
BRANCH  30  31
HETATM   31  C17 UNL     1       0.994   9.427  17.263  1.00  0.00     0.154 C 
HETATM   32  O5  UNL     1       2.218   9.139  17.412  1.00  0.00    -0.293 OA
BRANCH  31  33
HETATM   33  C18 UNL     1       0.004   8.822  18.194  1.00  0.00     0.129 C 
BRANCH  33  34
HETATM   34  C19 UNL     1       0.186   9.521  19.488  1.00  0.00     0.088 C 
HETATM   35  N5  UNL     1      -0.843  10.074  20.060  1.00  0.00    -0.313 N 
ATOM     36  H5  UNL     1      -1.780  10.054  19.658  1.00  0.00     0.185 HD
BRANCH  35  37
HETATM   37  N6  UNL     1      -0.548  10.707  21.291  1.00  0.00    -0.279 N 
ATOM     38  H6  UNL     1       0.101  10.265  21.943  1.00  0.00     0.189 HD
BRANCH  37  39
HETATM   39  C20 UNL     1      -1.137  11.931  21.622  1.00  0.00     0.199 C 
HETATM   40  N7  UNL     1      -1.694  12.817  20.687  1.00  0.00    -0.068 NA
HETATM   41  S1  UNL     1      -1.151  12.364  23.212  1.00  0.00    -0.043 SA
ENDBRANCH  37  39
ENDBRANCH  35  37
ENDBRANCH  33  34
ENDBRANCH  31  33
ENDBRANCH  30  31
ENDBRANCH  11  29
BRANCH  12  42
HETATM   42  O6  UNL     1      -2.566  11.938  16.028  1.00  0.00    -0.352 OA
HETATM   43  C22 UNL     1      -3.460  12.423  17.009  1.00  0.00     0.210 C 
ENDBRANCH  12  42
ENDBRANCH   5   6
ENDBRANCH   3   5
TORSDOF 11
ENDMDL
MODEL 4
REMARK VINA RESULT: -5.948513272      5.493     10.500
REMARK  12 active torsions:
REMARK  status: ('A' for Active; 'I' for Inactive)
REMARK    1  A    between atoms: C2_3  and  O2_5 
REMARK    2  A    between atoms: O2_5  and  C3_6 
REMARK    3  A    between atoms: C4_7  and  N2_8 
REMARK    4  A    between atoms: N2_8  and  C5_10 
REMARK    5  A    between atoms: C12_22  and  O4_23 
REMARK    6  A    between atoms: C14_27  and  C15_28 
REMARK    7  A    between atoms: C16_29  and  C17_30 
REMARK    8  A    between atoms: C17_30  and  C18_32 
REMARK    9  A    between atoms: C18_32  and  C19_33 
REMARK   10  A    between atoms: N5_34  and  N6_36 
REMARK   11  A    between atoms: N6_36  and  C20_38 
REMARK   12  A    between atoms: C21_41  and  O6_42 
ROOT
HETATM    1  C1  UNL     1      -1.560  11.902  20.255  1.00  0.00     0.235 C 
HETATM    2  N1  UNL     1      -2.553  11.536  19.414  1.00  0.00    -0.370 NA
HETATM    3  C2  UNL     1      -3.544  11.171  18.574  1.00  0.00     0.444 C 
HETATM    4  O1  UNL     1      -4.788  11.099  18.751  1.00  0.00    -0.221 OA
ENDROOT
BRANCH   3   5
HETATM    5  O2  UNL     1      -3.204  10.787  17.223  1.00  0.00    -0.245 OA
BRANCH   5   6
HETATM    6  C3  UNL     1      -3.292  11.678  16.176  1.00  0.00     0.145 A 
HETATM    7  C4  UNL     1      -2.195  12.501  15.909  1.00  0.00     0.106 A 
HETATM    8  C12 UNL     1      -2.258  13.387  14.873  1.00  0.00     0.118 A 
HETATM    9  C13 UNL     1      -3.435  13.453  14.093  1.00  0.00     0.082 A 
HETATM   10 CL1  UNL     1      -3.384  14.669  12.826  1.00  0.00    -0.080 Cl
HETATM   11  C14 UNL     1      -4.523  12.676  14.316  1.00  0.00     0.025 A 
HETATM   12  C21 UNL     1      -4.406  11.780  15.393  1.00  0.00     0.116 A 
BRANCH   7  13
HETATM   13  N2  UNL     1      -1.081  12.366  16.734  1.00  0.00    -0.333 N 
ATOM     14  H2  UNL     1      -0.900  13.115  17.402  1.00  0.00     0.168 HD
BRANCH  13  15
HETATM   15  C5  UNL     1      -0.162  11.253  16.721  1.00  0.00     0.173 A 
HETATM   16  N3  UNL     1      -0.259  10.175  17.423  1.00  0.00    -0.345 N 
HETATM   17  C6  UNL     1       0.812   9.267  17.186  1.00  0.00     0.107 A 
ATOM     18  H3  UNL     1      -1.020   9.993  18.076  1.00  0.00     0.163 HD
HETATM   19  C7  UNL     1       1.628   8.981  18.439  1.00  0.00     0.054 C 
HETATM   20  C10 UNL     1       0.338   7.875  16.831  1.00  0.00     0.054 C 
HETATM   21  N4  UNL     1       1.619   9.889  16.173  1.00  0.00    -0.328 N 
HETATM   22  C8  UNL     1       2.442   7.778  18.018  1.00  0.00     0.004 C 
HETATM   23  C9  UNL     1       1.614   7.080  16.951  1.00  0.00     0.004 C 
HETATM   24  C11 UNL     1       1.011  11.158  15.887  1.00  0.00     0.287 A 
ATOM     25  H4  UNL     1       2.459   9.503  15.741  1.00  0.00     0.165 HD
HETATM   26  O3  UNL     1       1.464  11.989  15.053  1.00  0.00    -0.264 OA
ENDBRANCH  13  15
ENDBRANCH   7  13
BRANCH   8  27
HETATM   27  O4  UNL     1      -1.169  14.190  14.611  1.00  0.00    -0.357 OA
ATOM     28  H4  UNL     1      -1.227  15.120  14.796  1.00  0.00     0.218 HD
ENDBRANCH   8  27
BRANCH  11  29
HETATM   29  C15 UNL     1      -5.715  12.710  13.520  1.00  0.00     0.020 C 
HETATM   30  C16 UNL     1      -5.999  12.301  12.340  1.00  0.00     0.051 C 
BRANCH  30  31
HETATM   31  C17 UNL     1      -7.351  12.502  11.790  1.00  0.00     0.154 C 
HETATM   32  O5  UNL     1      -7.463  12.697  10.544  1.00  0.00    -0.293 OA
BRANCH  31  33
HETATM   33  C18 UNL     1      -8.583  12.496  12.621  1.00  0.00     0.129 C 
BRANCH  33  34
HETATM   34  C19 UNL     1      -9.195  13.835  12.448  1.00  0.00     0.088 C 
HETATM   35  N5  UNL     1     -10.163  13.983  11.590  1.00  0.00    -0.313 N 
ATOM     36  H5  UNL     1     -10.524  13.217  11.022  1.00  0.00     0.185 HD
BRANCH  35  37
HETATM   37  N6  UNL     1     -10.669  15.302  11.516  1.00  0.00    -0.279 N 
ATOM     38  H6  UNL     1     -10.120  16.076  11.891  1.00  0.00     0.189 HD
BRANCH  37  39
HETATM   39  C20 UNL     1     -11.915  15.555  10.933  1.00  0.00     0.199 C 
HETATM   40  N7  UNL     1     -12.907  14.581  10.738  1.00  0.00    -0.068 NA
HETATM   41  S1  UNL     1     -12.219  17.092  10.423  1.00  0.00    -0.043 SA
ENDBRANCH  37  39
ENDBRANCH  35  37
ENDBRANCH  33  34
ENDBRANCH  31  33
ENDBRANCH  30  31
ENDBRANCH  11  29
BRANCH  12  42
HETATM   42  O6  UNL     1      -5.494  10.958  15.665  1.00  0.00    -0.352 OA
HETATM   43  C22 UNL     1      -5.519   9.641  15.153  1.00  0.00     0.210 C 
ENDBRANCH  12  42
ENDBRANCH   5   6
ENDBRANCH   3   5
TORSDOF 11
ENDMDL
MODEL 5
REMARK VINA RESULT: -5.941893133      3.450     10.173
REMARK  12 active torsions:
REMARK  status: ('A' for Active; 'I' for Inactive)
REMARK    1  A    between atoms: C2_3  and  O2_5 
REMARK    2  A    between atoms: O2_5  and  C3_6 
REMARK    3  A    between atoms: C4_7  and  N2_8 
REMARK    4  A    between atoms: N2_8  and  C5_10 
REMARK    5  A    between atoms: C12_22  and  O4_23 
REMARK    6  A    between atoms: C14_27  and  C15_28 
REMARK    7  A    between atoms: C16_29  and  C17_30 
REMARK    8  A    between atoms: C17_30  and  C18_32 
REMARK    9  A    between atoms: C18_32  and  C19_33 
REMARK   10  A    between atoms: N5_34  and  N6_36 
REMARK   11  A    between atoms: N6_36  and  C20_38 
REMARK   12  A    between atoms: C21_41  and  O6_42 
ROOT
HETATM    1  C1  UNL     1      -2.922  12.188  20.258  1.00  0.00     0.235 C 
HETATM    2  N1  UNL     1      -2.728  10.962  19.724  1.00  0.00    -0.370 NA
HETATM    3  C2  UNL     1      -2.534   9.737  19.190  1.00  0.00     0.444 C 
HETATM    4  O1  UNL     1      -2.492   8.601  19.731  1.00  0.00    -0.221 OA
ENDROOT
BRANCH   3   5
HETATM    5  O2  UNL     1      -2.338   9.624  17.763  1.00  0.00    -0.245 OA
BRANCH   5   6
HETATM    6  C3  UNL     1      -1.291  10.252  17.126  1.00  0.00     0.145 A 
HETATM    7  C4  UNL     1      -0.045   9.620  17.113  1.00  0.00     0.106 A 
HETATM    8  C12 UNL     1       1.005  10.221  16.484  1.00  0.00     0.118 A 
HETATM    9  C13 UNL     1       0.809  11.474  15.858  1.00  0.00     0.082 A 
HETATM   10 CL1  UNL     1       2.261  12.142  15.129  1.00  0.00    -0.080 Cl
HETATM   11  C14 UNL     1      -0.379  12.124  15.847  1.00  0.00     0.025 A 
HETATM   12  C21 UNL     1      -1.429  11.462  16.507  1.00  0.00     0.116 A 
BRANCH   7  13
HETATM   13  N2  UNL     1       0.052   8.389  17.759  1.00  0.00    -0.333 N 
ATOM     14  H2  UNL     1      -0.501   7.619  17.384  1.00  0.00     0.168 HD
BRANCH  13  15
HETATM   15  C5  UNL     1       0.871   8.116  18.916  1.00  0.00     0.173 A 
HETATM   16  N3  UNL     1       1.596   8.968  19.556  1.00  0.00    -0.345 N 
HETATM   17  C6  UNL     1       2.291   8.384  20.654  1.00  0.00     0.107 A 
ATOM     18  H3  UNL     1       1.665   9.954  19.305  1.00  0.00     0.163 HD
HETATM   19  C7  UNL     1       3.803   8.499  20.520  1.00  0.00     0.054 C 
HETATM   20  C10 UNL     1       2.065   9.121  21.956  1.00  0.00     0.054 C 
HETATM   21  N4  UNL     1       1.875   7.010  20.678  1.00  0.00    -0.328 N 
HETATM   22  C8  UNL     1       4.272   8.136  21.911  1.00  0.00     0.004 C 
HETATM   23  C9  UNL     1       3.127   8.515  22.837  1.00  0.00     0.004 C 
HETATM   24  C11 UNL     1       0.985   6.832  19.565  1.00  0.00     0.287 A 
ATOM     25  H4  UNL     1       2.157   6.300  21.353  1.00  0.00     0.165 HD
HETATM   26  O3  UNL     1       0.437   5.737  19.263  1.00  0.00    -0.264 OA
ENDBRANCH  13  15
ENDBRANCH   7  13
BRANCH   8  27
HETATM   27  O4  UNL     1       2.230   9.588  16.469  1.00  0.00    -0.357 OA
ATOM     28  H4  UNL     1       2.588   9.295  15.640  1.00  0.00     0.218 HD
ENDBRANCH   8  27
BRANCH  11  29
HETATM   29  C15 UNL     1      -0.605  13.381  15.196  1.00  0.00     0.020 C 
HETATM   30  C16 UNL     1       0.109  14.116  14.427  1.00  0.00     0.051 C 
BRANCH  30  31
HETATM   31  C17 UNL     1      -0.422  15.394  13.920  1.00  0.00     0.154 C 
HETATM   32  O5  UNL     1       0.404  16.256  13.499  1.00  0.00    -0.293 OA
BRANCH  31  33
HETATM   33  C18 UNL     1      -1.871  15.724  13.887  1.00  0.00     0.129 C 
BRANCH  33  34
HETATM   34  C19 UNL     1      -1.948  17.201  13.789  1.00  0.00     0.088 C 
HETATM   35  N5  UNL     1      -3.027  17.808  14.192  1.00  0.00    -0.313 N 
ATOM     36  H5  UNL     1      -3.833  17.313  14.573  1.00  0.00     0.185 HD
BRANCH  35  37
HETATM   37  N6  UNL     1      -2.982  19.215  14.053  1.00  0.00    -0.279 N 
ATOM     38  H6  UNL     1      -2.084  19.682  13.923  1.00  0.00     0.189 HD
BRANCH  37  39
HETATM   39  C20 UNL     1      -4.157  19.972  14.093  1.00  0.00     0.199 C 
HETATM   40  N7  UNL     1      -5.207  19.848  13.171  1.00  0.00    -0.068 NA
HETATM   41  S1  UNL     1      -4.298  21.097  15.290  1.00  0.00    -0.043 SA
ENDBRANCH  37  39
ENDBRANCH  35  37
ENDBRANCH  33  34
ENDBRANCH  31  33
ENDBRANCH  30  31
ENDBRANCH  11  29
BRANCH  12  42
HETATM   42  O6  UNL     1      -2.672  12.085  16.525  1.00  0.00    -0.352 OA
HETATM   43  C22 UNL     1      -3.649  11.720  15.572  1.00  0.00     0.210 C 
ENDBRANCH  12  42
ENDBRANCH   5   6
ENDBRANCH   3   5
TORSDOF 11
ENDMDL
