MODEL 1
REMARK VINA RESULT: -5.701790015      0.000      0.000
REMARK  1 active torsions:
REMARK  status: ('A' for Active; 'I' for Inactive)
REMARK    1  A    between atoms: C2_2  and  C4_4 
ROOT
HETATM    1  C4  UNL     1     -36.829 -21.646  20.903  1.00  0.00     0.324 C 
HETATM    2  N1  UNL     1     -37.799 -21.488  19.827  1.00  0.00    -0.046 N 
ATOM      3  H11 UNL     1     -37.597 -22.033  18.989  1.00  0.00     0.280 HD
ATOM      4  H12 UNL     1     -37.779 -20.579  19.365  1.00  0.00     0.280 HD
HETATM    5  C5  UNL     1     -39.056 -21.813  20.474  1.00  0.00     0.261 C 
HETATM    6  C6  UNL     1     -38.683 -21.922  21.956  1.00  0.00     0.198 C 
HETATM    7  O1  UNL     1     -37.535 -21.097  21.973  1.00  0.00    -0.357 OA
ENDROOT
BRANCH   1   8
HETATM    8  C2  UNL     1     -35.559 -20.877  20.619  1.00  0.00     0.034 C 
HETATM    9  C1  UNL     1     -35.374 -20.717  19.125  1.00  0.00     0.014 C 
HETATM   10  C3  UNL     1     -34.404 -21.723  21.122  1.00  0.00     0.014 C 
ENDBRANCH   1   8
TORSDOF 1
ENDMDL
MODEL 2
REMARK VINA RESULT: -5.571499656      1.274      1.895
REMARK  1 active torsions:
REMARK  status: ('A' for Active; 'I' for Inactive)
REMARK    1  A    between atoms: C2_2  and  C4_4 
ROOT
HETATM    1  C4  UNL     1     -36.680 -21.229  20.688  1.00  0.00     0.324 C 
HETATM    2  N1  UNL     1     -36.880 -22.160  21.790  1.00  0.00    -0.046 N 
ATOM      3  H11 UNL     1     -36.513 -21.843  22.688  1.00  0.00     0.280 HD
ATOM      4  H12 UNL     1     -36.313 -23.007  21.741  1.00  0.00     0.280 HD
HETATM    5  C5  UNL     1     -38.313 -22.387  21.767  1.00  0.00     0.261 C 
HETATM    6  C6  UNL     1     -38.767 -21.699  20.475  1.00  0.00     0.198 C 
HETATM    7  O1  UNL     1     -37.560 -21.752  19.741  1.00  0.00    -0.357 OA
ENDROOT
BRANCH   1   8
HETATM    8  C2  UNL     1     -35.251 -21.254  20.196  1.00  0.00     0.034 C 
HETATM    9  C1  UNL     1     -34.327 -20.706  21.261  1.00  0.00     0.014 C 
HETATM   10  C3  UNL     1     -35.172 -20.311  19.009  1.00  0.00     0.014 C 
ENDBRANCH   1   8
TORSDOF 1
ENDMDL
MODEL 3
REMARK VINA RESULT: -5.268393879      0.875      1.469
REMARK  1 active torsions:
REMARK  status: ('A' for Active; 'I' for Inactive)
REMARK    1  A    between atoms: C2_2  and  C4_4 
ROOT
HETATM    1  C4  UNL     1     -36.154 -21.698  20.675  1.00  0.00     0.324 C 
HETATM    2  N1  UNL     1     -37.237 -21.385  19.752  1.00  0.00    -0.046 N 
ATOM      3  H11 UNL     1     -37.253 -21.954  18.905  1.00  0.00     0.280 HD
ATOM      4  H12 UNL     1     -37.142 -20.490  19.272  1.00  0.00     0.280 HD
HETATM    5  C5  UNL     1     -38.419 -21.505  20.585  1.00  0.00     0.261 C 
HETATM    6  C6  UNL     1     -37.850 -21.675  21.997  1.00  0.00     0.198 C 
HETATM    7  O1  UNL     1     -36.595 -21.046  21.825  1.00  0.00    -0.357 OA
ENDROOT
BRANCH   1   8
HETATM    8  C2  UNL     1     -34.836 -21.143  20.189  1.00  0.00     0.034 C 
HETATM    9  C1  UNL     1     -34.170 -20.349  21.292  1.00  0.00     0.014 C 
HETATM   10  C3  UNL     1     -35.148 -20.170  19.067  1.00  0.00     0.014 C 
ENDBRANCH   1   8
TORSDOF 1
ENDMDL
MODEL 4
REMARK VINA RESULT: -5.244787307      2.609      3.967
REMARK  1 active torsions:
REMARK  status: ('A' for Active; 'I' for Inactive)
REMARK    1  A    between atoms: C2_2  and  C4_4 
ROOT
HETATM    1  C4  UNL     1     -34.070 -20.907  21.346  1.00  0.00     0.324 C 
HETATM    2  N1  UNL     1     -34.761 -20.969  22.627  1.00  0.00    -0.046 N 
ATOM      3  H11 UNL     1     -34.922 -21.913  22.979  1.00  0.00     0.280 HD
ATOM      4  H12 UNL     1     -35.745 -20.702  22.594  1.00  0.00     0.280 HD
HETATM    5  C5  UNL     1     -33.935 -20.136  23.482  1.00  0.00     0.261 C 
HETATM    6  C6  UNL     1     -32.940 -19.495  22.509  1.00  0.00     0.198 C 
HETATM    7  O1  UNL     1     -33.696 -19.564  21.316  1.00  0.00    -0.357 OA
ENDROOT
BRANCH   1   8
HETATM    8  C2  UNL     1     -34.995 -21.255  20.203  1.00  0.00     0.034 C 
HETATM    9  C1  UNL     1     -34.967 -20.156  19.162  1.00  0.00     0.014 C 
HETATM   10  C3  UNL     1     -36.404 -21.297  20.766  1.00  0.00     0.014 C 
ENDBRANCH   1   8
TORSDOF 1
ENDMDL
MODEL 5
REMARK VINA RESULT: -4.667337081      2.030      2.867
REMARK  1 active torsions:
REMARK  status: ('A' for Active; 'I' for Inactive)
REMARK    1  A    between atoms: C2_2  and  C4_4 
ROOT
HETATM    1  C4  UNL     1     -34.751 -21.234  21.586  1.00  0.00     0.324 C 
HETATM    2  N1  UNL     1     -34.936 -20.815  20.203  1.00  0.00    -0.046 N 
ATOM      3  H11 UNL     1     -34.295 -21.247  19.537  1.00  0.00     0.280 HD
ATOM      4  H12 UNL     1     -34.655 -19.854  20.007  1.00  0.00     0.280 HD
HETATM    5  C5  UNL     1     -36.340 -21.098  19.963  1.00  0.00     0.261 C 
HETATM    6  C6  UNL     1     -36.876 -21.466  21.350  1.00  0.00     0.198 C 
HETATM    7  O1  UNL     1     -35.940 -20.780  22.157  1.00  0.00    -0.357 OA
ENDROOT
BRANCH   1   8
HETATM    8  C2  UNL     1     -33.544 -20.571  22.207  1.00  0.00     0.034 C 
HETATM    9  C1  UNL     1     -33.810 -20.275  23.667  1.00  0.00     0.014 C 
HETATM   10  C3  UNL     1     -33.361 -19.236  21.509  1.00  0.00     0.014 C 
ENDBRANCH   1   8
TORSDOF 1
ENDMDL
