MODEL 1
REMARK VINA RESULT: -6.127717107      0.000      0.000
REMARK  5 active torsions:
REMARK  status: ('A' for Active; 'I' for Inactive)
REMARK    1  A    between atoms: N1_1  and  C1_4 
REMARK    2  A    between atoms: C2_7  and  C3_8 
REMARK    3  A    between atoms: N6_17  and  C5_18 
REMARK    4  A    between atoms: C5_18  and  C6_19 
REMARK    5  A    between atoms: C6_19  and  O2_20 
ROOT
HETATM    1  C1  UNL     1      -5.853   3.124   2.059  1.00  0.00     0.681 A 
HETATM    2  N2  UNL     1      -6.888   2.416   2.495  1.00  0.00    -0.172 N 
ATOM      3  H2  UNL     1      -7.055   2.335   3.498  1.00  0.00     0.186 HD
HETATM    4  C2  UNL     1      -7.742   1.787   1.612  1.00  0.00     0.177 A 
HETATM    5  N6  UNL     1      -7.505   1.904   0.302  1.00  0.00    -0.258 N 
HETATM    6  C7  UNL     1      -6.427   2.642  -0.125  1.00  0.00     0.346 A 
HETATM    7  O3  UNL     1      -6.262   2.712  -1.351  1.00  0.00    -0.246 OA
HETATM    8  N7  UNL     1      -5.610   3.246   0.725  1.00  0.00    -0.141 N 
ATOM      9  H7  UNL     1      -4.816   3.790   0.387  1.00  0.00     0.189 HD
ENDROOT
BRANCH   4  10
HETATM   10  C3  UNL     1      -8.819   1.055   2.252  1.00  0.00     0.170 A 
HETATM   11  N3  UNL     1      -9.984   1.527   2.689  1.00  0.00    -0.278 N 
HETATM   12  N4  UNL     1     -10.723   0.571   3.220  1.00  0.00    -0.250 N 
ATOM     13  H3  UNL     1     -10.269   2.504   2.623  1.00  0.00     0.189 HD
HETATM   14  C4  UNL     1     -10.034  -0.573   3.134  1.00  0.00     0.340 A 
ATOM     15  H4  UNL     1     -11.654   0.685   3.622  1.00  0.00     0.192 HD
HETATM   16  O1  UNL     1     -10.441  -1.683   3.544  1.00  0.00    -0.245 OA
HETATM   17  N5  UNL     1      -8.868  -0.266   2.540  1.00  0.00    -0.289 N 
ATOM     18  H5  UNL     1      -8.125  -0.935   2.336  1.00  0.00     0.172 HD
ENDBRANCH   4  10
BRANCH   5  19
HETATM   19  C5  UNL     1      -8.347   1.285  -0.631  1.00  0.00     0.102 C 
BRANCH  19  20
HETATM   20  C6  UNL     1      -9.530   1.961  -1.168  1.00  0.00     0.209 C 
BRANCH  20  21
HETATM   21  O2  UNL     1      -9.097   2.808  -2.220  1.00  0.00    -0.396 OA
ATOM     22  H2  UNL     1      -9.385   2.419  -3.037  1.00  0.00     0.209 HD
ENDBRANCH  20  21
ENDBRANCH  19  20
ENDBRANCH   5  19
BRANCH   1  23
HETATM   23  N1  UNL     1      -5.033   3.729   2.870  1.00  0.00    -0.234 N 
ATOM     24  H12 UNL     1      -5.423   4.454   3.472  1.00  0.00     0.174 HD
ATOM     25  H11 UNL     1      -4.040   3.497   2.914  1.00  0.00     0.174 HD
ENDBRANCH   1  23
TORSDOF 5
ENDMDL
MODEL 2
REMARK VINA RESULT: -6.114688223      2.526      4.582
REMARK  5 active torsions:
REMARK  status: ('A' for Active; 'I' for Inactive)
REMARK    1  A    between atoms: N1_1  and  C1_4 
REMARK    2  A    between atoms: C2_7  and  C3_8 
REMARK    3  A    between atoms: N6_17  and  C5_18 
REMARK    4  A    between atoms: C5_18  and  C6_19 
REMARK    5  A    between atoms: C6_19  and  O2_20 
ROOT
HETATM    1  C1  UNL     1      -7.125   0.806   2.365  1.00  0.00     0.681 A 
HETATM    2  N2  UNL     1      -6.986   2.108   2.146  1.00  0.00    -0.172 N 
ATOM      3  H2  UNL     1      -6.262   2.626   2.643  1.00  0.00     0.186 HD
HETATM    4  C2  UNL     1      -7.807   2.771   1.256  1.00  0.00     0.177 A 
HETATM    5  N6  UNL     1      -8.750   2.073   0.617  1.00  0.00    -0.258 N 
HETATM    6  C7  UNL     1      -8.874   0.725   0.860  1.00  0.00     0.346 A 
HETATM    7  O3  UNL     1      -9.768   0.136   0.236  1.00  0.00    -0.246 OA
HETATM    8  N7  UNL     1      -8.085   0.092   1.714  1.00  0.00    -0.141 N 
ATOM      9  H7  UNL     1      -8.193  -0.908   1.880  1.00  0.00     0.189 HD
ENDROOT
BRANCH   4  10
HETATM   10  C3  UNL     1      -7.523   4.188   1.134  1.00  0.00     0.170 A 
HETATM   11  N3  UNL     1      -6.894   4.816   0.144  1.00  0.00    -0.278 N 
HETATM   12  N4  UNL     1      -6.815   6.114   0.369  1.00  0.00    -0.250 N 
ATOM     13  H3  UNL     1      -6.520   4.353  -0.684  1.00  0.00     0.189 HD
HETATM   14  C4  UNL     1      -7.408   6.362   1.543  1.00  0.00     0.340 A 
ATOM     15  H4  UNL     1      -6.380   6.804  -0.243  1.00  0.00     0.192 HD
HETATM   16  O1  UNL     1      -7.514   7.495   2.064  1.00  0.00    -0.245 OA
HETATM   17  N5  UNL     1      -7.839   5.175   2.005  1.00  0.00    -0.289 N 
ATOM     18  H5  UNL     1      -8.333   5.038   2.886  1.00  0.00     0.172 HD
ENDBRANCH   4  10
BRANCH   5  19
HETATM   19  C5  UNL     1      -9.604   2.703  -0.299  1.00  0.00     0.102 C 
BRANCH  19  20
HETATM   20  C6  UNL     1      -9.344   2.676  -1.739  1.00  0.00     0.209 C 
BRANCH  20  21
HETATM   21  O2  UNL     1      -8.697   3.892  -2.079  1.00  0.00    -0.396 OA
ATOM     22  H2  UNL     1      -8.097   3.707  -2.791  1.00  0.00     0.209 HD
ENDBRANCH  20  21
ENDBRANCH  19  20
ENDBRANCH   5  19
BRANCH   1  23
HETATM   23  N1  UNL     1      -6.364   0.155   3.198  1.00  0.00    -0.234 N 
ATOM     24  H12 UNL     1      -6.698   0.059   4.157  1.00  0.00     0.174 HD
ATOM     25  H11 UNL     1      -5.469  -0.247   2.919  1.00  0.00     0.174 HD
ENDBRANCH   1  23
TORSDOF 5
ENDMDL
MODEL 3
REMARK VINA RESULT: -5.948331205      2.735      4.149
REMARK  5 active torsions:
REMARK  status: ('A' for Active; 'I' for Inactive)
REMARK    1  A    between atoms: N1_1  and  C1_4 
REMARK    2  A    between atoms: C2_7  and  C3_8 
REMARK    3  A    between atoms: N6_17  and  C5_18 
REMARK    4  A    between atoms: C5_18  and  C6_19 
REMARK    5  A    between atoms: C6_19  and  O2_20 
ROOT
HETATM    1  C1  UNL     1      -7.139   5.726   1.994  1.00  0.00     0.681 A 
HETATM    2  N2  UNL     1      -7.506   4.649   1.309  1.00  0.00    -0.172 N 
ATOM      3  H2  UNL     1      -8.135   4.751   0.513  1.00  0.00     0.186 HD
HETATM    4  C2  UNL     1      -7.051   3.394   1.659  1.00  0.00     0.177 A 
HETATM    5  N6  UNL     1      -6.229   3.283   2.706  1.00  0.00    -0.258 N 
HETATM    6  C7  UNL     1      -5.863   4.412   3.400  1.00  0.00     0.346 A 
HETATM    7  O3  UNL     1      -5.099   4.241   4.361  1.00  0.00    -0.246 OA
HETATM    8  N7  UNL     1      -6.301   5.615   3.061  1.00  0.00    -0.141 N 
ATOM      9  H7  UNL     1      -6.017   6.440   3.589  1.00  0.00     0.189 HD
ENDROOT
BRANCH   4  10
HETATM   10  C3  UNL     1      -7.547   2.328   0.809  1.00  0.00     0.170 A 
HETATM   11  N3  UNL     1      -7.092   1.950  -0.382  1.00  0.00    -0.278 N 
HETATM   12  N4  UNL     1      -7.789   0.940  -0.867  1.00  0.00    -0.250 N 
ATOM     13  H3  UNL     1      -6.304   2.386  -0.861  1.00  0.00     0.189 HD
HETATM   14  C4  UNL     1      -8.738   0.633   0.026  1.00  0.00     0.340 A 
ATOM     15  H4  UNL     1      -7.632   0.476  -1.762  1.00  0.00     0.192 HD
HETATM   16  O1  UNL     1      -9.580  -0.282  -0.114  1.00  0.00    -0.245 OA
HETATM   17  N5  UNL     1      -8.582   1.489   1.050  1.00  0.00    -0.289 N 
ATOM     18  H5  UNL     1      -9.161   1.505   1.889  1.00  0.00     0.172 HD
ENDBRANCH   4  10
BRANCH   5  19
HETATM   19  C5  UNL     1      -5.738   2.029   3.096  1.00  0.00     0.102 C 
BRANCH  19  20
HETATM   20  C6  UNL     1      -6.510   1.136   3.961  1.00  0.00     0.209 C 
BRANCH  20  21
HETATM   21  O2  UNL     1      -6.784  -0.044   3.221  1.00  0.00    -0.396 OA
ATOM     22  H2  UNL     1      -6.053  -0.636   3.348  1.00  0.00     0.209 HD
ENDBRANCH  20  21
ENDBRANCH  19  20
ENDBRANCH   5  19
BRANCH   1  23
HETATM   23  N1  UNL     1      -7.554   6.921   1.685  1.00  0.00    -0.234 N 
ATOM     24  H12 UNL     1      -8.545   7.120   1.821  1.00  0.00     0.174 HD
ATOM     25  H11 UNL     1      -6.926   7.639   1.323  1.00  0.00     0.174 HD
ENDBRANCH   1  23
TORSDOF 5
ENDMDL
MODEL 4
REMARK VINA RESULT: -5.946498633      2.246      4.184
REMARK  5 active torsions:
REMARK  status: ('A' for Active; 'I' for Inactive)
REMARK    1  A    between atoms: N1_1  and  C1_4 
REMARK    2  A    between atoms: C2_7  and  C3_8 
REMARK    3  A    between atoms: N6_17  and  C5_18 
REMARK    4  A    between atoms: C5_18  and  C6_19 
REMARK    5  A    between atoms: C6_19  and  O2_20 
ROOT
HETATM    1  C1  UNL     1      -5.487   3.001   3.002  1.00  0.00     0.681 A 
HETATM    2  N2  UNL     1      -6.311   3.424   2.051  1.00  0.00    -0.172 N 
ATOM      3  H2  UNL     1      -6.233   4.382   1.710  1.00  0.00     0.186 HD
HETATM    4  C2  UNL     1      -7.271   2.588   1.518  1.00  0.00     0.177 A 
HETATM    5  N6  UNL     1      -7.357   1.338   1.981  1.00  0.00    -0.258 N 
HETATM    6  C7  UNL     1      -6.493   0.922   2.966  1.00  0.00     0.346 A 
HETATM    7  O3  UNL     1      -6.624  -0.248   3.352  1.00  0.00    -0.246 OA
HETATM    8  N7  UNL     1      -5.572   1.726   3.475  1.00  0.00    -0.141 N 
ATOM      9  H7  UNL     1      -4.940   1.398   4.205  1.00  0.00     0.189 HD
ENDROOT
BRANCH   4  10
HETATM   10  C3  UNL     1      -8.088   3.207   0.491  1.00  0.00     0.170 A 
HETATM   11  N3  UNL     1      -7.692   3.730  -0.666  1.00  0.00    -0.278 N 
HETATM   12  N4  UNL     1      -8.711   4.207  -1.355  1.00  0.00    -0.250 N 
ATOM     13  H3  UNL     1      -6.722   3.758  -0.982  1.00  0.00     0.189 HD
HETATM   14  C4  UNL     1      -9.822   3.997  -0.637  1.00  0.00     0.340 A 
ATOM     15  H4  UNL     1      -8.662   4.655  -2.270  1.00  0.00     0.192 HD
HETATM   16  O1  UNL     1     -10.975   4.328  -0.994  1.00  0.00    -0.245 OA
HETATM   17  N5  UNL     1      -9.430   3.384   0.492  1.00  0.00    -0.289 N 
ATOM     18  H5  UNL     1     -10.054   3.094   1.244  1.00  0.00     0.172 HD
ENDBRANCH   4  10
BRANCH   5  19
HETATM   19  C5  UNL     1      -8.314   0.453   1.467  1.00  0.00     0.102 C 
BRANCH  19  20
HETATM   20  C6  UNL     1      -9.589   0.218   2.147  1.00  0.00     0.209 C 
BRANCH  20  21
HETATM   21  O2  UNL     1      -9.512  -1.053   2.771  1.00  0.00    -0.396 OA
ATOM     22  H2  UNL     1      -9.494  -1.708   2.084  1.00  0.00     0.209 HD
ENDBRANCH  20  21
ENDBRANCH  19  20
ENDBRANCH   5  19
BRANCH   1  23
HETATM   23  N1  UNL     1      -4.572   3.767   3.522  1.00  0.00    -0.234 N 
ATOM     24  H12 UNL     1      -4.362   4.638   3.035  1.00  0.00     0.174 HD
ATOM     25  H11 UNL     1      -4.077   3.521   4.380  1.00  0.00     0.174 HD
ENDBRANCH   1  23
TORSDOF 5
ENDMDL
MODEL 5
REMARK VINA RESULT: -5.922079439      3.156      4.693
REMARK  5 active torsions:
REMARK  status: ('A' for Active; 'I' for Inactive)
REMARK    1  A    between atoms: N1_1  and  C1_4 
REMARK    2  A    between atoms: C2_7  and  C3_8 
REMARK    3  A    between atoms: N6_17  and  C5_18 
REMARK    4  A    between atoms: C5_18  and  C6_19 
REMARK    5  A    between atoms: C6_19  and  O2_20 
ROOT
HETATM    1  C1  UNL     1      -5.431   2.627   2.743  1.00  0.00     0.681 A 
HETATM    2  N2  UNL     1      -6.265   2.679   1.711  1.00  0.00    -0.172 N 
ATOM      3  H2  UNL     1      -6.361   1.867   1.102  1.00  0.00     0.186 HD
HETATM    4  C2  UNL     1      -7.004   3.815   1.450  1.00  0.00     0.177 A 
HETATM    5  N6  UNL     1      -6.862   4.868   2.260  1.00  0.00    -0.258 N 
HETATM    6  C7  UNL     1      -5.992   4.791   3.322  1.00  0.00     0.346 A 
HETATM    7  O3  UNL     1      -5.906   5.801   4.034  1.00  0.00    -0.246 OA
HETATM    8  N7  UNL     1      -5.285   3.699   3.570  1.00  0.00    -0.141 N 
ATOM      9  H7  UNL     1      -4.646   3.662   4.364  1.00  0.00     0.189 HD
ENDROOT
BRANCH   4  10
HETATM   10  C3  UNL     1      -7.864   3.706   0.287  1.00  0.00     0.170 A 
HETATM   11  N3  UNL     1      -7.920   4.513  -0.769  1.00  0.00    -0.278 N 
HETATM   12  N4  UNL     1      -8.824   4.106  -1.640  1.00  0.00    -0.250 N 
ATOM     13  H3  UNL     1      -7.338   5.341  -0.891  1.00  0.00     0.189 HD
HETATM   14  C4  UNL     1      -9.389   2.995  -1.152  1.00  0.00     0.340 A 
ATOM     15  H4  UNL     1      -9.051   4.557  -2.526  1.00  0.00     0.192 HD
HETATM   16  O1  UNL     1     -10.292   2.343  -1.725  1.00  0.00    -0.245 OA
HETATM   17  N5  UNL     1      -8.795   2.758   0.029  1.00  0.00    -0.289 N 
ATOM     18  H5  UNL     1      -9.014   1.975   0.645  1.00  0.00     0.172 HD
ENDBRANCH   4  10
BRANCH   5  19
HETATM   19  C5  UNL     1      -7.594   6.042   2.036  1.00  0.00     0.102 C 
BRANCH  19  20
HETATM   20  C6  UNL     1      -8.899   6.266   2.661  1.00  0.00     0.209 C 
BRANCH  20  21
HETATM   21  O2  UNL     1      -8.684   7.035   3.833  1.00  0.00    -0.396 OA
ATOM     22  H2  UNL     1      -8.593   6.430   4.559  1.00  0.00     0.209 HD
ENDBRANCH  20  21
ENDBRANCH  19  20
ENDBRANCH   5  19
BRANCH   1  23
HETATM   23  N1  UNL     1      -4.723   1.568   3.012  1.00  0.00    -0.234 N 
ATOM     24  H12 UNL     1      -4.159   1.180   2.257  1.00  0.00     0.174 HD
ATOM     25  H11 UNL     1      -4.721   1.133   3.936  1.00  0.00     0.174 HD
ENDBRANCH   1  23
TORSDOF 5
ENDMDL
