MODEL 1
REMARK VINA RESULT: -8.410420733      0.000      0.000
REMARK  9 active torsions:
REMARK  status: ('A' for Active; 'I' for Inactive)
REMARK    1  A    between atoms: O1_2  and  N1_3 
REMARK       I    between atoms: N1_3  and  C2_5 
REMARK       I    between atoms: C2_5  and  N2_7 
REMARK    2  A    between atoms: N2_7  and  C3_9 
REMARK    3  A    between atoms: C3_9  and  C4_10 
REMARK    4  A    between atoms: C4_10  and  C5_11 
REMARK    5  A    between atoms: C5_11  and  C6_12 
REMARK    6  A    between atoms: C6_12  and  C7_13 
REMARK    7  A    between atoms: C6_12  and  C11_20 
REMARK    8  A    between atoms: C10_17  and  O4_18 
REMARK    9  A    between atoms: C22_31  and  O5_32 
ROOT
HETATM    1  C6  UNL     1      36.113  35.199  57.443  1.00  0.00    -0.058 C 
ENDROOT
BRANCH   1   2
HETATM    2  C5  UNL     1      35.123  34.372  58.227  1.00  0.00     0.037 C 
BRANCH   2   3
HETATM    3  C4  UNL     1      35.180  34.319  59.689  1.00  0.00     0.024 C 
BRANCH   3   4
HETATM    4  C3  UNL     1      34.771  33.099  60.433  1.00  0.00     0.125 C 
BRANCH   4   5
HETATM    5  N2  UNL     1      33.339  32.828  60.348  1.00  0.00    -0.341 N 
HETATM    6  C2  UNL     1      32.433  32.802  61.410  1.00  0.00     0.339 C 
HETATM    7  N1  UNL     1      31.040  32.502  61.163  1.00  0.00    -0.217 N 
HETATM    8  O2  UNL     1      32.750  33.021  62.608  1.00  0.00    -0.245 OA
ATOM      9  H1  UNL     1      30.742  32.319  60.206  1.00  0.00     0.199 HD
ATOM     10  H2  UNL     1      32.963  32.640  59.420  1.00  0.00     0.164 HD
BRANCH   7  11
HETATM   11  O1  UNL     1      30.126  32.454  62.138  1.00  0.00    -0.281 OA
HETATM   12  C1  UNL     1      29.256  33.519  62.057  1.00  0.00     0.237 C 
ENDBRANCH   7  11
ENDBRANCH   4   5
ENDBRANCH   3   4
ENDBRANCH   2   3
ENDBRANCH   1   2
BRANCH   1  13
HETATM   13  C7  UNL     1      36.355  36.501  58.027  1.00  0.00     0.027 A 
HETATM   14  C8  UNL     1      37.652  36.708  58.657  1.00  0.00     0.041 A 
HETATM   15  C9  UNL     1      37.779  38.020  58.985  1.00  0.00     0.146 A 
HETATM   16  O3  UNL     1      36.702  38.604  58.623  1.00  0.00    -0.300 OA
HETATM   17  C10 UNL     1      35.851  37.759  58.065  1.00  0.00     0.193 A 
BRANCH  17  18
HETATM   18  O4  UNL     1      34.613  38.192  57.617  1.00  0.00    -0.340 OA
ATOM     19  H4  UNL     1      34.162  38.998  57.841  1.00  0.00     0.220 HD
ENDBRANCH  17  18
ENDBRANCH   1  13
BRANCH   1  20
HETATM   20  C11 UNL     1      36.243  34.872  55.997  1.00  0.00     0.045 C 
HETATM   21  C12 UNL     1      37.379  35.516  55.303  1.00  0.00     0.017 C 
HETATM   22  C13 UNL     1      37.427  35.110  53.857  1.00  0.00    -0.005 C 
HETATM   23  C14 UNL     1      38.800  35.307  53.248  1.00  0.00    -0.014 C 
HETATM   24  C18 UNL     1      36.933  33.773  53.498  1.00  0.00     0.000 C 
HETATM   25  C15 UNL     1      39.858  35.673  54.260  1.00  0.00     0.010 C 
HETATM   26  C16 UNL     1      39.127  34.018  52.519  1.00  0.00     0.005 C 
HETATM   27  C17 UNL     1      37.790  33.331  52.326  1.00  0.00     0.006 C 
HETATM   28  C19 UNL     1      36.888  32.793  54.613  1.00  0.00    -0.017 C 
HETATM   29  C20 UNL     1      35.973  31.659  54.098  1.00  0.00     0.018 C 
HETATM   30  C21 UNL     1      38.201  32.068  54.867  1.00  0.00     0.018 C 
HETATM   31  C22 UNL     1      36.307  33.357  55.857  1.00  0.00     0.134 C 
BRANCH  31  32
HETATM   32  O5  UNL     1      36.949  32.762  56.982  1.00  0.00    -0.394 OA
ATOM     33  H5  UNL     1      36.665  31.863  57.103  1.00  0.00     0.210 HD
ENDBRANCH  31  32
ENDBRANCH   1  20
TORSDOF 9
ENDMDL
MODEL 2
REMARK VINA RESULT: -8.372432568      5.652      9.899
REMARK  9 active torsions:
REMARK  status: ('A' for Active; 'I' for Inactive)
REMARK    1  A    between atoms: O1_2  and  N1_3 
REMARK       I    between atoms: N1_3  and  C2_5 
REMARK       I    between atoms: C2_5  and  N2_7 
REMARK    2  A    between atoms: N2_7  and  C3_9 
REMARK    3  A    between atoms: C3_9  and  C4_10 
REMARK    4  A    between atoms: C4_10  and  C5_11 
REMARK    5  A    between atoms: C5_11  and  C6_12 
REMARK    6  A    between atoms: C6_12  and  C7_13 
REMARK    7  A    between atoms: C6_12  and  C11_20 
REMARK    8  A    between atoms: C10_17  and  O4_18 
REMARK    9  A    between atoms: C22_31  and  O5_32 
ROOT
HETATM    1  C6  UNL     1      39.549  36.958  54.283  1.00  0.00    -0.058 C 
ENDROOT
BRANCH   1   2
HETATM    2  C5  UNL     1      40.553  38.048  53.993  1.00  0.00     0.037 C 
BRANCH   2   3
HETATM    3  C4  UNL     1      40.114  39.384  53.585  1.00  0.00     0.024 C 
BRANCH   3   4
HETATM    4  C3  UNL     1      40.446  39.928  52.243  1.00  0.00     0.125 C 
BRANCH   4   5
HETATM    5  N2  UNL     1      41.821  40.410  52.144  1.00  0.00    -0.341 N 
HETATM    6  C2  UNL     1      42.385  41.470  52.857  1.00  0.00     0.339 C 
HETATM    7  N1  UNL     1      43.766  41.837  52.634  1.00  0.00    -0.217 N 
HETATM    8  O2  UNL     1      41.757  42.158  53.704  1.00  0.00    -0.245 OA
ATOM      9  H1  UNL     1      44.309  41.304  51.956  1.00  0.00     0.199 HD
ATOM     10  H2  UNL     1      42.431  39.924  51.488  1.00  0.00     0.164 HD
BRANCH   7  11
HETATM   11  O1  UNL     1      44.360  42.846  53.280  1.00  0.00    -0.281 OA
HETATM   12  C1  UNL     1      45.303  42.381  54.170  1.00  0.00     0.237 C 
ENDBRANCH   7  11
ENDBRANCH   4   5
ENDBRANCH   3   4
ENDBRANCH   2   3
ENDBRANCH   1   2
BRANCH   1  13
HETATM   13  C7  UNL     1      39.554  35.904  53.292  1.00  0.00     0.027 A 
HETATM   14  C8  UNL     1      39.022  34.612  53.703  1.00  0.00     0.041 A 
HETATM   15  C9  UNL     1      38.931  33.804  52.614  1.00  0.00     0.146 A 
HETATM   16  O3  UNL     1      39.354  34.475  51.613  1.00  0.00    -0.300 OA
HETATM   17  C10 UNL     1      39.726  35.696  51.963  1.00  0.00     0.193 A 
BRANCH  17  18
HETATM   18  O4  UNL     1      40.231  36.580  51.022  1.00  0.00    -0.340 OA
ATOM     19  H4  UNL     1      41.142  36.756  50.819  1.00  0.00     0.220 HD
ENDBRANCH  17  18
ENDBRANCH   1  13
BRANCH   1  20
HETATM   20  C11 UNL     1      38.378  37.347  55.114  1.00  0.00     0.045 C 
HETATM   21  C12 UNL     1      37.266  36.373  55.133  1.00  0.00     0.017 C 
HETATM   22  C13 UNL     1      36.143  36.855  56.009  1.00  0.00    -0.005 C 
HETATM   23  C14 UNL     1      35.245  35.725  56.468  1.00  0.00    -0.014 C 
HETATM   24  C18 UNL     1      36.482  37.695  57.166  1.00  0.00     0.000 C 
HETATM   25  C15 UNL     1      35.777  34.356  56.118  1.00  0.00     0.010 C 
HETATM   26  C16 UNL     1      35.070  35.906  57.963  1.00  0.00     0.005 C 
HETATM   27  C17 UNL     1      35.454  37.347  58.227  1.00  0.00     0.006 C 
HETATM   28  C19 UNL     1      37.887  37.594  57.634  1.00  0.00    -0.017 C 
HETATM   29  C20 UNL     1      38.088  38.833  58.536  1.00  0.00     0.018 C 
HETATM   30  C21 UNL     1      38.150  36.443  58.593  1.00  0.00     0.018 C 
HETATM   31  C22 UNL     1      38.872  37.638  56.525  1.00  0.00     0.134 C 
BRANCH  31  32
HETATM   32  O5  UNL     1      39.988  36.817  56.860  1.00  0.00    -0.394 OA
ATOM     33  H5  UNL     1      39.733  35.905  56.933  1.00  0.00     0.210 HD
ENDBRANCH  31  32
ENDBRANCH   1  20
TORSDOF 9
ENDMDL
MODEL 3
REMARK VINA RESULT: -8.329154567      1.969      4.404
REMARK  9 active torsions:
REMARK  status: ('A' for Active; 'I' for Inactive)
REMARK    1  A    between atoms: O1_2  and  N1_3 
REMARK       I    between atoms: N1_3  and  C2_5 
REMARK       I    between atoms: C2_5  and  N2_7 
REMARK    2  A    between atoms: N2_7  and  C3_9 
REMARK    3  A    between atoms: C3_9  and  C4_10 
REMARK    4  A    between atoms: C4_10  and  C5_11 
REMARK    5  A    between atoms: C5_11  and  C6_12 
REMARK    6  A    between atoms: C6_12  and  C7_13 
REMARK    7  A    between atoms: C6_12  and  C11_20 
REMARK    8  A    between atoms: C10_17  and  O4_18 
REMARK    9  A    between atoms: C22_31  and  O5_32 
ROOT
HETATM    1  C6  UNL     1      36.570  35.865  57.784  1.00  0.00    -0.058 C 
ENDROOT
BRANCH   1   2
HETATM    2  C5  UNL     1      36.170  36.121  59.218  1.00  0.00     0.037 C 
BRANCH   2   3
HETATM    3  C4  UNL     1      34.763  36.281  59.589  1.00  0.00     0.024 C 
BRANCH   3   4
HETATM    4  C3  UNL     1      34.177  35.530  60.731  1.00  0.00     0.125 C 
BRANCH   4   5
HETATM    5  N2  UNL     1      33.675  34.212  60.353  1.00  0.00    -0.341 N 
HETATM    6  C2  UNL     1      33.098  33.266  61.203  1.00  0.00     0.339 C 
HETATM    7  N1  UNL     1      32.661  31.993  60.675  1.00  0.00    -0.217 N 
HETATM    8  O2  UNL     1      32.930  33.443  62.438  1.00  0.00    -0.245 OA
ATOM      9  H1  UNL     1      32.779  31.810  59.679  1.00  0.00     0.199 HD
ATOM     10  H2  UNL     1      33.753  33.957  59.369  1.00  0.00     0.164 HD
BRANCH   7  11
HETATM   11  O1  UNL     1      32.108  31.044  61.438  1.00  0.00    -0.281 OA
HETATM   12  C1  UNL     1      32.637  29.805  61.152  1.00  0.00     0.237 C 
ENDBRANCH   7  11
ENDBRANCH   4   5
ENDBRANCH   3   4
ENDBRANCH   2   3
ENDBRANCH   1   2
BRANCH   1  13
HETATM   13  C7  UNL     1      36.097  34.593  57.282  1.00  0.00     0.027 A 
HETATM   14  C8  UNL     1      35.922  34.479  55.840  1.00  0.00     0.041 A 
HETATM   15  C9  UNL     1      35.656  33.184  55.528  1.00  0.00     0.146 A 
HETATM   16  O3  UNL     1      35.651  32.527  56.624  1.00  0.00    -0.300 OA
HETATM   17  C10 UNL     1      35.901  33.306  57.663  1.00  0.00     0.193 A 
BRANCH  17  18
HETATM   18  O4  UNL     1      35.925  32.787  58.948  1.00  0.00    -0.340 OA
ATOM     19  H4  UNL     1      36.079  31.887  59.209  1.00  0.00     0.220 HD
ENDBRANCH  17  18
ENDBRANCH   1  13
BRANCH   1  20
HETATM   20  C11 UNL     1      37.784  36.579  57.303  1.00  0.00     0.045 C 
HETATM   21  C12 UNL     1      38.441  35.980  56.123  1.00  0.00     0.017 C 
HETATM   22  C13 UNL     1      39.644  36.782  55.711  1.00  0.00    -0.005 C 
HETATM   23  C14 UNL     1      40.036  36.536  54.269  1.00  0.00    -0.014 C 
HETATM   24  C18 UNL     1      39.626  38.231  55.961  1.00  0.00     0.000 C 
HETATM   25  C15 UNL     1      39.032  35.705  53.509  1.00  0.00     0.010 C 
HETATM   26  C16 UNL     1      40.235  37.904  53.647  1.00  0.00     0.005 C 
HETATM   27  C17 UNL     1      40.422  38.842  54.822  1.00  0.00     0.006 C 
HETATM   28  C19 UNL     1      38.278  38.827  56.140  1.00  0.00    -0.017 C 
HETATM   29  C20 UNL     1      38.544  40.206  56.786  1.00  0.00     0.018 C 
HETATM   30  C21 UNL     1      37.577  39.200  54.842  1.00  0.00     0.018 C 
HETATM   31  C22 UNL     1      37.407  38.031  57.040  1.00  0.00     0.134 C 
BRANCH  31  32
HETATM   32  O5  UNL     1      36.057  38.142  56.600  1.00  0.00    -0.394 OA
ATOM     33  H5  UNL     1      35.489  38.432  57.303  1.00  0.00     0.210 HD
ENDBRANCH  31  32
ENDBRANCH   1  20
TORSDOF 9
ENDMDL
MODEL 4
REMARK VINA RESULT: -8.320572130      2.688      4.291
REMARK  9 active torsions:
REMARK  status: ('A' for Active; 'I' for Inactive)
REMARK    1  A    between atoms: O1_2  and  N1_3 
REMARK       I    between atoms: N1_3  and  C2_5 
REMARK       I    between atoms: C2_5  and  N2_7 
REMARK    2  A    between atoms: N2_7  and  C3_9 
REMARK    3  A    between atoms: C3_9  and  C4_10 
REMARK    4  A    between atoms: C4_10  and  C5_11 
REMARK    5  A    between atoms: C5_11  and  C6_12 
REMARK    6  A    between atoms: C6_12  and  C7_13 
REMARK    7  A    between atoms: C6_12  and  C11_20 
REMARK    8  A    between atoms: C10_17  and  O4_18 
REMARK    9  A    between atoms: C22_31  and  O5_32 
ROOT
HETATM    1  C6  UNL     1      34.839  35.692  59.285  1.00  0.00    -0.058 C 
ENDROOT
BRANCH   1   2
HETATM    2  C5  UNL     1      34.767  34.193  59.118  1.00  0.00     0.037 C 
BRANCH   2   3
HETATM    3  C4  UNL     1      35.240  33.295  60.174  1.00  0.00     0.024 C 
BRANCH   3   4
HETATM    4  C3  UNL     1      34.306  32.383  60.885  1.00  0.00     0.125 C 
BRANCH   4   5
HETATM    5  N2  UNL     1      32.905  32.760  60.727  1.00  0.00    -0.341 N 
HETATM    6  C2  UNL     1      32.106  33.411  61.670  1.00  0.00     0.339 C 
HETATM    7  N1  UNL     1      30.722  33.703  61.365  1.00  0.00    -0.217 N 
HETATM    8  O2  UNL     1      32.512  33.767  62.806  1.00  0.00    -0.245 OA
ATOM      9  H1  UNL     1      30.354  33.431  60.454  1.00  0.00     0.199 HD
ATOM     10  H2  UNL     1      32.465  32.526  59.837  1.00  0.00     0.164 HD
BRANCH   7  11
HETATM   11  O1  UNL     1      29.905  34.316  62.228  1.00  0.00    -0.281 OA
HETATM   12  C1  UNL     1      28.708  33.644  62.343  1.00  0.00     0.237 C 
ENDBRANCH   7  11
ENDBRANCH   4   5
ENDBRANCH   3   4
ENDBRANCH   2   3
ENDBRANCH   1   2
BRANCH   1  13
HETATM   13  C7  UNL     1      33.876  36.204  60.236  1.00  0.00     0.027 A 
HETATM   14  C8  UNL     1      34.376  36.543  61.561  1.00  0.00     0.041 A 
HETATM   15  C9  UNL     1      33.394  37.172  62.257  1.00  0.00     0.146 A 
HETATM   16  O3  UNL     1      32.374  37.236  61.491  1.00  0.00    -0.300 OA
HETATM   17  C10 UNL     1      32.611  36.686  60.312  1.00  0.00     0.193 A 
BRANCH  17  18
HETATM   18  O4  UNL     1      31.623  36.639  59.340  1.00  0.00    -0.340 OA
ATOM     19  H4  UNL     1      31.715  36.387  58.429  1.00  0.00     0.220 HD
ENDBRANCH  17  18
ENDBRANCH   1  13
BRANCH   1  20
HETATM   20  C11 UNL     1      35.398  36.455  58.136  1.00  0.00     0.045 C 
HETATM   21  C12 UNL     1      35.333  37.926  58.265  1.00  0.00     0.017 C 
HETATM   22  C13 UNL     1      35.934  38.599  57.062  1.00  0.00    -0.005 C 
HETATM   23  C14 UNL     1      36.354  40.025  57.349  1.00  0.00    -0.014 C 
HETATM   24  C18 UNL     1      37.027  37.911  56.360  1.00  0.00     0.000 C 
HETATM   25  C15 UNL     1      36.266  40.394  58.810  1.00  0.00     0.010 C 
HETATM   26  C16 UNL     1      37.763  40.167  56.807  1.00  0.00     0.005 C 
HETATM   27  C17 UNL     1      37.922  39.017  55.833  1.00  0.00     0.006 C 
HETATM   28  C19 UNL     1      37.745  36.884  57.157  1.00  0.00    -0.017 C 
HETATM   29  C20 UNL     1      38.517  36.049  56.111  1.00  0.00     0.018 C 
HETATM   30  C21 UNL     1      38.863  37.434  58.031  1.00  0.00     0.018 C 
HETATM   31  C22 UNL     1      36.830  35.990  57.910  1.00  0.00     0.134 C 
BRANCH  31  32
HETATM   32  O5  UNL     1      37.451  35.616  59.137  1.00  0.00    -0.394 OA
ATOM     33  H5  UNL     1      38.396  35.690  59.080  1.00  0.00     0.210 HD
ENDBRANCH  31  32
ENDBRANCH   1  20
TORSDOF 9
ENDMDL
MODEL 5
REMARK VINA RESULT: -8.300053673      5.447      8.893
REMARK  9 active torsions:
REMARK  status: ('A' for Active; 'I' for Inactive)
REMARK    1  A    between atoms: O1_2  and  N1_3 
REMARK       I    between atoms: N1_3  and  C2_5 
REMARK       I    between atoms: C2_5  and  N2_7 
REMARK    2  A    between atoms: N2_7  and  C3_9 
REMARK    3  A    between atoms: C3_9  and  C4_10 
REMARK    4  A    between atoms: C4_10  and  C5_11 
REMARK    5  A    between atoms: C5_11  and  C6_12 
REMARK    6  A    between atoms: C6_12  and  C7_13 
REMARK    7  A    between atoms: C6_12  and  C11_20 
REMARK    8  A    between atoms: C10_17  and  O4_18 
REMARK    9  A    between atoms: C22_31  and  O5_32 
ROOT
HETATM    1  C6  UNL     1      39.437  37.556  53.869  1.00  0.00    -0.058 C 
ENDROOT
BRANCH   1   2
HETATM    2  C5  UNL     1      40.088  38.759  53.231  1.00  0.00     0.037 C 
BRANCH   2   3
HETATM    3  C4  UNL     1      41.540  38.817  53.044  1.00  0.00     0.024 C 
BRANCH   3   4
HETATM    4  C3  UNL     1      42.403  39.613  53.956  1.00  0.00     0.125 C 
BRANCH   4   5
HETATM    5  N2  UNL     1      41.748  39.950  55.216  1.00  0.00    -0.341 N 
HETATM    6  C2  UNL     1      41.580  41.229  55.752  1.00  0.00     0.339 C 
HETATM    7  N1  UNL     1      40.919  41.396  57.027  1.00  0.00    -0.217 N 
HETATM    8  O2  UNL     1      41.982  42.282  55.192  1.00  0.00    -0.245 OA
ATOM      9  H1  UNL     1      40.577  40.568  57.513  1.00  0.00     0.199 HD
ATOM     10  H2  UNL     1      41.374  39.173  55.760  1.00  0.00     0.164 HD
BRANCH   7  11
HETATM   11  O1  UNL     1      40.735  42.592  57.595  1.00  0.00    -0.281 OA
HETATM   12  C1  UNL     1      39.400  42.932  57.621  1.00  0.00     0.237 C 
ENDBRANCH   7  11
ENDBRANCH   4   5
ENDBRANCH   3   4
ENDBRANCH   2   3
ENDBRANCH   1   2
BRANCH   1  13
HETATM   13  C7  UNL     1      39.575  36.351  53.080  1.00  0.00     0.027 A 
HETATM   14  C8  UNL     1      39.251  35.093  53.740  1.00  0.00     0.041 A 
HETATM   15  C9  UNL     1      39.256  34.096  52.817  1.00  0.00     0.146 A 
HETATM   16  O3  UNL     1      39.551  34.626  51.693  1.00  0.00    -0.300 OA
HETATM   17  C10 UNL     1      39.744  35.930  51.802  1.00  0.00     0.193 A 
BRANCH  17  18
HETATM   18  O4  UNL     1      40.089  36.691  50.696  1.00  0.00    -0.340 OA
ATOM     19  H4  UNL     1      40.960  36.933  50.405  1.00  0.00     0.220 HD
ENDBRANCH  17  18
ENDBRANCH   1  13
BRANCH   1  20
HETATM   20  C11 UNL     1      38.324  37.837  54.817  1.00  0.00     0.045 C 
HETATM   21  C12 UNL     1      37.314  36.765  54.940  1.00  0.00     0.017 C 
HETATM   22  C13 UNL     1      36.246  37.142  55.928  1.00  0.00    -0.005 C 
HETATM   23  C14 UNL     1      35.506  35.935  56.466  1.00  0.00    -0.014 C 
HETATM   24  C18 UNL     1      36.621  38.012  57.052  1.00  0.00     0.000 C 
HETATM   25  C15 UNL     1      36.124  34.620  56.055  1.00  0.00     0.010 C 
HETATM   26  C16 UNL     1      35.467  36.101  57.973  1.00  0.00     0.005 C 
HETATM   27  C17 UNL     1      35.742  37.572  58.208  1.00  0.00     0.006 C 
HETATM   28  C19 UNL     1      38.070  38.042  57.375  1.00  0.00    -0.017 C 
HETATM   29  C20 UNL     1      38.246  39.296  58.261  1.00  0.00     0.018 C 
HETATM   30  C21 UNL     1      38.533  36.921  58.293  1.00  0.00     0.018 C 
HETATM   31  C22 UNL     1      38.929  38.175  56.172  1.00  0.00     0.134 C 
BRANCH  31  32
HETATM   32  O5  UNL     1      40.144  37.461  56.387  1.00  0.00    -0.394 OA
ATOM     33  H5  UNL     1      40.190  37.121  57.273  1.00  0.00     0.210 HD
ENDBRANCH  31  32
ENDBRANCH   1  20
TORSDOF 9
ENDMDL
