MODEL 1
REMARK VINA RESULT: -5.672636173      0.000      0.000
REMARK  11 active torsions:
REMARK  status: ('A' for Active; 'I' for Inactive)
REMARK    1  A    between atoms: O1_2  and  C2_3 
REMARK    2  A    between atoms: C5_7  and  C6_8 
REMARK    3  A    between atoms: C6_8  and  C7_9 
REMARK    4  A    between atoms: C8_10  and  C9_11 
REMARK    5  A    between atoms: C9_11  and  C10_12 
REMARK    6  A    between atoms: C13_15  and  O3_16 
REMARK    7  A    between atoms: C24_28  and  C25_29 
REMARK    8  A    between atoms: C25_29  and  O4_30 
REMARK    9  A    between atoms: C26_32  and  O5_33 
REMARK   10  A    between atoms: O5_33  and  C27_34 
REMARK   11  A    between atoms: C34_45  and  O10_46 
ROOT
HETATM    1  C2  UNL     1       9.265 -26.785  -9.395  1.00  0.00     0.220 C 
HETATM    2  C3  UNL     1      10.225 -27.316  -8.409  1.00  0.00     0.163 C 
HETATM    3  O2  UNL     1      11.418 -27.310  -8.779  1.00  0.00    -0.295 OA
HETATM    4  C4  UNL     1      10.150 -27.850  -7.107  1.00  0.00     0.076 C 
HETATM    5  C5  UNL     1      11.176 -28.112  -6.115  1.00  0.00     0.031 C 
HETATM    6  C13 UNL     1       9.889 -28.722  -5.462  1.00  0.00     0.133 C 
HETATM    7  C14 UNL     1       9.638 -29.198  -6.870  1.00  0.00     0.003 C 
HETATM    8  C15 UNL     1      10.477 -30.438  -6.971  1.00  0.00     0.022 C 
HETATM    9  C16 UNL     1       9.845 -31.689  -7.464  1.00  0.00    -0.043 C 
HETATM   10  C17 UNL     1       9.269 -32.570  -6.343  1.00  0.00     0.015 C 
HETATM   11  C18 UNL     1      10.983 -32.571  -8.021  1.00  0.00     0.015 C 
HETATM   12  C19 UNL     1       8.800 -31.586  -8.515  1.00  0.00     0.002 C 
HETATM   13  C20 UNL     1       9.333 -31.757  -9.924  1.00  0.00     0.007 C 
HETATM   14  C21 UNL     1       9.623 -30.254  -9.753  1.00  0.00     0.011 C 
HETATM   15  C22 UNL     1       8.554 -30.144  -8.816  1.00  0.00    -0.029 C 
HETATM   16  C23 UNL     1       7.319 -29.754  -9.579  1.00  0.00     0.026 C 
HETATM   17  C24 UNL     1       7.091 -28.301  -9.103  1.00  0.00     0.033 C 
HETATM   18  C26 UNL     1       8.019 -27.342  -9.758  1.00  0.00     0.180 C 
HETATM   19  C29 UNL     1       7.202 -28.553  -7.647  1.00  0.00     0.115 C 
HETATM   20  C30 UNL     1       6.948 -27.340  -6.896  1.00  0.00     0.276 C 
HETATM   21  O7  UNL     1       6.976 -26.196  -7.398  1.00  0.00    -0.264 OA
HETATM   22  O8  UNL     1       6.632 -27.234  -5.530  1.00  0.00    -0.283 OA
HETATM   23  C31 UNL     1       6.023 -28.378  -4.872  1.00  0.00     0.169 C 
HETATM   24  C32 UNL     1       4.517 -28.274  -4.896  1.00  0.00     0.079 C 
HETATM   25  C33 UNL     1       6.565 -28.492  -3.474  1.00  0.00     0.079 C 
HETATM   26  O9  UNL     1       6.553 -29.389  -5.610  1.00  0.00    -0.324 OA
HETATM   27  C34 UNL     1       6.031 -29.336  -7.011  1.00  0.00     0.282 C 
HETATM   28  C36 UNL     1       8.388 -29.427  -7.505  1.00  0.00     0.030 C 
ENDROOT
BRANCH  17  29
HETATM   29  C25 UNL     1       5.702 -27.979  -9.611  1.00  0.00     0.177 C 
BRANCH  29  30
HETATM   30  O4  UNL     1       5.169 -28.675 -10.621  1.00  0.00    -0.400 OA
ATOM     31  H4  UNL     1       5.261 -29.620 -10.661  1.00  0.00     0.209 HD
ENDBRANCH  29  30
ENDBRANCH  17  29
BRANCH  27  32
HETATM   32  O10 UNL     1       6.049 -30.681  -7.145  1.00  0.00    -0.365 OA
HETATM   33  C35 UNL     1       4.902 -31.388  -7.246  1.00  0.00     0.204 C 
ENDBRANCH  27  32
BRANCH  18  34
HETATM   34  O5  UNL     1       7.238 -26.303 -10.368  1.00  0.00    -0.312 OA
BRANCH  34  35
HETATM   35  C27 UNL     1       7.118 -25.944 -11.644  1.00  0.00     0.255 C 
HETATM   36  C28 UNL     1       7.287 -26.783 -12.842  1.00  0.00     0.126 C 
HETATM   37  O6  UNL     1       6.830 -24.761 -11.772  1.00  0.00    -0.266 OA
ENDBRANCH  34  35
ENDBRANCH  18  34
BRANCH   1  38
HETATM   38  O1  UNL     1      10.038 -26.550 -10.577  1.00  0.00    -0.381 OA
HETATM   39  C1  UNL     1      10.486 -25.303 -10.758  1.00  0.00     0.202 C 
ENDBRANCH   1  38
BRANCH   6  40
HETATM   40  O3  UNL     1      10.207 -29.627  -4.491  1.00  0.00    -0.394 OA
ATOM     41  H3  UNL     1       9.756 -29.433  -3.678  1.00  0.00     0.210 HD
ENDBRANCH   6  40
BRANCH   5  42
HETATM   42  C6  UNL     1      11.694 -26.951  -5.261  1.00  0.00     0.035 C 
BRANCH  42  43
HETATM   43  C7  UNL     1      10.815 -26.567  -4.172  1.00  0.00    -0.030 C 
HETATM   44  C8  UNL     1      11.278 -26.244  -2.995  1.00  0.00    -0.030 C 
BRANCH  44  45
HETATM   45  C9  UNL     1      12.678 -26.194  -2.531  1.00  0.00     0.030 C 
BRANCH  45  46
HETATM   46  C10 UNL     1      13.418 -24.993  -3.099  1.00  0.00    -0.019 C 
HETATM   47  C11 UNL     1      13.973 -24.120  -2.006  1.00  0.00     0.010 C 
HETATM   48  C12 UNL     1      14.586 -25.445  -3.961  1.00  0.00     0.010 C 
ENDBRANCH  45  46
ENDBRANCH  44  45
ENDBRANCH  42  43
ENDBRANCH   5  42
TORSDOF 11
ENDMDL
MODEL 2
REMARK VINA RESULT: -5.555417619      0.977      1.137
REMARK  11 active torsions:
REMARK  status: ('A' for Active; 'I' for Inactive)
REMARK    1  A    between atoms: O1_2  and  C2_3 
REMARK    2  A    between atoms: C5_7  and  C6_8 
REMARK    3  A    between atoms: C6_8  and  C7_9 
REMARK    4  A    between atoms: C8_10  and  C9_11 
REMARK    5  A    between atoms: C9_11  and  C10_12 
REMARK    6  A    between atoms: C13_15  and  O3_16 
REMARK    7  A    between atoms: C24_28  and  C25_29 
REMARK    8  A    between atoms: C25_29  and  O4_30 
REMARK    9  A    between atoms: C26_32  and  O5_33 
REMARK   10  A    between atoms: O5_33  and  C27_34 
REMARK   11  A    between atoms: C34_45  and  O10_46 
ROOT
HETATM    1  C2  UNL     1       9.522 -26.786  -9.944  1.00  0.00     0.220 C 
HETATM    2  C3  UNL     1      10.399 -27.207  -8.834  1.00  0.00     0.163 C 
HETATM    3  O2  UNL     1      11.620 -27.044  -9.036  1.00  0.00    -0.295 OA
HETATM    4  C4  UNL     1      10.215 -27.765  -7.553  1.00  0.00     0.076 C 
HETATM    5  C5  UNL     1      11.121 -27.910  -6.429  1.00  0.00     0.031 C 
HETATM    6  C13 UNL     1       9.846 -28.687  -5.958  1.00  0.00     0.133 C 
HETATM    7  C14 UNL     1       9.852 -29.171  -7.385  1.00  0.00     0.003 C 
HETATM    8  C15 UNL     1      10.848 -30.293  -7.367  1.00  0.00     0.022 C 
HETATM    9  C16 UNL     1      10.453 -31.606  -7.939  1.00  0.00    -0.043 C 
HETATM   10  C17 UNL     1       9.848 -32.570  -6.906  1.00  0.00     0.015 C 
HETATM   11  C18 UNL     1      11.760 -32.328  -8.332  1.00  0.00     0.015 C 
HETATM   12  C19 UNL     1       9.557 -31.620  -9.124  1.00  0.00     0.002 C 
HETATM   13  C20 UNL     1      10.295 -31.701 -10.446  1.00  0.00     0.007 C 
HETATM   14  C21 UNL     1      10.365 -30.176 -10.240  1.00  0.00     0.011 C 
HETATM   15  C22 UNL     1       9.173 -30.217  -9.459  1.00  0.00    -0.029 C 
HETATM   16  C23 UNL     1       8.014 -29.975 -10.385  1.00  0.00     0.026 C 
HETATM   17  C24 UNL     1       7.540 -28.570  -9.949  1.00  0.00     0.033 C 
HETATM   18  C26 UNL     1       8.419 -27.492 -10.473  1.00  0.00     0.180 C 
HETATM   19  C29 UNL     1       7.482 -28.828  -8.490  1.00  0.00     0.115 C 
HETATM   20  C30 UNL     1       6.975 -27.668  -7.785  1.00  0.00     0.276 C 
HETATM   21  O7  UNL     1       6.926 -26.523  -8.281  1.00  0.00    -0.264 OA
HETATM   22  O8  UNL     1       6.465 -27.623  -6.475  1.00  0.00    -0.283 OA
HETATM   23  C31 UNL     1       5.923 -28.845  -5.904  1.00  0.00     0.169 C 
HETATM   24  C32 UNL     1       4.434 -28.932  -6.135  1.00  0.00     0.079 C 
HETATM   25  C33 UNL     1       6.279 -28.911  -4.445  1.00  0.00     0.079 C 
HETATM   26  O9  UNL     1       6.673 -29.770  -6.560  1.00  0.00    -0.324 OA
HETATM   27  C34 UNL     1       6.345 -29.762  -8.019  1.00  0.00     0.282 C 
HETATM   28  C36 UNL     1       8.740 -29.546  -8.185  1.00  0.00     0.030 C 
ENDROOT
BRANCH  17  29
HETATM   29  C25 UNL     1       6.204 -28.419 -10.644  1.00  0.00     0.177 C 
BRANCH  29  30
HETATM   30  O4  UNL     1       5.979 -29.010 -11.823  1.00  0.00    -0.400 OA
ATOM     31  H4  UNL     1       5.152 -28.889 -12.275  1.00  0.00     0.209 HD
ENDBRANCH  29  30
ENDBRANCH  17  29
BRANCH  27  32
HETATM   32  O10 UNL     1       6.553 -31.092  -8.147  1.00  0.00    -0.365 OA
HETATM   33  C35 UNL     1       5.531 -31.936  -8.408  1.00  0.00     0.204 C 
ENDBRANCH  27  32
BRANCH  18  34
HETATM   34  O5  UNL     1       7.602 -26.550 -11.187  1.00  0.00    -0.312 OA
BRANCH  34  35
HETATM   35  C27 UNL     1       7.687 -26.102 -12.437  1.00  0.00     0.255 C 
HETATM   36  C28 UNL     1       7.563 -24.714 -12.914  1.00  0.00     0.126 C 
HETATM   37  O6  UNL     1       7.897 -27.000 -13.243  1.00  0.00    -0.266 OA
ENDBRANCH  34  35
ENDBRANCH  18  34
BRANCH   1  38
HETATM   38  O1  UNL     1      10.413 -26.437 -11.008  1.00  0.00    -0.381 OA
HETATM   39  C1  UNL     1      10.803 -25.160 -11.065  1.00  0.00     0.202 C 
ENDBRANCH   1  38
BRANCH   6  40
HETATM   40  O3  UNL     1      10.140 -29.560  -4.950  1.00  0.00    -0.394 OA
ATOM     41  H3  UNL     1      10.875 -30.118  -5.180  1.00  0.00     0.210 HD
ENDBRANCH   6  40
BRANCH   5  42
HETATM   42  C6  UNL     1      11.365 -26.706  -5.514  1.00  0.00     0.035 C 
BRANCH  42  43
HETATM   43  C7  UNL     1      11.106 -26.956  -4.109  1.00  0.00    -0.030 C 
HETATM   44  C8  UNL     1      11.575 -26.175  -3.173  1.00  0.00    -0.030 C 
BRANCH  44  45
HETATM   45  C9  UNL     1      12.404 -24.962  -3.307  1.00  0.00     0.030 C 
BRANCH  45  46
HETATM   46  C10 UNL     1      13.863 -25.237  -2.976  1.00  0.00    -0.019 C 
HETATM   47  C11 UNL     1      14.662 -25.535  -4.217  1.00  0.00     0.010 C 
HETATM   48  C12 UNL     1      14.494 -24.027  -2.306  1.00  0.00     0.010 C 
ENDBRANCH  45  46
ENDBRANCH  44  45
ENDBRANCH  42  43
ENDBRANCH   5  42
TORSDOF 11
ENDMDL
MODEL 3
REMARK VINA RESULT: -5.305040222      2.019      3.217
REMARK  11 active torsions:
REMARK  status: ('A' for Active; 'I' for Inactive)
REMARK    1  A    between atoms: O1_2  and  C2_3 
REMARK    2  A    between atoms: C5_7  and  C6_8 
REMARK    3  A    between atoms: C6_8  and  C7_9 
REMARK    4  A    between atoms: C8_10  and  C9_11 
REMARK    5  A    between atoms: C9_11  and  C10_12 
REMARK    6  A    between atoms: C13_15  and  O3_16 
REMARK    7  A    between atoms: C24_28  and  C25_29 
REMARK    8  A    between atoms: C25_29  and  O4_30 
REMARK    9  A    between atoms: C26_32  and  O5_33 
REMARK   10  A    between atoms: O5_33  and  C27_34 
REMARK   11  A    between atoms: C34_45  and  O10_46 
ROOT
HETATM    1  C2  UNL     1      10.987 -27.744 -10.738  1.00  0.00     0.220 C 
HETATM    2  C3  UNL     1      10.895 -28.002  -9.288  1.00  0.00     0.163 C 
HETATM    3  O2  UNL     1      11.940 -28.439  -8.763  1.00  0.00    -0.295 OA
HETATM    4  C4  UNL     1       9.899 -27.878  -8.299  1.00  0.00     0.076 C 
HETATM    5  C5  UNL     1       9.974 -27.913  -6.850  1.00  0.00     0.031 C 
HETATM    6  C13 UNL     1       8.433 -27.854  -7.122  1.00  0.00     0.133 C 
HETATM    7  C14 UNL     1       8.787 -28.823  -8.221  1.00  0.00     0.003 C 
HETATM    8  C15 UNL     1       8.863 -30.142  -7.508  1.00  0.00     0.022 C 
HETATM    9  C16 UNL     1       8.101 -31.293  -8.056  1.00  0.00    -0.043 C 
HETATM   10  C17 UNL     1       6.688 -31.433  -7.467  1.00  0.00     0.015 C 
HETATM   11  C18 UNL     1       8.798 -32.571  -7.540  1.00  0.00     0.015 C 
HETATM   12  C19 UNL     1       7.971 -31.417  -9.531  1.00  0.00     0.002 C 
HETATM   13  C20 UNL     1       9.022 -32.307 -10.164  1.00  0.00     0.007 C 
HETATM   14  C21 UNL     1       9.830 -30.996 -10.123  1.00  0.00     0.011 C 
HETATM   15  C22 UNL     1       8.623 -30.239 -10.176  1.00  0.00    -0.029 C 
HETATM   16  C23 UNL     1       8.337 -29.942 -11.622  1.00  0.00     0.026 C 
HETATM   17  C24 UNL     1       8.592 -28.419 -11.696  1.00  0.00     0.033 C 
HETATM   18  C26 UNL     1      10.042 -28.093 -11.728  1.00  0.00     0.180 C 
HETATM   19  C29 UNL     1       7.775 -28.028 -10.522  1.00  0.00     0.115 C 
HETATM   20  C30 UNL     1       7.755 -26.587 -10.371  1.00  0.00     0.276 C 
HETATM   21  O7  UNL     1       8.571 -25.821 -10.925  1.00  0.00    -0.264 OA
HETATM   22  O8  UNL     1       6.850 -25.823  -9.612  1.00  0.00    -0.283 OA
HETATM   23  C31 UNL     1       5.539 -26.385  -9.332  1.00  0.00     0.169 C 
HETATM   24  C32 UNL     1       4.534 -25.949 -10.370  1.00  0.00     0.079 C 
HETATM   25  C33 UNL     1       5.123 -26.000  -7.939  1.00  0.00     0.079 C 
HETATM   26  O9  UNL     1       5.842 -27.710  -9.328  1.00  0.00    -0.324 OA
HETATM   27  C34 UNL     1       6.245 -28.153 -10.698  1.00  0.00     0.282 C 
HETATM   28  C36 UNL     1       8.136 -29.004  -9.470  1.00  0.00     0.030 C 
ENDROOT
BRANCH  17  29
HETATM   29  C25 UNL     1       8.029 -28.035 -13.047  1.00  0.00     0.177 C 
BRANCH  29  30
HETATM   30  O4  UNL     1       7.997 -28.921 -14.049  1.00  0.00    -0.400 OA
ATOM     31  H4  UNL     1       8.799 -29.317 -14.370  1.00  0.00     0.209 HD
ENDBRANCH  29  30
ENDBRANCH  17  29
BRANCH  27  32
HETATM   32  O10 UNL     1       5.709 -29.383 -10.537  1.00  0.00    -0.365 OA
HETATM   33  C35 UNL     1       4.592 -29.750 -11.201  1.00  0.00     0.204 C 
ENDBRANCH  27  32
BRANCH  18  34
HETATM   34  O5  UNL     1      10.294 -27.273 -12.880  1.00  0.00    -0.312 OA
BRANCH  34  35
HETATM   35  C27 UNL     1      10.979 -27.528 -13.992  1.00  0.00     0.255 C 
HETATM   36  C28 UNL     1      11.534 -26.564 -14.957  1.00  0.00     0.126 C 
HETATM   37  O6  UNL     1      11.137 -28.727 -14.180  1.00  0.00    -0.266 OA
ENDBRANCH  34  35
ENDBRANCH  18  34
BRANCH   1  38
HETATM   38  O1  UNL     1      12.275 -28.239 -11.121  1.00  0.00    -0.381 OA
HETATM   39  C1  UNL     1      13.213 -27.324 -11.381  1.00  0.00     0.202 C 
ENDBRANCH   1  38
BRANCH   6  40
HETATM   40  O3  UNL     1       7.721 -28.290  -6.043  1.00  0.00    -0.394 OA
ATOM     41  H3  UNL     1       6.788 -28.289  -6.222  1.00  0.00     0.210 HD
ENDBRANCH   6  40
BRANCH   5  42
HETATM   42  C6  UNL     1      10.421 -26.655  -6.100  1.00  0.00     0.035 C 
BRANCH  42  43
HETATM   43  C7  UNL     1      11.844 -26.590  -5.828  1.00  0.00    -0.030 C 
HETATM   44  C8  UNL     1      12.313 -26.039  -4.740  1.00  0.00    -0.030 C 
BRANCH  44  45
HETATM   45  C9  UNL     1      11.575 -25.410  -3.628  1.00  0.00     0.030 C 
BRANCH  45  46
HETATM   46  C10 UNL     1      12.432 -25.294  -2.377  1.00  0.00    -0.019 C 
HETATM   47  C11 UNL     1      12.414 -26.568  -1.576  1.00  0.00     0.010 C 
HETATM   48  C12 UNL     1      13.879 -25.007  -2.748  1.00  0.00     0.010 C 
ENDBRANCH  45  46
ENDBRANCH  44  45
ENDBRANCH  42  43
ENDBRANCH   5  42
TORSDOF 11
ENDMDL
MODEL 4
REMARK VINA RESULT: -5.231937908      1.584      2.442
REMARK  11 active torsions:
REMARK  status: ('A' for Active; 'I' for Inactive)
REMARK    1  A    between atoms: O1_2  and  C2_3 
REMARK    2  A    between atoms: C5_7  and  C6_8 
REMARK    3  A    between atoms: C6_8  and  C7_9 
REMARK    4  A    between atoms: C8_10  and  C9_11 
REMARK    5  A    between atoms: C9_11  and  C10_12 
REMARK    6  A    between atoms: C13_15  and  O3_16 
REMARK    7  A    between atoms: C24_28  and  C25_29 
REMARK    8  A    between atoms: C25_29  and  O4_30 
REMARK    9  A    between atoms: C26_32  and  O5_33 
REMARK   10  A    between atoms: O5_33  and  C27_34 
REMARK   11  A    between atoms: C34_45  and  O10_46 
ROOT
HETATM    1  C2  UNL     1      10.928 -28.027  -8.676  1.00  0.00     0.220 C 
HETATM    2  C3  UNL     1      10.996 -28.089  -7.204  1.00  0.00     0.163 C 
HETATM    3  O2  UNL     1      12.115 -28.393  -6.740  1.00  0.00    -0.295 OA
HETATM    4  C4  UNL     1      10.095 -27.887  -6.138  1.00  0.00     0.076 C 
HETATM    5  C5  UNL     1      10.315 -27.721  -4.713  1.00  0.00     0.031 C 
HETATM    6  C13 UNL     1       8.754 -27.784  -4.826  1.00  0.00     0.133 C 
HETATM    7  C14 UNL     1       9.064 -28.873  -5.821  1.00  0.00     0.003 C 
HETATM    8  C15 UNL     1       9.300 -30.076  -4.956  1.00  0.00     0.022 C 
HETATM    9  C16 UNL     1       8.569 -31.331  -5.266  1.00  0.00    -0.043 C 
HETATM   10  C17 UNL     1       7.233 -31.467  -4.517  1.00  0.00     0.015 C 
HETATM   11  C18 UNL     1       9.398 -32.487  -4.665  1.00  0.00     0.015 C 
HETATM   12  C19 UNL     1       8.303 -31.661  -6.690  1.00  0.00     0.002 C 
HETATM   13  C20 UNL     1       9.346 -32.570  -7.311  1.00  0.00     0.007 C 
HETATM   14  C21 UNL     1      10.062 -31.223  -7.525  1.00  0.00     0.011 C 
HETATM   15  C22 UNL     1       8.807 -30.548  -7.548  1.00  0.00    -0.029 C 
HETATM   16  C23 UNL     1       8.361 -30.467  -8.981  1.00  0.00     0.026 C 
HETATM   17  C24 UNL     1       8.503 -28.956  -9.279  1.00  0.00     0.033 C 
HETATM   18  C26 UNL     1       9.916 -28.558  -9.506  1.00  0.00     0.180 C 
HETATM   19  C29 UNL     1       7.780 -28.455  -8.086  1.00  0.00     0.115 C 
HETATM   20  C30 UNL     1       7.675 -27.009  -8.121  1.00  0.00     0.276 C 
HETATM   21  O7  UNL     1       8.379 -26.282  -8.853  1.00  0.00    -0.264 OA
HETATM   22  O8  UNL     1       6.799 -26.200  -7.376  1.00  0.00    -0.283 OA
HETATM   23  C31 UNL     1       5.563 -26.790  -6.888  1.00  0.00     0.169 C 
HETATM   24  C32 UNL     1       4.434 -26.556  -7.861  1.00  0.00     0.079 C 
HETATM   25  C33 UNL     1       5.260 -26.243  -5.520  1.00  0.00     0.079 C 
HETATM   26  O9  UNL     1       5.955 -28.084  -6.744  1.00  0.00    -0.324 OA
HETATM   27  C34 UNL     1       6.252 -28.686  -8.081  1.00  0.00     0.282 C 
HETATM   28  C36 UNL     1       8.308 -29.257  -6.961  1.00  0.00     0.030 C 
ENDROOT
BRANCH  17  29
HETATM   29  C25 UNL     1       7.785 -28.790 -10.601  1.00  0.00     0.177 C 
BRANCH  29  30
HETATM   30  O4  UNL     1       7.322 -27.593 -10.979  1.00  0.00    -0.400 OA
ATOM     31  H4  UNL     1       7.818 -27.051 -11.581  1.00  0.00     0.209 HD
ENDBRANCH  29  30
ENDBRANCH  17  29
BRANCH  27  32
HETATM   32  O10 UNL     1       5.820 -29.910  -7.705  1.00  0.00    -0.365 OA
HETATM   33  C35 UNL     1       4.677 -30.430  -8.203  1.00  0.00     0.204 C 
ENDBRANCH  27  32
BRANCH  18  34
HETATM   34  O5  UNL     1       9.998 -27.889 -10.775  1.00  0.00    -0.312 OA
BRANCH  34  35
HETATM   35  C27 UNL     1      10.813 -26.925 -11.195  1.00  0.00     0.255 C 
HETATM   36  C28 UNL     1      10.888 -25.531 -10.725  1.00  0.00     0.126 C 
HETATM   37  O6  UNL     1      11.571 -27.304 -12.079  1.00  0.00    -0.266 OA
ENDBRANCH  34  35
ENDBRANCH  18  34
BRANCH   1  38
HETATM   38  O1  UNL     1      12.203 -28.498  -9.126  1.00  0.00    -0.381 OA
HETATM   39  C1  UNL     1      12.225 -29.705  -9.699  1.00  0.00     0.202 C 
ENDBRANCH   1  38
BRANCH   6  40
HETATM   40  O3  UNL     1       8.182 -28.108  -3.630  1.00  0.00    -0.394 OA
ATOM     41  H3  UNL     1       7.853 -29.000  -3.635  1.00  0.00     0.210 HD
ENDBRANCH   6  40
BRANCH   5  42
HETATM   42  C6  UNL     1      10.745 -26.350  -4.184  1.00  0.00     0.035 C 
BRANCH  42  43
HETATM   43  C7  UNL     1      11.599 -26.399  -3.012  1.00  0.00    -0.030 C 
HETATM   44  C8  UNL     1      12.473 -25.462  -2.759  1.00  0.00    -0.030 C 
BRANCH  44  45
HETATM   45  C9  UNL     1      12.773 -24.240  -3.530  1.00  0.00     0.030 C 
BRANCH  45  46
HETATM   46  C10 UNL     1      14.266 -23.954  -3.574  1.00  0.00    -0.019 C 
HETATM   47  C11 UNL     1      14.847 -23.846  -2.189  1.00  0.00     0.010 C 
HETATM   48  C12 UNL     1      15.003 -25.073  -4.293  1.00  0.00     0.010 C 
ENDBRANCH  45  46
ENDBRANCH  44  45
ENDBRANCH  42  43
ENDBRANCH   5  42
TORSDOF 11
ENDMDL
MODEL 5
REMARK VINA RESULT: -5.222558469      1.889      2.690
REMARK  11 active torsions:
REMARK  status: ('A' for Active; 'I' for Inactive)
REMARK    1  A    between atoms: O1_2  and  C2_3 
REMARK    2  A    between atoms: C5_7  and  C6_8 
REMARK    3  A    between atoms: C6_8  and  C7_9 
REMARK    4  A    between atoms: C8_10  and  C9_11 
REMARK    5  A    between atoms: C9_11  and  C10_12 
REMARK    6  A    between atoms: C13_15  and  O3_16 
REMARK    7  A    between atoms: C24_28  and  C25_29 
REMARK    8  A    between atoms: C25_29  and  O4_30 
REMARK    9  A    between atoms: C26_32  and  O5_33 
REMARK   10  A    between atoms: O5_33  and  C27_34 
REMARK   11  A    between atoms: C34_45  and  O10_46 
ROOT
HETATM    1  C2  UNL     1      10.928 -27.984 -10.161  1.00  0.00     0.220 C 
HETATM    2  C3  UNL     1      10.979 -28.101  -8.691  1.00  0.00     0.163 C 
HETATM    3  O2  UNL     1      12.089 -28.434  -8.226  1.00  0.00    -0.295 OA
HETATM    4  C4  UNL     1      10.070 -27.926  -7.628  1.00  0.00     0.076 C 
HETATM    5  C5  UNL     1      10.275 -27.815  -6.196  1.00  0.00     0.031 C 
HETATM    6  C13 UNL     1       8.715 -27.855  -6.328  1.00  0.00     0.133 C 
HETATM    7  C14 UNL     1       9.024 -28.911  -7.358  1.00  0.00     0.003 C 
HETATM    8  C15 UNL     1       9.236 -30.147  -6.535  1.00  0.00     0.022 C 
HETATM    9  C16 UNL     1       8.494 -31.382  -6.898  1.00  0.00    -0.043 C 
HETATM   10  C17 UNL     1       7.148 -31.528  -6.169  1.00  0.00     0.015 C 
HETATM   11  C18 UNL     1       9.303 -32.568  -6.331  1.00  0.00     0.015 C 
HETATM   12  C19 UNL     1       8.240 -31.656  -8.336  1.00  0.00     0.002 C 
HETATM   13  C20 UNL     1       9.279 -32.554  -8.978  1.00  0.00     0.007 C 
HETATM   14  C21 UNL     1      10.013 -31.209  -9.136  1.00  0.00     0.011 C 
HETATM   15  C22 UNL     1       8.766 -30.519  -9.148  1.00  0.00    -0.029 C 
HETATM   16  C23 UNL     1       8.337 -30.380 -10.581  1.00  0.00     0.026 C 
HETATM   17  C24 UNL     1       8.499 -28.862 -10.822  1.00  0.00     0.033 C 
HETATM   18  C26 UNL     1       9.920 -28.472 -11.020  1.00  0.00     0.180 C 
HETATM   19  C29 UNL     1       7.769 -28.395  -9.619  1.00  0.00     0.115 C 
HETATM   20  C30 UNL     1       7.682 -26.949  -9.603  1.00  0.00     0.276 C 
HETATM   21  O7  UNL     1       8.402 -26.204 -10.301  1.00  0.00    -0.264 OA
HETATM   22  O8  UNL     1       6.806 -26.157  -8.838  1.00  0.00    -0.283 OA
HETATM   23  C31 UNL     1       5.558 -26.749  -8.385  1.00  0.00     0.169 C 
HETATM   24  C32 UNL     1       4.443 -26.466  -9.361  1.00  0.00     0.079 C 
HETATM   25  C33 UNL     1       5.247 -26.249  -7.001  1.00  0.00     0.079 C 
HETATM   26  O9  UNL     1       5.934 -28.052  -8.284  1.00  0.00    -0.324 OA
HETATM   27  C34 UNL     1       6.239 -28.608  -9.639  1.00  0.00     0.282 C 
HETATM   28  C36 UNL     1       8.276 -29.245  -8.519  1.00  0.00     0.030 C 
ENDROOT
BRANCH  17  29
HETATM   29  C25 UNL     1       7.798 -28.640 -12.145  1.00  0.00     0.177 C 
BRANCH  29  30
HETATM   30  O4  UNL     1       7.698 -29.630 -13.038  1.00  0.00    -0.400 OA
ATOM     31  H4  UNL     1       8.315 -30.353 -13.030  1.00  0.00     0.209 HD
ENDBRANCH  29  30
ENDBRANCH  17  29
BRANCH  27  32
HETATM   32  O10 UNL     1       5.789 -29.841  -9.313  1.00  0.00    -0.365 OA
HETATM   33  C35 UNL     1       4.741 -30.395  -9.961  1.00  0.00     0.204 C 
ENDBRANCH  27  32
BRANCH  18  34
HETATM   34  O5  UNL     1      10.023 -27.759 -12.262  1.00  0.00    -0.312 OA
BRANCH  34  35
HETATM   35  C27 UNL     1      10.660 -28.070 -13.389  1.00  0.00     0.255 C 
HETATM   36  C28 UNL     1      11.196 -27.153 -14.411  1.00  0.00     0.126 C 
HETATM   37  O6  UNL     1      10.786 -29.278 -13.539  1.00  0.00    -0.266 OA
ENDBRANCH  34  35
ENDBRANCH  18  34
BRANCH   1  38
HETATM   38  O1  UNL     1      12.202 -28.453 -10.614  1.00  0.00    -0.381 OA
HETATM   39  C1  UNL     1      13.077 -27.521 -11.006  1.00  0.00     0.202 C 
ENDBRANCH   1  38
BRANCH   6  40
HETATM   40  O3  UNL     1       8.126 -28.215  -5.150  1.00  0.00    -0.394 OA
ATOM     41  H3  UNL     1       8.625 -27.902  -4.404  1.00  0.00     0.210 HD
ENDBRANCH   6  40
BRANCH   5  42
HETATM   42  C6  UNL     1      10.715 -26.469  -5.613  1.00  0.00     0.035 C 
BRANCH  42  43
HETATM   43  C7  UNL     1      10.788 -26.437  -4.164  1.00  0.00    -0.030 C 
HETATM   44  C8  UNL     1      11.672 -25.708  -3.536  1.00  0.00    -0.030 C 
BRANCH  44  45
HETATM   45  C9  UNL     1      12.711 -24.823  -4.096  1.00  0.00     0.030 C 
BRANCH  45  46
HETATM   46  C10 UNL     1      14.094 -25.172  -3.568  1.00  0.00    -0.019 C 
HETATM   47  C11 UNL     1      14.941 -25.822  -4.630  1.00  0.00     0.010 C 
HETATM   48  C12 UNL     1      14.820 -23.919  -3.107  1.00  0.00     0.010 C 
ENDBRANCH  45  46
ENDBRANCH  44  45
ENDBRANCH  42  43
ENDBRANCH   5  42
TORSDOF 11
ENDMDL
