MODEL 1
REMARK VINA RESULT: -5.209575028      0.000      0.000
REMARK  10 active torsions:
REMARK  status: ('A' for Active; 'I' for Inactive)
REMARK    1  A    between atoms: N1_1  and  N2_4 
REMARK       I    between atoms: N2_4  and  C1_6 
REMARK    2  A    between atoms: C1_6  and  C2_8 
REMARK    3  A    between atoms: C2_8  and  O2_9 
REMARK    4  A    between atoms: C2_8  and  C3_11 
REMARK    5  A    between atoms: C4_13  and  N3_14 
REMARK    6  A    between atoms: C6_16  and  C7_17 
REMARK    7  A    between atoms: C7_17  and  N4_18 
REMARK    8  A    between atoms: C7_17  and  N5_22 
REMARK    9  A    between atoms: C10_32  and  O6_33 
REMARK   10  A    between atoms: C11_35  and  O7_36 
ROOT
HETATM    1  C3  UNL     1       0.689  75.003  17.824  1.00  0.00     0.193 C 
HETATM    2  O3  UNL     1       1.116  74.903  16.530  1.00  0.00    -0.352 OA
HETATM    3  C4  UNL     1       0.162  75.490  15.704  1.00  0.00     0.264 C 
HETATM    4  C10 UNL     1      -0.498  76.574  16.486  1.00  0.00     0.198 C 
HETATM    5  C11 UNL     1      -0.193  76.211  17.932  1.00  0.00     0.183 C 
ENDROOT
BRANCH   3   6
HETATM    6  N3  UNL     1       0.817  75.903  14.500  1.00  0.00    -0.279 N 
HETATM    7  C5  UNL     1       1.538  77.039  14.519  1.00  0.00     0.115 A 
HETATM    8  C6  UNL     1       2.206  77.506  13.388  1.00  0.00     0.083 A 
HETATM    9  C8  UNL     1       2.134  76.792  12.214  1.00  0.00     0.260 A 
HETATM   10  O4  UNL     1       2.714  77.160  11.158  1.00  0.00    -0.267 OA
HETATM   11  N6  UNL     1       1.412  75.661  12.207  1.00  0.00    -0.275 N 
HETATM   12  C9  UNL     1       0.788  75.255  13.323  1.00  0.00     0.331 A 
ATOM     13  H6  UNL     1       1.338  75.109  11.353  1.00  0.00     0.173 HD
HETATM   14  O5  UNL     1       0.126  74.189  13.263  1.00  0.00    -0.246 OA
BRANCH   8  15
HETATM   15  C7  UNL     1       2.998  78.755  13.406  1.00  0.00     0.417 C 
BRANCH  15  16
HETATM   16  N4  UNL     1       2.320  79.701  12.543  1.00  0.00    -0.046 N 
ATOM     17  H43 UNL     1       2.888  79.997  11.748  1.00  0.00     0.277 HD
ATOM     18  H42 UNL     1       1.558  79.282  12.010  1.00  0.00     0.277 HD
ATOM     19  H41 UNL     1       2.017  80.478  13.130  1.00  0.00     0.277 HD
ENDBRANCH  15  16
BRANCH  15  20
HETATM   20  N5  UNL     1       4.360  78.545  12.956  1.00  0.00    -0.046 N 
ATOM     21  H53 UNL     1       4.745  77.680  13.336  1.00  0.00     0.277 HD
ATOM     22  H52 UNL     1       4.390  78.312  11.964  1.00  0.00     0.277 HD
ATOM     23  H51 UNL     1       4.962  79.340  13.167  1.00  0.00     0.277 HD
ENDBRANCH  15  20
ENDBRANCH   8  15
ENDBRANCH   3   6
BRANCH   4  24
HETATM   24  O6  UNL     1      -1.909  76.534  16.384  1.00  0.00    -0.388 OA
ATOM     25  H6  UNL     1      -2.340  76.780  17.194  1.00  0.00     0.210 HD
ENDBRANCH   4  24
BRANCH   1  26
HETATM   26  C2  UNL     1       1.883  75.088  18.753  1.00  0.00     0.243 C 
BRANCH  26  27
HETATM   27  C1  UNL     1       3.131  75.413  18.013  1.00  0.00     0.267 C 
HETATM   28  N2  UNL     1       3.420  76.698  17.517  1.00  0.00    -0.274 N 
ATOM     29  H2  UNL     1       2.753  77.457  17.662  1.00  0.00     0.189 HD
HETATM   30  O1  UNL     1       3.990  74.498  17.808  1.00  0.00    -0.269 OA
BRANCH  28  31
HETATM   31  N1  UNL     1       4.597  76.942  16.836  1.00  0.00    -0.343 N 
ATOM     32  H12 UNL     1       5.476  76.628  17.249  1.00  0.00     0.176 HD
ATOM     33  H11 UNL     1       4.588  77.425  15.938  1.00  0.00     0.176 HD
ENDBRANCH  28  31
ENDBRANCH  26  27
BRANCH  26  34
HETATM   34  O2  UNL     1       2.053  73.896  19.422  1.00  0.00    -0.383 OA
ATOM     35  H2  UNL     1       2.250  74.077  20.334  1.00  0.00     0.210 HD
ENDBRANCH  26  34
ENDBRANCH   1  26
BRANCH   5  36
HETATM   36  O7  UNL     1       0.413  77.259  18.617  1.00  0.00    -0.390 OA
ATOM     37  H7  UNL     1       0.163  78.111  18.280  1.00  0.00     0.210 HD
ENDBRANCH   5  36
TORSDOF 10
ENDMDL
MODEL 2
REMARK VINA RESULT: -5.086124852      2.253      3.000
REMARK  10 active torsions:
REMARK  status: ('A' for Active; 'I' for Inactive)
REMARK    1  A    between atoms: N1_1  and  N2_4 
REMARK       I    between atoms: N2_4  and  C1_6 
REMARK    2  A    between atoms: C1_6  and  C2_8 
REMARK    3  A    between atoms: C2_8  and  O2_9 
REMARK    4  A    between atoms: C2_8  and  C3_11 
REMARK    5  A    between atoms: C4_13  and  N3_14 
REMARK    6  A    between atoms: C6_16  and  C7_17 
REMARK    7  A    between atoms: C7_17  and  N4_18 
REMARK    8  A    between atoms: C7_17  and  N5_22 
REMARK    9  A    between atoms: C10_32  and  O6_33 
REMARK   10  A    between atoms: C11_35  and  O7_36 
ROOT
HETATM    1  C3  UNL     1       3.848  75.081  17.552  1.00  0.00     0.193 C 
HETATM    2  O3  UNL     1       3.309  75.357  16.328  1.00  0.00    -0.352 OA
HETATM    3  C4  UNL     1       1.937  75.132  16.389  1.00  0.00     0.264 C 
HETATM    4  C10 UNL     1       1.502  75.410  17.787  1.00  0.00     0.198 C 
HETATM    5  C11 UNL     1       2.791  75.315  18.590  1.00  0.00     0.183 C 
ENDROOT
BRANCH   3   6
HETATM    6  N3  UNL     1       1.316  75.930  15.375  1.00  0.00    -0.279 N 
HETATM    7  C5  UNL     1       0.860  77.151  15.709  1.00  0.00     0.115 A 
HETATM    8  C6  UNL     1       0.245  77.986  14.778  1.00  0.00     0.083 A 
HETATM    9  C8  UNL     1       0.095  77.561  13.478  1.00  0.00     0.260 A 
HETATM   10  O4  UNL     1      -0.451  78.267  12.589  1.00  0.00    -0.267 OA
HETATM   11  N6  UNL     1       0.554  76.341  13.157  1.00  0.00    -0.275 N 
HETATM   12  C9  UNL     1       1.138  75.575  14.091  1.00  0.00     0.331 A 
ATOM     13  H6  UNL     1       0.458  75.995  12.202  1.00  0.00     0.173 HD
HETATM   14  O5  UNL     1       1.550  74.442  13.738  1.00  0.00    -0.246 OA
BRANCH   8  15
HETATM   15  C7  UNL     1      -0.257  79.329  15.142  1.00  0.00     0.417 C 
BRANCH  15  16
HETATM   16  N4  UNL     1      -1.693  79.316  14.939  1.00  0.00    -0.046 N 
ATOM     17  H43 UNL     1      -2.207  78.955  15.742  1.00  0.00     0.277 HD
ATOM     18  H42 UNL     1      -2.104  80.249  14.929  1.00  0.00     0.277 HD
ATOM     19  H41 UNL     1      -1.869  78.792  14.082  1.00  0.00     0.277 HD
ENDBRANCH  15  16
BRANCH  15  20
HETATM   20  N5  UNL     1       0.356  80.376  14.349  1.00  0.00    -0.046 N 
ATOM     21  H53 UNL     1       1.281  80.615  14.706  1.00  0.00     0.277 HD
ATOM     22  H52 UNL     1       0.623  80.033  13.426  1.00  0.00     0.277 HD
ATOM     23  H51 UNL     1      -0.237  81.203  14.278  1.00  0.00     0.277 HD
ENDBRANCH  15  20
ENDBRANCH   8  15
ENDBRANCH   3   6
BRANCH   4  24
HETATM   24  O6  UNL     1       0.666  74.393  18.307  1.00  0.00    -0.388 OA
ATOM     25  H6  UNL     1       0.138  73.977  17.636  1.00  0.00     0.210 HD
ENDBRANCH   4  24
BRANCH   1  26
HETATM   26  C2  UNL     1       5.069  75.948  17.782  1.00  0.00     0.243 C 
BRANCH  26  27
HETATM   27  C1  UNL     1       5.091  77.117  16.864  1.00  0.00     0.267 C 
HETATM   28  N2  UNL     1       4.140  78.153  16.913  1.00  0.00    -0.274 N 
ATOM     29  H2  UNL     1       3.391  78.119  17.605  1.00  0.00     0.189 HD
HETATM   30  O1  UNL     1       6.007  77.202  15.985  1.00  0.00    -0.269 OA
BRANCH  28  31
HETATM   31  N1  UNL     1       4.212  79.217  16.034  1.00  0.00    -0.343 N 
ATOM     32  H12 UNL     1       3.644  79.191  15.186  1.00  0.00     0.176 HD
ATOM     33  H11 UNL     1       4.819  80.012  16.227  1.00  0.00     0.176 HD
ENDBRANCH  28  31
ENDBRANCH  26  27
BRANCH  26  34
HETATM   34  O2  UNL     1       6.219  75.211  17.601  1.00  0.00    -0.383 OA
ATOM     35  H2  UNL     1       6.649  75.095  18.440  1.00  0.00     0.210 HD
ENDBRANCH  26  34
ENDBRANCH   1  26
BRANCH   5  36
HETATM   36  O7  UNL     1       3.023  76.461  19.344  1.00  0.00    -0.390 OA
ATOM     37  H7  UNL     1       3.230  77.217  18.807  1.00  0.00     0.210 HD
ENDBRANCH   5  36
TORSDOF 10
ENDMDL
MODEL 3
REMARK VINA RESULT: -4.967285625      2.307      3.626
REMARK  10 active torsions:
REMARK  status: ('A' for Active; 'I' for Inactive)
REMARK    1  A    between atoms: N1_1  and  N2_4 
REMARK       I    between atoms: N2_4  and  C1_6 
REMARK    2  A    between atoms: C1_6  and  C2_8 
REMARK    3  A    between atoms: C2_8  and  O2_9 
REMARK    4  A    between atoms: C2_8  and  C3_11 
REMARK    5  A    between atoms: C4_13  and  N3_14 
REMARK    6  A    between atoms: C6_16  and  C7_17 
REMARK    7  A    between atoms: C7_17  and  N4_18 
REMARK    8  A    between atoms: C7_17  and  N5_22 
REMARK    9  A    between atoms: C10_32  and  O6_33 
REMARK   10  A    between atoms: C11_35  and  O7_36 
ROOT
HETATM    1  C3  UNL     1       3.842  75.092  17.613  1.00  0.00     0.193 C 
HETATM    2  O3  UNL     1       3.213  75.306  16.420  1.00  0.00    -0.352 OA
HETATM    3  C4  UNL     1       1.861  75.016  16.576  1.00  0.00     0.264 C 
HETATM    4  C10 UNL     1       1.503  75.312  17.993  1.00  0.00     0.198 C 
HETATM    5  C11 UNL     1       2.843  75.303  18.712  1.00  0.00     0.183 C 
ENDROOT
BRANCH   3   6
HETATM    6  N3  UNL     1       1.136  75.753  15.586  1.00  0.00    -0.279 N 
HETATM    7  C5  UNL     1       0.679  75.096  14.504  1.00  0.00     0.115 A 
HETATM    8  C6  UNL     1      -0.036  75.744  13.498  1.00  0.00     0.083 A 
HETATM    9  C8  UNL     1      -0.287  77.092  13.603  1.00  0.00     0.260 A 
HETATM   10  O4  UNL     1      -0.927  77.736  12.729  1.00  0.00    -0.267 OA
HETATM   11  N6  UNL     1       0.174  77.737  14.686  1.00  0.00    -0.275 N 
HETATM   12  C9  UNL     1       0.858  77.067  15.627  1.00  0.00     0.331 A 
ATOM     13  H6  UNL     1       0.005  78.737  14.794  1.00  0.00     0.173 HD
HETATM   14  O5  UNL     1       1.267  77.717  16.620  1.00  0.00    -0.246 OA
BRANCH   8  15
HETATM   15  C7  UNL     1      -0.540  75.024  12.308  1.00  0.00     0.417 C 
BRANCH  15  16
HETATM   16  N4  UNL     1       0.160  75.561  11.158  1.00  0.00    -0.046 N 
ATOM     17  H43 UNL     1      -0.331  75.399  10.278  1.00  0.00     0.277 HD
ATOM     18  H42 UNL     1       0.152  76.581  11.125  1.00  0.00     0.277 HD
ATOM     19  H41 UNL     1       1.101  75.169  11.170  1.00  0.00     0.277 HD
ENDBRANCH  15  16
BRANCH  15  20
HETATM   20  N5  UNL     1      -1.973  75.174  12.144  1.00  0.00    -0.046 N 
ATOM     21  H53 UNL     1      -2.482  74.538  12.757  1.00  0.00     0.277 HD
ATOM     22  H52 UNL     1      -2.297  76.062  12.526  1.00  0.00     0.277 HD
ATOM     23  H51 UNL     1      -2.262  75.062  11.173  1.00  0.00     0.277 HD
ENDBRANCH  15  20
ENDBRANCH   8  15
ENDBRANCH   3   6
BRANCH   4  24
HETATM   24  O6  UNL     1       0.754  74.271  18.592  1.00  0.00    -0.388 OA
ATOM     25  H6  UNL     1       0.964  74.153  19.511  1.00  0.00     0.210 HD
ENDBRANCH   4  24
BRANCH   1  26
HETATM   26  C2  UNL     1       5.030  76.024  17.741  1.00  0.00     0.243 C 
BRANCH  26  27
HETATM   27  C1  UNL     1       4.949  77.150  16.774  1.00  0.00     0.267 C 
HETATM   28  N2  UNL     1       4.014  78.195  16.885  1.00  0.00    -0.274 N 
ATOM     29  H2  UNL     1       3.350  78.199  17.660  1.00  0.00     0.189 HD
HETATM   30  O1  UNL     1       5.756  77.187  15.791  1.00  0.00    -0.269 OA
BRANCH  28  31
HETATM   31  N1  UNL     1       3.986  79.217  15.955  1.00  0.00    -0.343 N 
ATOM     32  H12 UNL     1       3.083  79.522  15.589  1.00  0.00     0.176 HD
ATOM     33  H11 UNL     1       4.850  79.658  15.641  1.00  0.00     0.176 HD
ENDBRANCH  28  31
ENDBRANCH  26  27
BRANCH  26  34
HETATM   34  O2  UNL     1       6.203  75.334  17.532  1.00  0.00    -0.383 OA
ATOM     35  H2  UNL     1       6.002  74.419  17.373  1.00  0.00     0.210 HD
ENDBRANCH  26  34
ENDBRANCH   1  26
BRANCH   5  36
HETATM   36  O7  UNL     1       3.064  76.481  19.420  1.00  0.00    -0.390 OA
ATOM     37  H7  UNL     1       2.837  77.256  18.921  1.00  0.00     0.210 HD
ENDBRANCH   5  36
TORSDOF 10
ENDMDL
MODEL 4
REMARK VINA RESULT: -4.964895680      3.273      4.540
REMARK  10 active torsions:
REMARK  status: ('A' for Active; 'I' for Inactive)
REMARK    1  A    between atoms: N1_1  and  N2_4 
REMARK       I    between atoms: N2_4  and  C1_6 
REMARK    2  A    between atoms: C1_6  and  C2_8 
REMARK    3  A    between atoms: C2_8  and  O2_9 
REMARK    4  A    between atoms: C2_8  and  C3_11 
REMARK    5  A    between atoms: C4_13  and  N3_14 
REMARK    6  A    between atoms: C6_16  and  C7_17 
REMARK    7  A    between atoms: C7_17  and  N4_18 
REMARK    8  A    between atoms: C7_17  and  N5_22 
REMARK    9  A    between atoms: C10_32  and  O6_33 
REMARK   10  A    between atoms: C11_35  and  O7_36 
ROOT
HETATM    1  C3  UNL     1       0.386  75.438  18.656  1.00  0.00     0.193 C 
HETATM    2  O3  UNL     1      -0.700  75.603  17.844  1.00  0.00    -0.352 OA
HETATM    3  C4  UNL     1      -0.479  76.712  17.032  1.00  0.00     0.264 C 
HETATM    4  C10 UNL     1       0.992  76.817  16.813  1.00  0.00     0.198 C 
HETATM    5  C11 UNL     1       1.585  76.002  17.953  1.00  0.00     0.183 C 
ENDROOT
BRANCH   3   6
HETATM    6  N3  UNL     1      -1.273  76.556  15.851  1.00  0.00    -0.279 N 
HETATM    7  C5  UNL     1      -0.685  76.078  14.740  1.00  0.00     0.115 A 
HETATM    8  C6  UNL     1      -1.392  75.897  13.552  1.00  0.00     0.083 A 
HETATM    9  C8  UNL     1      -2.731  76.212  13.504  1.00  0.00     0.260 A 
HETATM   10  O4  UNL     1      -3.426  76.072  12.463  1.00  0.00    -0.267 OA
HETATM   11  N6  UNL     1      -3.307  76.688  14.619  1.00  0.00    -0.275 N 
HETATM   12  C9  UNL     1      -2.581  76.844  15.736  1.00  0.00     0.331 A 
ATOM     13  H6  UNL     1      -4.297  76.932  14.616  1.00  0.00     0.173 HD
HETATM   14  O5  UNL     1      -3.169  77.293  16.752  1.00  0.00    -0.246 OA
BRANCH   8  15
HETATM   15  C7  UNL     1      -0.748  75.372  12.329  1.00  0.00     0.417 C 
BRANCH  15  16
HETATM   16  N4  UNL     1      -0.892  76.386  11.303  1.00  0.00    -0.046 N 
ATOM     17  H43 UNL     1      -1.246  77.272  11.663  1.00  0.00     0.277 HD
ATOM     18  H42 UNL     1       0.001  76.734  10.956  1.00  0.00     0.277 HD
ATOM     19  H41 UNL     1      -1.479  75.988  10.570  1.00  0.00     0.277 HD
ENDBRANCH  15  16
BRANCH  15  20
HETATM   20  N5  UNL     1      -1.339  74.122  11.893  1.00  0.00    -0.046 N 
ATOM     21  H53 UNL     1      -1.842  73.667  12.654  1.00  0.00     0.277 HD
ATOM     22  H52 UNL     1      -2.120  74.285  11.257  1.00  0.00     0.277 HD
ATOM     23  H51 UNL     1      -0.650  73.495  11.478  1.00  0.00     0.277 HD
ENDBRANCH  15  20
ENDBRANCH   8  15
ENDBRANCH   3   6
BRANCH   4  24
HETATM   24  O6  UNL     1       1.476  78.133  17.007  1.00  0.00    -0.388 OA
ATOM     25  H6  UNL     1       2.082  78.402  16.327  1.00  0.00     0.210 HD
ENDBRANCH   4  24
BRANCH   1  26
HETATM   26  C2  UNL     1       0.562  73.970  18.986  1.00  0.00     0.243 C 
BRANCH  26  27
HETATM   27  C1  UNL     1      -0.603  73.435  19.740  1.00  0.00     0.267 C 
HETATM   28  N2  UNL     1      -1.419  74.231  20.564  1.00  0.00    -0.274 N 
ATOM     29  H2  UNL     1      -1.218  75.226  20.663  1.00  0.00     0.189 HD
HETATM   30  O1  UNL     1      -0.890  72.198  19.647  1.00  0.00    -0.269 OA
BRANCH  28  31
HETATM   31  N1  UNL     1      -2.489  73.677  21.241  1.00  0.00    -0.343 N 
ATOM     32  H12 UNL     1      -2.317  73.214  22.134  1.00  0.00     0.176 HD
ATOM     33  H11 UNL     1      -3.431  73.731  20.856  1.00  0.00     0.176 HD
ENDBRANCH  28  31
ENDBRANCH  26  27
BRANCH  26  34
HETATM   34  O2  UNL     1       1.705  73.782  19.730  1.00  0.00    -0.383 OA
ATOM     35  H2  UNL     1       2.442  74.171  19.273  1.00  0.00     0.210 HD
ENDBRANCH  26  34
ENDBRANCH   1  26
BRANCH   5  36
HETATM   36  O7  UNL     1       2.452  75.016  17.495  1.00  0.00    -0.390 OA
ATOM     37  H7  UNL     1       2.520  75.000  16.547  1.00  0.00     0.210 HD
ENDBRANCH   5  36
TORSDOF 10
ENDMDL
MODEL 5
REMARK VINA RESULT: -4.918278120      2.569      4.715
REMARK  10 active torsions:
REMARK  status: ('A' for Active; 'I' for Inactive)
REMARK    1  A    between atoms: N1_1  and  N2_4 
REMARK       I    between atoms: N2_4  and  C1_6 
REMARK    2  A    between atoms: C1_6  and  C2_8 
REMARK    3  A    between atoms: C2_8  and  O2_9 
REMARK    4  A    between atoms: C2_8  and  C3_11 
REMARK    5  A    between atoms: C4_13  and  N3_14 
REMARK    6  A    between atoms: C6_16  and  C7_17 
REMARK    7  A    between atoms: C7_17  and  N4_18 
REMARK    8  A    between atoms: C7_17  and  N5_22 
REMARK    9  A    between atoms: C10_32  and  O6_33 
REMARK   10  A    between atoms: C11_35  and  O7_36 
ROOT
HETATM    1  C3  UNL     1       4.654  76.586  17.956  1.00  0.00     0.193 C 
HETATM    2  O3  UNL     1       4.143  77.406  16.991  1.00  0.00    -0.352 OA
HETATM    3  C4  UNL     1       5.195  78.085  16.385  1.00  0.00     0.264 C 
HETATM    4  C10 UNL     1       6.393  77.200  16.450  1.00  0.00     0.198 C 
HETATM    5  C11 UNL     1       6.054  76.216  17.560  1.00  0.00     0.183 C 
ENDROOT
BRANCH   3   6
HETATM    6  N3  UNL     1       4.774  78.466  15.071  1.00  0.00    -0.279 N 
HETATM    7  C5  UNL     1       3.592  78.011  14.619  1.00  0.00     0.115 A 
HETATM    8  C6  UNL     1       3.114  78.338  13.351  1.00  0.00     0.083 A 
HETATM    9  C8  UNL     1       3.863  79.151  12.531  1.00  0.00     0.260 A 
HETATM   10  O4  UNL     1       3.487  79.484  11.375  1.00  0.00    -0.267 OA
HETATM   11  N6  UNL     1       5.041  79.598  12.993  1.00  0.00    -0.275 N 
HETATM   12  C9  UNL     1       5.456  79.253  14.221  1.00  0.00     0.331 A 
ATOM     13  H6  UNL     1       5.621  80.202  12.410  1.00  0.00     0.173 HD
HETATM   14  O5  UNL     1       6.566  79.699  14.605  1.00  0.00    -0.246 OA
BRANCH   8  15
HETATM   15  C7  UNL     1       1.814  77.840  12.851  1.00  0.00     0.417 C 
BRANCH  15  16
HETATM   16  N4  UNL     1       2.096  76.973  11.724  1.00  0.00    -0.046 N 
ATOM     17  H43 UNL     1       2.772  76.240  11.941  1.00  0.00     0.277 HD
ATOM     18  H42 UNL     1       1.315  76.363  11.483  1.00  0.00     0.277 HD
ATOM     19  H41 UNL     1       2.388  77.571  10.952  1.00  0.00     0.277 HD
ENDBRANCH  15  16
BRANCH  15  20
HETATM   20  N5  UNL     1       0.931  78.918  12.452  1.00  0.00    -0.046 N 
ATOM     21  H53 UNL     1       0.472  79.336  13.261  1.00  0.00     0.277 HD
ATOM     22  H52 UNL     1       1.459  79.728  12.129  1.00  0.00     0.277 HD
ATOM     23  H51 UNL     1       0.249  78.619  11.755  1.00  0.00     0.277 HD
ENDBRANCH  15  20
ENDBRANCH   8  15
ENDBRANCH   3   6
BRANCH   4  24
HETATM   24  O6  UNL     1       7.548  77.883  16.900  1.00  0.00    -0.388 OA
ATOM     25  H6  UNL     1       7.517  78.078  17.829  1.00  0.00     0.210 HD
ENDBRANCH   4  24
BRANCH   1  26
HETATM   26  C2  UNL     1       3.770  75.366  18.114  1.00  0.00     0.243 C 
BRANCH  26  27
HETATM   27  C1  UNL     1       2.432  75.576  17.503  1.00  0.00     0.267 C 
HETATM   28  N2  UNL     1       2.169  75.374  16.135  1.00  0.00    -0.274 N 
ATOM     29  H2  UNL     1       2.921  75.067  15.517  1.00  0.00     0.189 HD
HETATM   30  O1  UNL     1       1.464  75.959  18.236  1.00  0.00    -0.269 OA
BRANCH  28  31
HETATM   31  N1  UNL     1       0.904  75.585  15.622  1.00  0.00    -0.343 N 
ATOM     32  H12 UNL     1       0.462  76.494  15.766  1.00  0.00     0.176 HD
ATOM     33  H11 UNL     1       0.420  74.848  15.110  1.00  0.00     0.176 HD
ENDBRANCH  28  31
ENDBRANCH  26  27
BRANCH  26  34
HETATM   34  O2  UNL     1       3.613  75.061  19.448  1.00  0.00    -0.383 OA
ATOM     35  H2  UNL     1       3.560  75.867  19.948  1.00  0.00     0.210 HD
ENDBRANCH  26  34
ENDBRANCH   1  26
BRANCH   5  36
HETATM   36  O7  UNL     1       6.161  74.895  17.138  1.00  0.00    -0.390 OA
ATOM     37  H7  UNL     1       7.013  74.697  16.768  1.00  0.00     0.210 HD
ENDBRANCH   5  36
TORSDOF 10
ENDMDL
