MODEL 1
REMARK VINA RESULT: -6.331522040      0.000      0.000
REMARK  11 active torsions:
REMARK  status: ('A' for Active; 'I' for Inactive)
REMARK    1  A    between atoms: N1_1  and  N2_4 
REMARK    2  A    between atoms: N2_4  and  C1_6 
REMARK    3  A    between atoms: N6_13  and  C2_14 
REMARK    4  A    between atoms: C2_14  and  O1_15 
REMARK    5  A    between atoms: C2_14  and  C3_17 
REMARK    6  A    between atoms: C3_17  and  O2_18 
REMARK    7  A    between atoms: C3_17  and  C4_20 
REMARK    8  A    between atoms: C4_20  and  O3_21 
REMARK    9  A    between atoms: C4_20  and  C5_23 
REMARK   10  A    between atoms: N8_31  and  O5_32 
REMARK   11  A    between atoms: C10_34  and  O6_35 
ROOT
HETATM    1  C3  UNL     1       0.618  75.246  19.247  1.00  0.00     0.198 C 
ENDROOT
BRANCH   1   2
HETATM    2  C2  UNL     1      -0.089  73.911  19.422  1.00  0.00     0.292 C 
BRANCH   2   3
HETATM    3  N6  UNL     1      -1.165  73.908  20.354  1.00  0.00    -0.073 N 
HETATM    4  C1  UNL     1      -1.845  72.826  20.799  1.00  0.00     0.732 A 
HETATM    5  N3  UNL     1      -2.794  73.246  21.666  1.00  0.00    -0.113 N 
HETATM    6  N4  UNL     1      -2.695  74.559  21.748  1.00  0.00    -0.213 N 
ATOM      7  H3  UNL     1      -3.461  72.657  22.163  1.00  0.00     0.207 HD
HETATM    8  N5  UNL     1      -1.720  74.931  20.958  1.00  0.00    -0.208 N 
ATOM      9  H4  UNL     1      -3.274  75.171  22.322  1.00  0.00     0.210 HD
ATOM     10  H5  UNL     1      -1.428  75.900  20.828  1.00  0.00     0.210 HD
BRANCH   4  11
HETATM   11  N2  UNL     1      -1.664  71.590  20.484  1.00  0.00    -0.136 N 
ATOM     12  H2  UNL     1      -2.339  71.110  19.888  1.00  0.00     0.205 HD
BRANCH  11  13
HETATM   13  N1  UNL     1      -0.550  70.912  20.956  1.00  0.00    -0.331 N 
ATOM     14  H12 UNL     1       0.207  71.442  21.386  1.00  0.00     0.177 HD
ATOM     15  H11 UNL     1      -0.498  69.897  20.868  1.00  0.00     0.177 HD
ENDBRANCH  11  13
ENDBRANCH   4  11
ENDBRANCH   2   3
BRANCH   2  16
HETATM   16  O1  UNL     1       0.942  73.019  19.829  1.00  0.00    -0.371 OA
ATOM     17  H1  UNL     1       1.030  72.298  19.217  1.00  0.00     0.212 HD
ENDBRANCH   2  16
ENDBRANCH   1   2
BRANCH   1  18
HETATM   18  O2  UNL     1      -0.194  76.023  18.433  1.00  0.00    -0.389 OA
ATOM     19  H2  UNL     1      -0.225  76.888  18.825  1.00  0.00     0.210 HD
ENDBRANCH   1  18
BRANCH   1  20
HETATM   20  C4  UNL     1       2.008  75.130  18.809  1.00  0.00     0.161 C 
BRANCH  20  21
HETATM   21  O3  UNL     1       2.865  75.064  19.958  1.00  0.00    -0.392 OA
ATOM     22  H3  UNL     1       3.282  74.212  19.991  1.00  0.00     0.210 HD
ENDBRANCH  20  21
BRANCH  20  23
HETATM   23  C5  UNL     1       2.651  76.080  17.915  1.00  0.00     0.087 C 
HETATM   24  C6  UNL     1       3.172  77.352  18.277  1.00  0.00     0.115 C 
HETATM   25  N7  UNL     1       3.011  78.061  19.452  1.00  0.00    -0.354 N 
HETATM   26  C9  UNL     1       4.686  77.119  18.272  1.00  0.00     0.121 C 
HETATM   27  C7  UNL     1       4.146  78.934  19.521  1.00  0.00     0.219 C 
ATOM     28  H7  UNL     1       2.250  77.980  20.125  1.00  0.00     0.162 HD
HETATM   29  O4  UNL     1       4.354  79.871  20.365  1.00  0.00    -0.274 OA
HETATM   30  C8  UNL     1       5.090  78.561  18.401  1.00  0.00     0.127 C 
HETATM   31  N8  UNL     1       4.828  76.512  17.010  1.00  0.00    -0.163 NA
HETATM   32  C10 UNL     1       3.763  75.520  17.032  1.00  0.00     0.227 C 
BRANCH  31  33
HETATM   33  O5  UNL     1       6.013  75.881  16.833  1.00  0.00    -0.310 OA
ATOM     34  H5  UNL     1       5.933  74.955  16.639  1.00  0.00     0.237 HD
ENDBRANCH  31  33
BRANCH  32  35
HETATM   35  O6  UNL     1       4.280  74.328  17.445  1.00  0.00    -0.379 OA
ATOM     36  H6  UNL     1       5.105  74.087  17.038  1.00  0.00     0.211 HD
ENDBRANCH  32  35
ENDBRANCH  20  23
ENDBRANCH   1  20
TORSDOF 11
ENDMDL
MODEL 2
REMARK VINA RESULT: -5.927534858      0.978      1.962
REMARK  11 active torsions:
REMARK  status: ('A' for Active; 'I' for Inactive)
REMARK    1  A    between atoms: N1_1  and  N2_4 
REMARK    2  A    between atoms: N2_4  and  C1_6 
REMARK    3  A    between atoms: N6_13  and  C2_14 
REMARK    4  A    between atoms: C2_14  and  O1_15 
REMARK    5  A    between atoms: C2_14  and  C3_17 
REMARK    6  A    between atoms: C3_17  and  O2_18 
REMARK    7  A    between atoms: C3_17  and  C4_20 
REMARK    8  A    between atoms: C4_20  and  O3_21 
REMARK    9  A    between atoms: C4_20  and  C5_23 
REMARK   10  A    between atoms: N8_31  and  O5_32 
REMARK   11  A    between atoms: C10_34  and  O6_35 
ROOT
HETATM    1  C3  UNL     1       1.183  74.734  19.077  1.00  0.00     0.198 C 
ENDROOT
BRANCH   1   2
HETATM    2  C2  UNL     1      -0.245  74.901  19.573  1.00  0.00     0.292 C 
BRANCH   2   3
HETATM    3  N6  UNL     1      -0.877  73.709  20.027  1.00  0.00    -0.073 N 
HETATM    4  C1  UNL     1      -1.720  73.592  21.079  1.00  0.00     0.732 A 
HETATM    5  N3  UNL     1      -2.094  72.297  21.183  1.00  0.00    -0.113 N 
HETATM    6  N4  UNL     1      -1.490  71.636  20.214  1.00  0.00    -0.213 N 
ATOM      7  H3  UNL     1      -2.724  71.904  21.882  1.00  0.00     0.207 HD
HETATM    8  N5  UNL     1      -0.770  72.496  19.539  1.00  0.00    -0.208 N 
ATOM      9  H4  UNL     1      -1.569  70.637  20.026  1.00  0.00     0.210 HD
ATOM     10  H5  UNL     1      -0.196  72.252  18.732  1.00  0.00     0.210 HD
BRANCH   4  11
HETATM   11  N2  UNL     1      -2.127  74.517  21.877  1.00  0.00    -0.136 N 
ATOM     12  H2  UNL     1      -2.744  75.254  21.533  1.00  0.00     0.205 HD
BRANCH  11  13
HETATM   13  N1  UNL     1      -1.725  74.511  23.204  1.00  0.00    -0.331 N 
ATOM     14  H12 UNL     1      -1.258  73.685  23.577  1.00  0.00     0.177 HD
ATOM     15  H11 UNL     1      -1.899  75.327  23.791  1.00  0.00     0.177 HD
ENDBRANCH  11  13
ENDBRANCH   4  11
ENDBRANCH   2   3
BRANCH   2  16
HETATM   16  O1  UNL     1      -0.940  75.455  18.462  1.00  0.00    -0.371 OA
ATOM     17  H1  UNL     1      -1.184  76.358  18.628  1.00  0.00     0.212 HD
ENDBRANCH   2  16
ENDBRANCH   1   2
BRANCH   1  18
HETATM   18  O2  UNL     1       1.698  73.615  19.715  1.00  0.00    -0.389 OA
ATOM     19  H2  UNL     1       2.527  73.876  20.097  1.00  0.00     0.210 HD
ENDBRANCH   1  18
BRANCH   1  20
HETATM   20  C4  UNL     1       1.996  75.943  19.193  1.00  0.00     0.161 C 
BRANCH  20  21
HETATM   21  O3  UNL     1       1.164  77.039  19.601  1.00  0.00    -0.392 OA
ATOM     22  H3  UNL     1       1.469  77.371  20.437  1.00  0.00     0.210 HD
ENDBRANCH  20  21
BRANCH  20  23
HETATM   23  C5  UNL     1       2.807  76.473  18.108  1.00  0.00     0.087 C 
HETATM   24  C6  UNL     1       3.648  77.619  18.171  1.00  0.00     0.115 C 
HETATM   25  N7  UNL     1       3.732  78.589  19.149  1.00  0.00    -0.354 N 
HETATM   26  C9  UNL     1       5.053  77.012  18.228  1.00  0.00     0.121 C 
HETATM   27  C7  UNL     1       5.050  79.137  19.022  1.00  0.00     0.219 C 
ATOM     28  H7  UNL     1       3.011  78.858  19.819  1.00  0.00     0.162 HD
HETATM   29  O4  UNL     1       5.530  80.155  19.629  1.00  0.00    -0.274 OA
HETATM   30  C8  UNL     1       5.810  78.295  18.024  1.00  0.00     0.127 C 
HETATM   31  N8  UNL     1       4.973  76.122  17.141  1.00  0.00    -0.163 NA
HETATM   32  C10 UNL     1       3.697  75.465  17.384  1.00  0.00     0.227 C 
BRANCH  31  33
HETATM   33  O5  UNL     1       5.952  75.187  17.120  1.00  0.00    -0.310 OA
ATOM     34  H5  UNL     1       6.626  75.347  16.470  1.00  0.00     0.237 HD
ENDBRANCH  31  33
BRANCH  32  35
HETATM   35  O6  UNL     1       3.922  74.305  18.064  1.00  0.00    -0.379 OA
ATOM     36  H6  UNL     1       3.873  73.516  17.537  1.00  0.00     0.211 HD
ENDBRANCH  32  35
ENDBRANCH  20  23
ENDBRANCH   1  20
TORSDOF 11
ENDMDL
MODEL 3
REMARK VINA RESULT: -5.795137166      0.731      1.707
REMARK  11 active torsions:
REMARK  status: ('A' for Active; 'I' for Inactive)
REMARK    1  A    between atoms: N1_1  and  N2_4 
REMARK    2  A    between atoms: N2_4  and  C1_6 
REMARK    3  A    between atoms: N6_13  and  C2_14 
REMARK    4  A    between atoms: C2_14  and  O1_15 
REMARK    5  A    between atoms: C2_14  and  C3_17 
REMARK    6  A    between atoms: C3_17  and  O2_18 
REMARK    7  A    between atoms: C3_17  and  C4_20 
REMARK    8  A    between atoms: C4_20  and  O3_21 
REMARK    9  A    between atoms: C4_20  and  C5_23 
REMARK   10  A    between atoms: N8_31  and  O5_32 
REMARK   11  A    between atoms: C10_34  and  O6_35 
ROOT
HETATM    1  C3  UNL     1       0.280  74.766  19.218  1.00  0.00     0.198 C 
ENDROOT
BRANCH   1   2
HETATM    2  C2  UNL     1      -0.177  73.338  19.473  1.00  0.00     0.292 C 
BRANCH   2   3
HETATM    3  N6  UNL     1      -1.240  73.196  20.409  1.00  0.00    -0.073 N 
HETATM    4  C1  UNL     1      -1.849  74.188  21.097  1.00  0.00     0.732 A 
HETATM    5  N3  UNL     1      -2.800  73.640  21.885  1.00  0.00    -0.113 N 
HETATM    6  N4  UNL     1      -2.773  72.336  21.682  1.00  0.00    -0.213 N 
ATOM      7  H3  UNL     1      -3.423  74.140  22.520  1.00  0.00     0.207 HD
HETATM    8  N5  UNL     1      -1.837  72.095  20.800  1.00  0.00    -0.208 N 
ATOM      9  H4  UNL     1      -3.372  71.644  22.130  1.00  0.00     0.210 HD
ATOM     10  H5  UNL     1      -1.599  71.163  20.459  1.00  0.00     0.210 HD
BRANCH   4  11
HETATM   11  N2  UNL     1      -1.603  75.452  21.052  1.00  0.00    -0.136 N 
ATOM     12  H2  UNL     1      -0.715  75.813  21.400  1.00  0.00     0.205 HD
BRANCH  11  13
HETATM   13  N1  UNL     1      -2.549  76.322  20.528  1.00  0.00    -0.331 N 
ATOM     14  H12 UNL     1      -2.293  77.297  20.375  1.00  0.00     0.177 HD
ATOM     15  H11 UNL     1      -3.483  75.981  20.303  1.00  0.00     0.177 HD
ENDBRANCH  11  13
ENDBRANCH   4  11
ENDBRANCH   2   3
BRANCH   2  16
HETATM   16  O1  UNL     1       0.994  72.670  19.925  1.00  0.00    -0.371 OA
ATOM     17  H1  UNL     1       1.525  73.241  20.467  1.00  0.00     0.212 HD
ENDBRANCH   2  16
ENDBRANCH   1   2
BRANCH   1  18
HETATM   18  O2  UNL     1      -0.599  75.306  18.291  1.00  0.00    -0.389 OA
ATOM     19  H2  UNL     1      -0.091  75.893  17.743  1.00  0.00     0.210 HD
ENDBRANCH   1  18
BRANCH   1  20
HETATM   20  C4  UNL     1       1.696  74.883  18.872  1.00  0.00     0.161 C 
BRANCH  20  21
HETATM   21  O3  UNL     1       2.469  75.019  20.074  1.00  0.00    -0.392 OA
ATOM     22  H3  UNL     1       3.209  74.425  20.040  1.00  0.00     0.210 HD
ENDBRANCH  20  21
BRANCH  20  23
HETATM   23  C5  UNL     1       2.222  75.897  17.972  1.00  0.00     0.087 C 
HETATM   24  C6  UNL     1       2.609  77.218  18.330  1.00  0.00     0.115 C 
HETATM   25  N7  UNL     1       2.389  77.905  19.508  1.00  0.00    -0.354 N 
HETATM   26  C9  UNL     1       4.139  77.148  18.305  1.00  0.00     0.121 C 
HETATM   27  C7  UNL     1       3.424  78.894  19.564  1.00  0.00     0.219 C 
ATOM     28  H7  UNL     1       1.649  77.742  20.191  1.00  0.00     0.162 HD
HETATM   29  O4  UNL     1       3.542  79.848  20.407  1.00  0.00    -0.274 OA
HETATM   30  C8  UNL     1       4.388  78.624  18.431  1.00  0.00     0.127 C 
HETATM   31  N8  UNL     1       4.329  76.560  17.040  1.00  0.00    -0.163 NA
HETATM   32  C10 UNL     1       3.376  75.460  17.073  1.00  0.00     0.227 C 
BRANCH  31  33
HETATM   33  O5  UNL     1       5.571  76.060  16.846  1.00  0.00    -0.310 OA
ATOM     34  H5  UNL     1       5.943  76.267  15.997  1.00  0.00     0.237 HD
ENDBRANCH  31  33
BRANCH  32  35
HETATM   35  O6  UNL     1       4.023  74.330  17.478  1.00  0.00    -0.379 OA
ATOM     36  H6  UNL     1       3.959  73.596  16.878  1.00  0.00     0.211 HD
ENDBRANCH  32  35
ENDBRANCH  20  23
ENDBRANCH   1  20
TORSDOF 11
ENDMDL
MODEL 4
REMARK VINA RESULT: -5.718856727      1.622      3.098
REMARK  11 active torsions:
REMARK  status: ('A' for Active; 'I' for Inactive)
REMARK    1  A    between atoms: N1_1  and  N2_4 
REMARK    2  A    between atoms: N2_4  and  C1_6 
REMARK    3  A    between atoms: N6_13  and  C2_14 
REMARK    4  A    between atoms: C2_14  and  O1_15 
REMARK    5  A    between atoms: C2_14  and  C3_17 
REMARK    6  A    between atoms: C3_17  and  O2_18 
REMARK    7  A    between atoms: C3_17  and  C4_20 
REMARK    8  A    between atoms: C4_20  and  O3_21 
REMARK    9  A    between atoms: C4_20  and  C5_23 
REMARK   10  A    between atoms: N8_31  and  O5_32 
REMARK   11  A    between atoms: C10_34  and  O6_35 
ROOT
HETATM    1  C3  UNL     1       0.648  74.589  18.719  1.00  0.00     0.198 C 
ENDROOT
BRANCH   1   2
HETATM    2  C2  UNL     1      -0.479  74.817  19.714  1.00  0.00     0.292 C 
BRANCH   2   3
HETATM    3  N6  UNL     1      -1.087  73.638  20.228  1.00  0.00    -0.073 N 
HETATM    4  C1  UNL     1      -2.123  73.575  21.096  1.00  0.00     0.732 A 
HETATM    5  N3  UNL     1      -2.397  72.274  21.341  1.00  0.00    -0.113 N 
HETATM    6  N4  UNL     1      -1.544  71.556  20.636  1.00  0.00    -0.213 N 
ATOM      7  H3  UNL     1      -3.126  71.915  21.956  1.00  0.00     0.207 HD
HETATM    8  N5  UNL     1      -0.773  72.388  19.982  1.00  0.00    -0.208 N 
ATOM      9  H4  UNL     1      -1.494  70.538  20.606  1.00  0.00     0.210 HD
ATOM     10  H5  UNL     1      -0.020  72.100  19.358  1.00  0.00     0.210 HD
BRANCH   4  11
HETATM   11  N2  UNL     1      -2.771  74.552  21.630  1.00  0.00    -0.136 N 
ATOM     12  H2  UNL     1      -2.323  75.461  21.745  1.00  0.00     0.205 HD
BRANCH  11  13
HETATM   13  N1  UNL     1      -4.080  74.366  22.049  1.00  0.00    -0.331 N 
ATOM     14  H12 UNL     1      -4.787  75.053  21.787  1.00  0.00     0.177 HD
ATOM     15  H11 UNL     1      -4.322  73.551  22.612  1.00  0.00     0.177 HD
ENDBRANCH  11  13
ENDBRANCH   4  11
ENDBRANCH   2   3
BRANCH   2  16
HETATM   16  O1  UNL     1      -1.421  75.609  19.002  1.00  0.00    -0.371 OA
ATOM     17  H1  UNL     1      -1.376  75.437  18.069  1.00  0.00     0.212 HD
ENDBRANCH   2  16
ENDBRANCH   1   2
BRANCH   1  18
HETATM   18  O2  UNL     1       1.690  74.005  19.424  1.00  0.00    -0.389 OA
ATOM     19  H2  UNL     1       2.495  74.296  19.012  1.00  0.00     0.210 HD
ENDBRANCH   1  18
BRANCH   1  20
HETATM   20  C4  UNL     1       1.010  75.778  17.949  1.00  0.00     0.161 C 
BRANCH  20  21
HETATM   21  O3  UNL     1       1.449  75.382  16.640  1.00  0.00    -0.392 OA
ATOM     22  H3  UNL     1       2.391  75.262  16.648  1.00  0.00     0.210 HD
ENDBRANCH  20  21
BRANCH  20  23
HETATM   23  C5  UNL     1       1.991  76.755  18.393  1.00  0.00     0.087 C 
HETATM   24  C6  UNL     1       3.404  76.601  18.359  1.00  0.00     0.115 C 
HETATM   25  N7  UNL     1       4.154  75.467  18.119  1.00  0.00    -0.354 N 
HETATM   26  C9  UNL     1       3.821  77.491  17.184  1.00  0.00     0.121 C 
HETATM   27  C7  UNL     1       5.418  75.947  17.643  1.00  0.00     0.219 C 
ATOM     28  H7  UNL     1       3.870  74.496  18.251  1.00  0.00     0.162 HD
HETATM   29  O4  UNL     1       6.475  75.263  17.421  1.00  0.00    -0.274 OA
HETATM   30  C8  UNL     1       5.301  77.440  17.436  1.00  0.00     0.127 C 
HETATM   31  N8  UNL     1       3.140  78.674  17.530  1.00  0.00    -0.163 NA
HETATM   32  C10 UNL     1       1.813  78.174  17.856  1.00  0.00     0.227 C 
BRANCH  31  33
HETATM   33  O5  UNL     1       3.038  79.566  16.517  1.00  0.00    -0.310 OA
ATOM     34  H5  UNL     1       3.321  80.444  16.744  1.00  0.00     0.237 HD
ENDBRANCH  31  33
BRANCH  32  35
HETATM   35  O6  UNL     1       1.022  78.274  16.750  1.00  0.00    -0.379 OA
ATOM     36  H6  UNL     1       1.348  78.860  16.076  1.00  0.00     0.211 HD
ENDBRANCH  32  35
ENDBRANCH  20  23
ENDBRANCH   1  20
TORSDOF 11
ENDMDL
MODEL 5
REMARK VINA RESULT: -5.624911488      1.891      2.549
REMARK  11 active torsions:
REMARK  status: ('A' for Active; 'I' for Inactive)
REMARK    1  A    between atoms: N1_1  and  N2_4 
REMARK    2  A    between atoms: N2_4  and  C1_6 
REMARK    3  A    between atoms: N6_13  and  C2_14 
REMARK    4  A    between atoms: C2_14  and  O1_15 
REMARK    5  A    between atoms: C2_14  and  C3_17 
REMARK    6  A    between atoms: C3_17  and  O2_18 
REMARK    7  A    between atoms: C3_17  and  C4_20 
REMARK    8  A    between atoms: C4_20  and  O3_21 
REMARK    9  A    between atoms: C4_20  and  C5_23 
REMARK   10  A    between atoms: N8_31  and  O5_32 
REMARK   11  A    between atoms: C10_34  and  O6_35 
ROOT
HETATM    1  C3  UNL     1      -0.255  76.106  19.349  1.00  0.00     0.198 C 
ENDROOT
BRANCH   1   2
HETATM    2  C2  UNL     1      -0.865  75.395  20.547  1.00  0.00     0.292 C 
BRANCH   2   3
HETATM    3  N6  UNL     1      -1.045  73.991  20.396  1.00  0.00    -0.073 N 
HETATM    4  C1  UNL     1      -1.907  73.208  21.085  1.00  0.00     0.732 A 
HETATM    5  N3  UNL     1      -1.767  71.936  20.653  1.00  0.00    -0.113 N 
HETATM    6  N4  UNL     1      -0.836  71.941  19.718  1.00  0.00    -0.213 N 
ATOM      7  H3  UNL     1      -2.284  71.122  20.987  1.00  0.00     0.207 HD
HETATM    8  N5  UNL     1      -0.420  73.174  19.582  1.00  0.00    -0.208 N 
ATOM      9  H4  UNL     1      -0.502  71.131  19.196  1.00  0.00     0.210 HD
ATOM     10  H5  UNL     1       0.303  73.465  18.924  1.00  0.00     0.210 HD
BRANCH   4  11
HETATM   11  N2  UNL     1      -2.738  73.561  22.005  1.00  0.00    -0.136 N 
ATOM     12  H2  UNL     1      -2.733  74.518  22.359  1.00  0.00     0.205 HD
BRANCH  11  13
HETATM   13  N1  UNL     1      -3.639  72.637  22.513  1.00  0.00    -0.331 N 
ATOM     14  H12 UNL     1      -4.295  72.183  21.878  1.00  0.00     0.177 HD
ATOM     15  H11 UNL     1      -3.638  72.422  23.510  1.00  0.00     0.177 HD
ENDBRANCH  11  13
ENDBRANCH   4  11
ENDBRANCH   2   3
BRANCH   2  16
HETATM   16  O1  UNL     1      -2.111  76.051  20.747  1.00  0.00    -0.371 OA
ATOM     17  H1  UNL     1      -1.993  76.990  20.833  1.00  0.00     0.212 HD
ENDBRANCH   2  16
ENDBRANCH   1   2
BRANCH   1  18
HETATM   18  O2  UNL     1      -0.957  75.678  18.232  1.00  0.00    -0.389 OA
ATOM     19  H2  UNL     1      -0.802  74.743  18.154  1.00  0.00     0.210 HD
ENDBRANCH   1  18
BRANCH   1  20
HETATM   20  C4  UNL     1       1.198  75.975  19.257  1.00  0.00     0.161 C 
BRANCH  20  21
HETATM   21  O3  UNL     1       1.816  77.169  19.760  1.00  0.00    -0.392 OA
ATOM     22  H3  UNL     1       1.732  77.861  19.115  1.00  0.00     0.210 HD
ENDBRANCH  20  21
BRANCH  20  23
HETATM   23  C5  UNL     1       1.902  75.681  18.019  1.00  0.00     0.087 C 
HETATM   24  C6  UNL     1       2.181  76.603  16.973  1.00  0.00     0.115 C 
HETATM   25  N7  UNL     1       1.690  77.880  16.779  1.00  0.00    -0.354 N 
HETATM   26  C9  UNL     1       3.677  76.880  17.147  1.00  0.00     0.121 C 
HETATM   27  C7  UNL     1       2.673  78.540  15.972  1.00  0.00     0.219 C 
ATOM     28  H7  UNL     1       0.817  78.269  17.134  1.00  0.00     0.162 HD
HETATM   29  O4  UNL     1       2.585  79.695  15.430  1.00  0.00    -0.274 OA
HETATM   30  C8  UNL     1       3.872  77.628  15.858  1.00  0.00     0.127 C 
HETATM   31  N8  UNL     1       4.157  75.558  17.214  1.00  0.00    -0.163 NA
HETATM   32  C10 UNL     1       3.235  74.952  18.164  1.00  0.00     0.227 C 
BRANCH  31  33
HETATM   33  O5  UNL     1       5.417  75.453  17.696  1.00  0.00    -0.310 OA
ATOM     34  H5  UNL     1       5.975  76.192  17.482  1.00  0.00     0.237 HD
ENDBRANCH  31  33
BRANCH  32  35
HETATM   35  O6  UNL     1       3.788  75.007  19.409  1.00  0.00    -0.379 OA
ATOM     36  H6  UNL     1       4.726  74.857  19.437  1.00  0.00     0.211 HD
ENDBRANCH  32  35
ENDBRANCH  20  23
ENDBRANCH   1  20
TORSDOF 11
ENDMDL
