MODEL 1
REMARK VINA RESULT: -6.264017468      0.000      0.000
REMARK  7 active torsions:
REMARK  status: ('A' for Active; 'I' for Inactive)
REMARK    1  A    between atoms: C2_2  and  C3_3 
REMARK    2  A    between atoms: C3_3  and  N1_4 
REMARK    3  A    between atoms: N1_4  and  N2_5 
REMARK    4  A    between atoms: N2_5  and  C5_7 
REMARK    5  A    between atoms: C5_7  and  C6_8 
REMARK    6  A    between atoms: C6_8  and  O1_9 
REMARK    7  A    between atoms: O1_9  and  C7_10 
ROOT
HETATM    1  C6  UNL     1      -4.268   2.980  13.272  1.00  0.00     0.191 C 
ENDROOT
BRANCH   1   2
HETATM    2  C5  UNL     1      -4.839   2.140  12.147  1.00  0.00     0.135 C 
BRANCH   2   3
HETATM    3  N2  UNL     1      -3.891   1.904  11.079  1.00  0.00    -0.237 NA
HETATM    4  C4  UNL     1      -3.432   3.190  10.610  1.00  0.00     0.132 C 
BRANCH   3   5
HETATM    5  N1  UNL     1      -4.488   1.114  10.127  1.00  0.00    -0.162 NA
BRANCH   5   6
HETATM    6  C3  UNL     1      -4.489  -0.296  10.470  1.00  0.00     0.155 C 
BRANCH   6   7
HETATM    7  C2  UNL     1      -3.140  -0.801  10.811  1.00  0.00    -0.020 C 
HETATM    8  C1  UNL     1      -2.981  -2.058  11.183  1.00  0.00     0.008 C 
ENDBRANCH   6   7
ENDBRANCH   5   6
ENDBRANCH   3   5
ENDBRANCH   2   3
ENDBRANCH   1   2
BRANCH   1   9
HETATM    9  O1  UNL     1      -3.951   2.174  14.379  1.00  0.00    -0.350 OA
BRANCH   9  10
HETATM   10  C7  UNL     1      -4.902   1.917  15.350  1.00  0.00     0.068 A 
HETATM   11  C8  UNL     1      -4.845   0.739  16.064  1.00  0.00     0.037 A 
HETATM   12  C9  UNL     1      -5.792   0.453  17.050  1.00  0.00     0.003 A 
HETATM   13  C10 UNL     1      -6.779   1.351  17.305  1.00  0.00     0.000 A 
HETATM   14  C11 UNL     1      -6.866   2.545  16.608  1.00  0.00     0.003 A 
HETATM   15  C12 UNL     1      -5.915   2.799  15.639  1.00  0.00     0.037 A 
ENDBRANCH   9  10
ENDBRANCH   1   9
TORSDOF 7
ENDMDL
MODEL 2
REMARK VINA RESULT: -6.250137004      0.037      1.228
REMARK  7 active torsions:
REMARK  status: ('A' for Active; 'I' for Inactive)
REMARK    1  A    between atoms: C2_2  and  C3_3 
REMARK    2  A    between atoms: C3_3  and  N1_4 
REMARK    3  A    between atoms: N1_4  and  N2_5 
REMARK    4  A    between atoms: N2_5  and  C5_7 
REMARK    5  A    between atoms: C5_7  and  C6_8 
REMARK    6  A    between atoms: C6_8  and  O1_9 
REMARK    7  A    between atoms: O1_9  and  C7_10 
ROOT
HETATM    1  C6  UNL     1      -4.307   2.966  13.265  1.00  0.00     0.191 C 
ENDROOT
BRANCH   1   2
HETATM    2  C5  UNL     1      -4.841   2.069  12.166  1.00  0.00     0.135 C 
BRANCH   2   3
HETATM    3  N2  UNL     1      -3.905   1.888  11.078  1.00  0.00    -0.237 NA
HETATM    4  C4  UNL     1      -3.503   3.198  10.622  1.00  0.00     0.132 C 
BRANCH   3   5
HETATM    5  N1  UNL     1      -4.488   1.091  10.122  1.00  0.00    -0.162 NA
BRANCH   5   6
HETATM    6  C3  UNL     1      -4.489  -0.317  10.472  1.00  0.00     0.155 C 
BRANCH   6   7
HETATM    7  C2  UNL     1      -3.136  -0.826  10.791  1.00  0.00    -0.020 C 
HETATM    8  C1  UNL     1      -2.977  -2.078  11.180  1.00  0.00     0.008 C 
ENDBRANCH   6   7
ENDBRANCH   5   6
ENDBRANCH   3   5
ENDBRANCH   2   3
ENDBRANCH   1   2
BRANCH   1   9
HETATM    9  O1  UNL     1      -3.949   2.207  14.392  1.00  0.00    -0.350 OA
BRANCH   9  10
HETATM   10  C7  UNL     1      -4.890   1.915  15.363  1.00  0.00     0.068 A 
HETATM   11  C8  UNL     1      -5.904   2.814  15.621  1.00  0.00     0.037 A 
HETATM   12  C9  UNL     1      -6.868   2.546  16.596  1.00  0.00     0.003 A 
HETATM   13  C10 UNL     1      -6.800   1.382  17.295  1.00  0.00     0.000 A 
HETATM   14  C11 UNL     1      -5.797   0.457  17.062  1.00  0.00     0.003 A 
HETATM   15  C12 UNL     1      -4.859   0.751  16.092  1.00  0.00     0.037 A 
ENDBRANCH   9  10
ENDBRANCH   1   9
TORSDOF 7
ENDMDL
MODEL 3
REMARK VINA RESULT: -6.232778625      0.989      1.586
REMARK  7 active torsions:
REMARK  status: ('A' for Active; 'I' for Inactive)
REMARK    1  A    between atoms: C2_2  and  C3_3 
REMARK    2  A    between atoms: C3_3  and  N1_4 
REMARK    3  A    between atoms: N1_4  and  N2_5 
REMARK    4  A    between atoms: N2_5  and  C5_7 
REMARK    5  A    between atoms: C5_7  and  C6_8 
REMARK    6  A    between atoms: C6_8  and  O1_9 
REMARK    7  A    between atoms: O1_9  and  C7_10 
ROOT
HETATM    1  C6  UNL     1      -4.079   3.495  13.726  1.00  0.00     0.191 C 
ENDROOT
BRANCH   1   2
HETATM    2  C5  UNL     1      -4.287   2.699  12.453  1.00  0.00     0.135 C 
BRANCH   2   3
HETATM    3  N2  UNL     1      -3.433   1.534  12.368  1.00  0.00    -0.237 NA
HETATM    4  C4  UNL     1      -2.566   1.708  11.227  1.00  0.00     0.132 C 
BRANCH   3   5
HETATM    5  N1  UNL     1      -4.223   0.410  12.335  1.00  0.00    -0.162 NA
BRANCH   5   6
HETATM    6  C3  UNL     1      -4.101  -0.341  11.099  1.00  0.00     0.155 C 
BRANCH   6   7
HETATM    7  C2  UNL     1      -3.870  -1.785  11.330  1.00  0.00    -0.020 C 
HETATM    8  C1  UNL     1      -2.661  -2.292  11.171  1.00  0.00     0.008 C 
ENDBRANCH   6   7
ENDBRANCH   5   6
ENDBRANCH   3   5
ENDBRANCH   2   3
ENDBRANCH   1   2
BRANCH   1   9
HETATM    9  O1  UNL     1      -3.797   2.638  14.804  1.00  0.00    -0.350 OA
BRANCH   9  10
HETATM   10  C7  UNL     1      -4.823   2.147  15.591  1.00  0.00     0.068 A 
HETATM   11  C8  UNL     1      -5.977   2.887  15.744  1.00  0.00     0.037 A 
HETATM   12  C9  UNL     1      -7.029   2.416  16.534  1.00  0.00     0.003 A 
HETATM   13  C10 UNL     1      -6.908   1.214  17.156  1.00  0.00     0.000 A 
HETATM   14  C11 UNL     1      -5.764   0.445  17.023  1.00  0.00     0.003 A 
HETATM   15  C12 UNL     1      -4.741   0.937  16.236  1.00  0.00     0.037 A 
ENDBRANCH   9  10
ENDBRANCH   1   9
TORSDOF 7
ENDMDL
MODEL 4
REMARK VINA RESULT: -6.225623788      0.993      1.014
REMARK  7 active torsions:
REMARK  status: ('A' for Active; 'I' for Inactive)
REMARK    1  A    between atoms: C2_2  and  C3_3 
REMARK    2  A    between atoms: C3_3  and  N1_4 
REMARK    3  A    between atoms: N1_4  and  N2_5 
REMARK    4  A    between atoms: N2_5  and  C5_7 
REMARK    5  A    between atoms: C5_7  and  C6_8 
REMARK    6  A    between atoms: C6_8  and  O1_9 
REMARK    7  A    between atoms: O1_9  and  C7_10 
ROOT
HETATM    1  C6  UNL     1      -3.908   3.550  13.962  1.00  0.00     0.191 C 
ENDROOT
BRANCH   1   2
HETATM    2  C5  UNL     1      -4.229   2.865  12.648  1.00  0.00     0.135 C 
BRANCH   2   3
HETATM    3  N2  UNL     1      -3.443   1.671  12.425  1.00  0.00    -0.237 NA
HETATM    4  C4  UNL     1      -2.622   1.898  11.259  1.00  0.00     0.132 C 
BRANCH   3   5
HETATM    5  N1  UNL     1      -4.292   0.594  12.341  1.00  0.00    -0.162 NA
BRANCH   5   6
HETATM    6  C3  UNL     1      -4.121  -0.178  11.124  1.00  0.00     0.155 C 
BRANCH   6   7
HETATM    7  C2  UNL     1      -3.897  -1.617  11.389  1.00  0.00    -0.020 C 
HETATM    8  C1  UNL     1      -2.712  -2.154  11.155  1.00  0.00     0.008 C 
ENDBRANCH   6   7
ENDBRANCH   5   6
ENDBRANCH   3   5
ENDBRANCH   2   3
ENDBRANCH   1   2
BRANCH   1   9
HETATM    9  O1  UNL     1      -3.729   2.601  14.983  1.00  0.00    -0.350 OA
BRANCH   9  10
HETATM   10  C7  UNL     1      -4.815   2.137  15.701  1.00  0.00     0.068 A 
HETATM   11  C8  UNL     1      -4.742   0.913  16.333  1.00  0.00     0.037 A 
HETATM   12  C9  UNL     1      -5.823   0.418  17.065  1.00  0.00     0.003 A 
HETATM   13  C10 UNL     1      -6.960   1.157  17.153  1.00  0.00     0.000 A 
HETATM   14  C11 UNL     1      -7.070   2.390  16.533  1.00  0.00     0.003 A 
HETATM   15  C12 UNL     1      -5.983   2.852  15.816  1.00  0.00     0.037 A 
ENDBRANCH   9  10
ENDBRANCH   1   9
TORSDOF 7
ENDMDL
MODEL 5
REMARK VINA RESULT: -6.185278125      0.977      1.013
REMARK  7 active torsions:
REMARK  status: ('A' for Active; 'I' for Inactive)
REMARK    1  A    between atoms: C2_2  and  C3_3 
REMARK    2  A    between atoms: C3_3  and  N1_4 
REMARK    3  A    between atoms: N1_4  and  N2_5 
REMARK    4  A    between atoms: N2_5  and  C5_7 
REMARK    5  A    between atoms: C5_7  and  C6_8 
REMARK    6  A    between atoms: C6_8  and  O1_9 
REMARK    7  A    between atoms: O1_9  and  C7_10 
ROOT
HETATM    1  C6  UNL     1      -4.480   2.325  12.935  1.00  0.00     0.191 C 
ENDROOT
BRANCH   1   2
HETATM    2  C5  UNL     1      -3.276   2.594  12.055  1.00  0.00     0.135 C 
BRANCH   2   3
HETATM    3  N2  UNL     1      -2.723   1.392  11.469  1.00  0.00    -0.237 NA
HETATM    4  C4  UNL     1      -1.417   1.718  10.948  1.00  0.00     0.132 C 
BRANCH   3   5
HETATM    5  N1  UNL     1      -3.615   0.902  10.545  1.00  0.00    -0.162 NA
BRANCH   5   6
HETATM    6  C3  UNL     1      -3.346  -0.471  10.160  1.00  0.00     0.155 C 
BRANCH   6   7
HETATM    7  C2  UNL     1      -3.550  -1.425  11.273  1.00  0.00    -0.020 C 
HETATM    8  C1  UNL     1      -2.934  -2.593  11.262  1.00  0.00     0.008 C 
ENDBRANCH   6   7
ENDBRANCH   5   6
ENDBRANCH   3   5
ENDBRANCH   2   3
ENDBRANCH   1   2
BRANCH   1   9
HETATM    9  O1  UNL     1      -4.086   1.721  14.141  1.00  0.00    -0.350 OA
BRANCH   9  10
HETATM   10  C7  UNL     1      -4.950   1.689  15.220  1.00  0.00     0.068 A 
HETATM   11  C8  UNL     1      -4.919   0.616  16.086  1.00  0.00     0.037 A 
HETATM   12  C9  UNL     1      -5.781   0.556  17.184  1.00  0.00     0.003 A 
HETATM   13  C10 UNL     1      -6.658   1.572  17.396  1.00  0.00     0.000 A 
HETATM   14  C11 UNL     1      -6.717   2.665  16.548  1.00  0.00     0.003 A 
HETATM   15  C12 UNL     1      -5.852   2.695  15.471  1.00  0.00     0.037 A 
ENDBRANCH   9  10
ENDBRANCH   1   9
TORSDOF 7
ENDMDL
