MODEL 1
REMARK VINA RESULT: -6.397820779      0.000      0.000
REMARK  13 active torsions:
REMARK  status: ('A' for Active; 'I' for Inactive)
REMARK    1  A    between atoms: O1_2  and  C2_3 
REMARK    2  A    between atoms: C2_3  and  O2_4 
REMARK    3  A    between atoms: C2_3  and  C3_6 
REMARK    4  A    between atoms: C3_6  and  O3_7 
REMARK    5  A    between atoms: C3_6  and  C4_9 
REMARK    6  A    between atoms: C4_9  and  N1_10 
REMARK    7  A    between atoms: N1_10  and  C5_11 
REMARK    8  A    between atoms: N1_10  and  C12_20 
REMARK    9  A    between atoms: C5_11  and  C6_12 
REMARK   10  A    between atoms: C6_12  and  N2_13 
REMARK   11  A    between atoms: N2_13  and  C8_15 
REMARK   12  A    between atoms: C8_15  and  C9_16 
REMARK   13  A    between atoms: C12_20  and  C13_21 
ROOT
HETATM    1  C9  UNL     1      -5.628   2.676  16.146  1.00  0.00     0.127 C 
HETATM    2  C10 UNL     1      -6.877   2.061  16.827  1.00  0.00     0.031 C 
HETATM    3  C11 UNL     1      -4.632   1.627  16.215  1.00  0.00     0.069 C 
HETATM    4  N3  UNL     1      -3.824   0.777  16.302  1.00  0.00    -0.197 NA
ENDROOT
BRANCH   1   5
HETATM    5  C8  UNL     1      -5.961   3.089  14.762  1.00  0.00     0.081 C 
BRANCH   5   6
HETATM    6  N2  UNL     1      -5.413   4.222  14.193  1.00  0.00    -0.375 N 
HETATM    7  C7  UNL     1      -6.312   5.299  14.059  1.00  0.00     0.154 C 
BRANCH   6   8
HETATM    8  C6  UNL     1      -4.110   4.333  13.716  1.00  0.00     0.092 C 
BRANCH   8   9
HETATM    9  C5  UNL     1      -3.715   3.161  12.895  1.00  0.00     0.317 C 
BRANCH   9  10
HETATM   10  N1  UNL     1      -4.430   3.067  11.590  1.00  0.00     0.096 N 
BRANCH  10  11
HETATM   11  C4  UNL     1      -4.926   1.726  11.579  1.00  0.00     0.309 C 
BRANCH  11  12
HETATM   12  C3  UNL     1      -4.237   0.598  12.175  1.00  0.00     0.201 C 
BRANCH  12  13
HETATM   13  C2  UNL     1      -4.269  -0.517  11.061  1.00  0.00     0.286 C 
BRANCH  13  14
HETATM   14  O1  UNL     1      -3.021  -1.080  11.029  1.00  0.00    -0.364 OA
HETATM   15  C1  UNL     1      -3.105  -2.468  11.265  1.00  0.00     0.204 C 
ENDBRANCH  13  14
BRANCH  13  16
HETATM   16  O2  UNL     1      -4.633  -0.002   9.851  1.00  0.00    -0.369 OA
ATOM     17  H2  UNL     1      -5.349   0.619   9.925  1.00  0.00     0.212 HD
ENDBRANCH  13  16
ENDBRANCH  12  13
BRANCH  12  18
HETATM   18  O3  UNL     1      -4.637  -0.037  13.286  1.00  0.00    -0.389 OA
ATOM     19  H3  UNL     1      -3.840  -0.414  13.639  1.00  0.00     0.210 HD
ENDBRANCH  12  18
ENDBRANCH  11  12
ENDBRANCH  10  11
BRANCH  10  20
HETATM   20  C12 UNL     1      -3.389   3.235  10.623  1.00  0.00     0.277 C 
BRANCH  20  21
HETATM   21  C13 UNL     1      -1.967   3.074  10.970  1.00  0.00     0.014 A 
HETATM   22  C14 UNL     1      -0.953   3.209   9.778  1.00  0.00     0.007 A 
HETATM   23  C15 UNL     1      -1.323   1.863  10.236  1.00  0.00     0.007 A 
ENDBRANCH  20  21
ENDBRANCH  10  20
ENDBRANCH   9  10
ENDBRANCH   8   9
ENDBRANCH   6   8
ENDBRANCH   5   6
ENDBRANCH   1   5
TORSDOF 13
ENDMDL
MODEL 2
REMARK VINA RESULT: -6.272254908      0.941      1.177
REMARK  13 active torsions:
REMARK  status: ('A' for Active; 'I' for Inactive)
REMARK    1  A    between atoms: O1_2  and  C2_3 
REMARK    2  A    between atoms: C2_3  and  O2_4 
REMARK    3  A    between atoms: C2_3  and  C3_6 
REMARK    4  A    between atoms: C3_6  and  O3_7 
REMARK    5  A    between atoms: C3_6  and  C4_9 
REMARK    6  A    between atoms: C4_9  and  N1_10 
REMARK    7  A    between atoms: N1_10  and  C5_11 
REMARK    8  A    between atoms: N1_10  and  C12_20 
REMARK    9  A    between atoms: C5_11  and  C6_12 
REMARK   10  A    between atoms: C6_12  and  N2_13 
REMARK   11  A    between atoms: N2_13  and  C8_15 
REMARK   12  A    between atoms: C8_15  and  C9_16 
REMARK   13  A    between atoms: C12_20  and  C13_21 
ROOT
HETATM    1  C9  UNL     1      -5.628   2.688  16.044  1.00  0.00     0.127 C 
HETATM    2  C10 UNL     1      -6.912   2.096  16.679  1.00  0.00     0.031 C 
HETATM    3  C11 UNL     1      -4.646   1.631  16.175  1.00  0.00     0.069 C 
HETATM    4  N3  UNL     1      -3.851   0.775  16.311  1.00  0.00    -0.197 NA
ENDROOT
BRANCH   1   5
HETATM    5  C8  UNL     1      -5.895   3.081  14.641  1.00  0.00     0.081 C 
BRANCH   5   6
HETATM    6  N2  UNL     1      -5.533   4.322  14.154  1.00  0.00    -0.375 N 
HETATM    7  C7  UNL     1      -6.084   5.409  14.860  1.00  0.00     0.154 C 
BRANCH   6   8
HETATM    8  C6  UNL     1      -4.743   4.545  13.029  1.00  0.00     0.092 C 
BRANCH   8   9
HETATM    9  C5  UNL     1      -3.548   3.665  13.004  1.00  0.00     0.317 C 
BRANCH   9  10
HETATM   10  N1  UNL     1      -3.213   3.137  11.650  1.00  0.00     0.096 N 
BRANCH  10  11
HETATM   11  C4  UNL     1      -3.438   1.730  11.776  1.00  0.00     0.309 C 
BRANCH  11  12
HETATM   12  C3  UNL     1      -4.721   1.089  11.565  1.00  0.00     0.201 C 
BRANCH  12  13
HETATM   13  C2  UNL     1      -4.384  -0.192  10.709  1.00  0.00     0.286 C 
BRANCH  13  14
HETATM   14  O1  UNL     1      -4.260  -1.234  11.589  1.00  0.00    -0.364 OA
HETATM   15  C1  UNL     1      -3.145  -2.030  11.251  1.00  0.00     0.204 C 
ENDBRANCH  13  14
BRANCH  13  16
HETATM   16  O2  UNL     1      -3.257  -0.010   9.963  1.00  0.00    -0.369 OA
ATOM     17  H2  UNL     1      -3.453   0.151   9.048  1.00  0.00     0.212 HD
ENDBRANCH  13  16
ENDBRANCH  12  13
BRANCH  12  18
HETATM   18  O3  UNL     1      -5.754   1.650  10.922  1.00  0.00    -0.389 OA
ATOM     19  H3  UNL     1      -5.352   2.298  10.355  1.00  0.00     0.210 HD
ENDBRANCH  12  18
ENDBRANCH  11  12
ENDBRANCH  10  11
BRANCH  10  20
HETATM   20  C12 UNL     1      -1.817   3.420  11.514  1.00  0.00     0.277 C 
BRANCH  20  21
HETATM   21  C13 UNL     1      -0.919   2.561  10.724  1.00  0.00     0.014 A 
HETATM   22  C14 UNL     1       0.262   3.296   9.994  1.00  0.00     0.007 A 
HETATM   23  C15 UNL     1      -0.932   2.939   9.215  1.00  0.00     0.007 A 
ENDBRANCH  20  21
ENDBRANCH  10  20
ENDBRANCH   9  10
ENDBRANCH   8   9
ENDBRANCH   6   8
ENDBRANCH   5   6
ENDBRANCH   1   5
TORSDOF 13
ENDMDL
MODEL 3
REMARK VINA RESULT: -6.053583617      1.258      1.529
REMARK  13 active torsions:
REMARK  status: ('A' for Active; 'I' for Inactive)
REMARK    1  A    between atoms: O1_2  and  C2_3 
REMARK    2  A    between atoms: C2_3  and  O2_4 
REMARK    3  A    between atoms: C2_3  and  C3_6 
REMARK    4  A    between atoms: C3_6  and  O3_7 
REMARK    5  A    between atoms: C3_6  and  C4_9 
REMARK    6  A    between atoms: C4_9  and  N1_10 
REMARK    7  A    between atoms: N1_10  and  C5_11 
REMARK    8  A    between atoms: N1_10  and  C12_20 
REMARK    9  A    between atoms: C5_11  and  C6_12 
REMARK   10  A    between atoms: C6_12  and  N2_13 
REMARK   11  A    between atoms: N2_13  and  C8_15 
REMARK   12  A    between atoms: C8_15  and  C9_16 
REMARK   13  A    between atoms: C12_20  and  C13_21 
ROOT
HETATM    1  C9  UNL     1      -5.575   2.671  16.029  1.00  0.00     0.127 C 
HETATM    2  C10 UNL     1      -6.860   2.061  16.644  1.00  0.00     0.031 C 
HETATM    3  C11 UNL     1      -4.583   1.624  16.168  1.00  0.00     0.069 C 
HETATM    4  N3  UNL     1      -3.780   0.776  16.312  1.00  0.00    -0.197 NA
ENDROOT
BRANCH   1   5
HETATM    5  C8  UNL     1      -5.827   3.066  14.623  1.00  0.00     0.081 C 
BRANCH   5   6
HETATM    6  N2  UNL     1      -5.462   4.308  14.143  1.00  0.00    -0.375 N 
HETATM    7  C7  UNL     1      -6.071   5.392  14.805  1.00  0.00     0.154 C 
BRANCH   6   8
HETATM    8  C6  UNL     1      -4.616   4.534  13.060  1.00  0.00     0.092 C 
BRANCH   8   9
HETATM    9  C5  UNL     1      -3.488   3.570  13.023  1.00  0.00     0.317 C 
BRANCH   9  10
HETATM   10  N1  UNL     1      -3.073   3.176  11.646  1.00  0.00     0.096 N 
BRANCH  10  11
HETATM   11  C4  UNL     1      -3.346   1.772  11.607  1.00  0.00     0.309 C 
BRANCH  11  12
HETATM   12  C3  UNL     1      -4.679   1.201  11.600  1.00  0.00     0.201 C 
BRANCH  12  13
HETATM   13  C2  UNL     1      -4.512  -0.180  10.859  1.00  0.00     0.286 C 
BRANCH  13  14
HETATM   14  O1  UNL     1      -3.238  -0.613  11.114  1.00  0.00    -0.364 OA
HETATM   15  C1  UNL     1      -3.214  -2.020  11.227  1.00  0.00     0.204 C 
ENDBRANCH  13  14
BRANCH  13  16
HETATM   16  O2  UNL     1      -4.759  -0.061   9.523  1.00  0.00    -0.369 OA
ATOM     17  H2  UNL     1      -5.554  -0.511   9.262  1.00  0.00     0.212 HD
ENDBRANCH  13  16
ENDBRANCH  12  13
BRANCH  12  18
HETATM   18  O3  UNL     1      -5.743   1.764  11.011  1.00  0.00    -0.389 OA
ATOM     19  H3  UNL     1      -5.635   2.694  11.172  1.00  0.00     0.210 HD
ENDBRANCH  12  18
ENDBRANCH  11  12
ENDBRANCH  10  11
BRANCH  10  20
HETATM   20  C12 UNL     1      -1.664   3.422  11.635  1.00  0.00     0.277 C 
BRANCH  20  21
HETATM   21  C13 UNL     1      -1.090   4.652  11.061  1.00  0.00     0.014 A 
HETATM   22  C14 UNL     1       0.469   4.799  11.183  1.00  0.00     0.007 A 
HETATM   23  C15 UNL     1      -0.382   5.520  12.139  1.00  0.00     0.007 A 
ENDBRANCH  20  21
ENDBRANCH  10  20
ENDBRANCH   9  10
ENDBRANCH   8   9
ENDBRANCH   6   8
ENDBRANCH   5   6
ENDBRANCH   1   5
TORSDOF 13
ENDMDL
MODEL 4
REMARK VINA RESULT: -6.031409575      1.019      1.554
REMARK  13 active torsions:
REMARK  status: ('A' for Active; 'I' for Inactive)
REMARK    1  A    between atoms: O1_2  and  C2_3 
REMARK    2  A    between atoms: C2_3  and  O2_4 
REMARK    3  A    between atoms: C2_3  and  C3_6 
REMARK    4  A    between atoms: C3_6  and  O3_7 
REMARK    5  A    between atoms: C3_6  and  C4_9 
REMARK    6  A    between atoms: C4_9  and  N1_10 
REMARK    7  A    between atoms: N1_10  and  C5_11 
REMARK    8  A    between atoms: N1_10  and  C12_20 
REMARK    9  A    between atoms: C5_11  and  C6_12 
REMARK   10  A    between atoms: C6_12  and  N2_13 
REMARK   11  A    between atoms: N2_13  and  C8_15 
REMARK   12  A    between atoms: C8_15  and  C9_16 
REMARK   13  A    between atoms: C12_20  and  C13_21 
ROOT
HETATM    1  C9  UNL     1      -5.667   2.691  16.170  1.00  0.00     0.127 C 
HETATM    2  C10 UNL     1      -6.934   2.016  16.755  1.00  0.00     0.031 C 
HETATM    3  C11 UNL     1      -4.657   1.654  16.218  1.00  0.00     0.069 C 
HETATM    4  N3  UNL     1      -3.840   0.812  16.287  1.00  0.00    -0.197 NA
ENDROOT
BRANCH   1   5
HETATM    5  C8  UNL     1      -5.946   3.187  14.802  1.00  0.00     0.081 C 
BRANCH   5   6
HETATM    6  N2  UNL     1      -5.455   4.398  14.355  1.00  0.00    -0.375 N 
HETATM    7  C7  UNL     1      -6.445   5.309  13.936  1.00  0.00     0.154 C 
BRANCH   6   8
HETATM    8  C6  UNL     1      -4.107   4.729  14.249  1.00  0.00     0.092 C 
BRANCH   8   9
HETATM    9  C5  UNL     1      -3.358   3.753  13.420  1.00  0.00     0.317 C 
BRANCH   9  10
HETATM   10  N1  UNL     1      -3.389   4.049  11.958  1.00  0.00     0.096 N 
BRANCH  10  11
HETATM   11  C4  UNL     1      -3.653   2.774  11.367  1.00  0.00     0.309 C 
BRANCH  11  12
HETATM   12  C3  UNL     1      -4.769   1.923  11.730  1.00  0.00     0.201 C 
BRANCH  12  13
HETATM   13  C2  UNL     1      -4.107   0.540  12.096  1.00  0.00     0.286 C 
BRANCH  13  14
HETATM   14  O1  UNL     1      -4.363  -0.309  11.052  1.00  0.00    -0.364 OA
HETATM   15  C1  UNL     1      -3.401  -1.342  11.015  1.00  0.00     0.204 C 
ENDBRANCH  13  14
BRANCH  13  16
HETATM   16  O2  UNL     1      -4.582   0.058  13.281  1.00  0.00    -0.369 OA
ATOM     17  H2  UNL     1      -5.518  -0.101  13.255  1.00  0.00     0.212 HD
ENDBRANCH  13  16
ENDBRANCH  12  13
BRANCH  12  18
HETATM   18  O3  UNL     1      -5.776   1.597  10.907  1.00  0.00    -0.389 OA
ATOM     19  H3  UNL     1      -6.553   1.920  11.350  1.00  0.00     0.210 HD
ENDBRANCH  12  18
ENDBRANCH  11  12
ENDBRANCH  10  11
BRANCH  10  20
HETATM   20  C12 UNL     1      -2.054   4.477  11.672  1.00  0.00     0.277 C 
BRANCH  20  21
HETATM   21  C13 UNL     1      -0.952   3.520  11.476  1.00  0.00     0.014 A 
HETATM   22  C14 UNL     1       0.452   4.151  11.162  1.00  0.00     0.007 A 
HETATM   23  C15 UNL     1      -0.344   3.619  10.048  1.00  0.00     0.007 A 
ENDBRANCH  20  21
ENDBRANCH  10  20
ENDBRANCH   9  10
ENDBRANCH   8   9
ENDBRANCH   6   8
ENDBRANCH   5   6
ENDBRANCH   1   5
TORSDOF 13
ENDMDL
MODEL 5
REMARK VINA RESULT: -6.025400065      2.471      5.591
REMARK  13 active torsions:
REMARK  status: ('A' for Active; 'I' for Inactive)
REMARK    1  A    between atoms: O1_2  and  C2_3 
REMARK    2  A    between atoms: C2_3  and  O2_4 
REMARK    3  A    between atoms: C2_3  and  C3_6 
REMARK    4  A    between atoms: C3_6  and  O3_7 
REMARK    5  A    between atoms: C3_6  and  C4_9 
REMARK    6  A    between atoms: C4_9  and  N1_10 
REMARK    7  A    between atoms: N1_10  and  C5_11 
REMARK    8  A    between atoms: N1_10  and  C12_20 
REMARK    9  A    between atoms: C5_11  and  C6_12 
REMARK   10  A    between atoms: C6_12  and  N2_13 
REMARK   11  A    between atoms: N2_13  and  C8_15 
REMARK   12  A    between atoms: C8_15  and  C9_16 
REMARK   13  A    between atoms: C12_20  and  C13_21 
ROOT
HETATM    1  C9  UNL     1      -3.844  -0.331  11.392  1.00  0.00     0.127 C 
HETATM    2  C10 UNL     1      -4.791  -0.325  10.165  1.00  0.00     0.031 C 
HETATM    3  C11 UNL     1      -3.263  -1.658  11.387  1.00  0.00     0.069 C 
HETATM    4  N3  UNL     1      -2.820  -2.747  11.388  1.00  0.00    -0.197 NA
ENDROOT
BRANCH   1   5
HETATM    5  C8  UNL     1      -2.845   0.756  11.262  1.00  0.00     0.081 C 
BRANCH   5   6
HETATM    6  N2  UNL     1      -3.139   2.058  11.618  1.00  0.00    -0.375 N 
HETATM    7  C7  UNL     1      -2.200   3.009  11.173  1.00  0.00     0.154 C 
BRANCH   6   8
HETATM    8  C6  UNL     1      -4.222   2.452  12.399  1.00  0.00     0.092 C 
BRANCH   8   9
HETATM    9  C5  UNL     1      -3.793   3.169  13.625  1.00  0.00     0.317 C 
BRANCH   9  10
HETATM   10  N1  UNL     1      -4.822   3.194  14.704  1.00  0.00     0.096 N 
BRANCH  10  11
HETATM   11  C4  UNL     1      -5.168   1.815  14.865  1.00  0.00     0.309 C 
BRANCH  11  12
HETATM   12  C3  UNL     1      -4.492   0.906  15.769  1.00  0.00     0.201 C 
BRANCH  12  13
HETATM   13  C2  UNL     1      -5.555   0.608  16.895  1.00  0.00     0.286 C 
BRANCH  13  14
HETATM   14  O1  UNL     1      -6.766   0.473  16.270  1.00  0.00    -0.364 OA
HETATM   15  C1  UNL     1      -7.749   1.232  16.940  1.00  0.00     0.204 C 
ENDBRANCH  13  14
BRANCH  13  16
HETATM   16  O2  UNL     1      -5.568   1.592  17.840  1.00  0.00    -0.369 OA
ATOM     17  H2  UNL     1      -4.710   1.979  17.968  1.00  0.00     0.212 HD
ENDBRANCH  13  16
ENDBRANCH  12  13
BRANCH  12  18
HETATM   18  O3  UNL     1      -3.372   1.199  16.444  1.00  0.00    -0.389 OA
ATOM     19  H3  UNL     1      -2.684   0.761  15.955  1.00  0.00     0.210 HD
ENDBRANCH  12  18
ENDBRANCH  11  12
ENDBRANCH  10  11
BRANCH  10  20
HETATM   20  C12 UNL     1      -5.904   3.927  14.121  1.00  0.00     0.277 C 
BRANCH  20  21
HETATM   21  C13 UNL     1      -5.995   5.394  14.217  1.00  0.00     0.014 A 
HETATM   22  C14 UNL     1      -7.005   6.081  13.230  1.00  0.00     0.007 A 
HETATM   23  C15 UNL     1      -5.576   6.090  12.891  1.00  0.00     0.007 A 
ENDBRANCH  20  21
ENDBRANCH  10  20
ENDBRANCH   9  10
ENDBRANCH   8   9
ENDBRANCH   6   8
ENDBRANCH   5   6
ENDBRANCH   1   5
TORSDOF 13
ENDMDL
