MODEL 1
REMARK VINA RESULT: -6.514258490      0.000      0.000
REMARK  16 active torsions:
REMARK  status: ('A' for Active; 'I' for Inactive)
REMARK    1  A    between atoms: C2_2  and  C3_3 
REMARK    2  A    between atoms: C3_3  and  C4_4 
REMARK    3  A    between atoms: C4_4  and  C5_5 
REMARK    4  A    between atoms: C5_5  and  C6_6 
REMARK    5  A    between atoms: C6_6  and  C7_7 
REMARK    6  A    between atoms: C7_7  and  C8_8 
REMARK    7  A    between atoms: C8_8  and  C9_9 
REMARK    8  A    between atoms: C8_8  and  C16_27 
REMARK    9  A    between atoms: C10_10  and  O1_11 
REMARK   10  A    between atoms: C10_10  and  N1_13 
REMARK   11  A    between atoms: N1_13  and  C11_15 
REMARK   12  A    between atoms: C11_15  and  C12_16 
REMARK   13  A    between atoms: C12_16  and  O2_17 
REMARK   14  A    between atoms: C12_16  and  C13_19 
REMARK   15  A    between atoms: C13_19  and  N2_20 
REMARK   16  A    between atoms: C16_27  and  O3_28 
ROOT
HETATM    1  C9  UNL     1      -4.362   1.027  14.151  1.00  0.00     0.060 C 
HETATM    2  C10 UNL     1      -4.427   0.956  12.727  1.00  0.00     0.135 C 
ENDROOT
BRANCH   2   3
HETATM    3  O1  UNL     1      -3.922  -0.125  12.161  1.00  0.00    -0.346 OA
ATOM      4  H1  UNL     1      -4.001  -0.191  11.217  1.00  0.00     0.219 HD
ENDBRANCH   2   3
BRANCH   2   5
HETATM    5  N1  UNL     1      -4.944   1.852  11.799  1.00  0.00    -0.368 N 
ATOM      6  H1  UNL     1      -5.728   2.457  12.043  1.00  0.00     0.161 HD
BRANCH   5   7
HETATM    7  C11 UNL     1      -4.332   1.915  10.437  1.00  0.00     0.155 C 
BRANCH   7   8
HETATM    8  C12 UNL     1      -3.393   3.051  10.390  1.00  0.00     0.155 C 
BRANCH   8   9
HETATM    9  O2  UNL     1      -3.408   3.563   9.045  1.00  0.00    -0.392 OA
ATOM     10  H2  UNL     1      -4.176   4.116   8.961  1.00  0.00     0.210 HD
ENDBRANCH   8   9
BRANCH   8  11
HETATM   11  C13 UNL     1      -3.887   4.183  11.281  1.00  0.00     0.183 C 
BRANCH  11  12
HETATM   12  N2  UNL     1      -2.895   4.563  12.241  1.00  0.00    -0.285 N 
HETATM   13  C14 UNL     1      -2.615   5.795  12.888  1.00  0.00     0.130 A 
HETATM   14  C15 UNL     1      -1.603   5.622  13.706  1.00  0.00     0.127 A 
HETATM   15  N3  UNL     1      -1.219   4.271  13.592  1.00  0.00    -0.296 N 
HETATM   16  N4  UNL     1      -1.928   3.651  12.775  1.00  0.00    -0.241 N 
ATOM     17  H3  UNL     1      -0.452   3.850  14.115  1.00  0.00     0.187 HD
ATOM     18  H4  UNL     1      -1.836   2.665  12.530  1.00  0.00     0.208 HD
ENDBRANCH  11  12
ENDBRANCH   8  11
ENDBRANCH   7   8
ENDBRANCH   5   7
ENDBRANCH   2   5
BRANCH   1  19
HETATM   19  C8  UNL     1      -4.711   1.863  15.040  1.00  0.00    -0.052 C 
BRANCH  19  20
HETATM   20  C7  UNL     1      -4.789   3.340  14.953  1.00  0.00     0.040 C 
BRANCH  20  21
HETATM   21  C6  UNL     1      -6.140   3.861  14.515  1.00  0.00     0.031 C 
BRANCH  21  22
HETATM   22  C5  UNL     1      -5.980   5.318  14.331  1.00  0.00    -0.030 C 
BRANCH  22  23
HETATM   23  C4  UNL     1      -6.754   5.975  13.503  1.00  0.00    -0.031 C 
BRANCH  23  24
HETATM   24  C3  UNL     1      -6.187   6.698  12.320  1.00  0.00     0.026 C 
BRANCH  24  25
HETATM   25  C2  UNL     1      -7.238   7.726  11.896  1.00  0.00    -0.001 C 
HETATM   26  C1  UNL     1      -6.524   8.757  11.044  1.00  0.00     0.005 C 
ENDBRANCH  24  25
ENDBRANCH  23  24
ENDBRANCH  22  23
ENDBRANCH  21  22
ENDBRANCH  20  21
ENDBRANCH  19  20
BRANCH  19  27
HETATM   27  C16 UNL     1      -5.201   1.380  16.402  1.00  0.00     0.201 C 
BRANCH  27  28
HETATM   28  O3  UNL     1      -6.252   0.553  16.426  1.00  0.00    -0.392 OA
HETATM   29  C17 UNL     1      -7.342   1.067  17.101  1.00  0.00     0.201 C 
ENDBRANCH  27  28
ENDBRANCH  19  27
ENDBRANCH   1  19
TORSDOF 16
ENDMDL
MODEL 2
REMARK VINA RESULT: -6.494627034      1.856      2.241
REMARK  16 active torsions:
REMARK  status: ('A' for Active; 'I' for Inactive)
REMARK    1  A    between atoms: C2_2  and  C3_3 
REMARK    2  A    between atoms: C3_3  and  C4_4 
REMARK    3  A    between atoms: C4_4  and  C5_5 
REMARK    4  A    between atoms: C5_5  and  C6_6 
REMARK    5  A    between atoms: C6_6  and  C7_7 
REMARK    6  A    between atoms: C7_7  and  C8_8 
REMARK    7  A    between atoms: C8_8  and  C9_9 
REMARK    8  A    between atoms: C8_8  and  C16_27 
REMARK    9  A    between atoms: C10_10  and  O1_11 
REMARK   10  A    between atoms: C10_10  and  N1_13 
REMARK   11  A    between atoms: N1_13  and  C11_15 
REMARK   12  A    between atoms: C11_15  and  C12_16 
REMARK   13  A    between atoms: C12_16  and  O2_17 
REMARK   14  A    between atoms: C12_16  and  C13_19 
REMARK   15  A    between atoms: C13_19  and  N2_20 
REMARK   16  A    between atoms: C16_27  and  O3_28 
ROOT
HETATM    1  C9  UNL     1      -5.024   2.146  13.446  1.00  0.00     0.060 C 
HETATM    2  C10 UNL     1      -4.736   1.447  12.235  1.00  0.00     0.135 C 
ENDROOT
BRANCH   2   3
HETATM    3  O1  UNL     1      -5.575   1.624  11.231  1.00  0.00    -0.346 OA
ATOM      4  H1  UNL     1      -5.703   0.888  10.644  1.00  0.00     0.219 HD
ENDBRANCH   2   3
BRANCH   2   5
HETATM    5  N1  UNL     1      -3.695   0.584  11.914  1.00  0.00    -0.368 N 
ATOM      6  H1  UNL     1      -3.146   0.137  12.649  1.00  0.00     0.161 HD
BRANCH   5   7
HETATM    7  C11 UNL     1      -3.391   0.323  10.475  1.00  0.00     0.155 C 
BRANCH   7   8
HETATM    8  C12 UNL     1      -2.302   1.220  10.048  1.00  0.00     0.155 C 
BRANCH   8   9
HETATM    9  O2  UNL     1      -2.842   2.553   9.991  1.00  0.00    -0.392 OA
ATOM     10  H2  UNL     1      -2.115   3.147   9.843  1.00  0.00     0.210 HD
ENDBRANCH   8   9
BRANCH   8  11
HETATM   11  C13 UNL     1      -1.200   1.253  11.100  1.00  0.00     0.183 C 
BRANCH  11  12
HETATM   12  N2  UNL     1      -0.589   2.544  11.176  1.00  0.00    -0.285 N 
HETATM   13  C14 UNL     1       0.296   3.236  10.308  1.00  0.00     0.130 A 
HETATM   14  C15 UNL     1       0.557   4.415  10.822  1.00  0.00     0.127 A 
HETATM   15  N3  UNL     1      -0.160   4.494  12.033  1.00  0.00    -0.296 N 
HETATM   16  N4  UNL     1      -0.813   3.457  12.258  1.00  0.00    -0.241 N 
ATOM     17  H3  UNL     1      -0.146   5.304  12.652  1.00  0.00     0.187 HD
ATOM     18  H4  UNL     1      -1.405   3.287  13.071  1.00  0.00     0.208 HD
ENDBRANCH  11  12
ENDBRANCH   8  11
ENDBRANCH   7   8
ENDBRANCH   5   7
ENDBRANCH   2   5
BRANCH   1  19
HETATM   19  C8  UNL     1      -4.495   2.236  14.596  1.00  0.00    -0.052 C 
BRANCH  19  20
HETATM   20  C7  UNL     1      -3.985   3.438  15.296  1.00  0.00     0.040 C 
BRANCH  20  21
HETATM   21  C6  UNL     1      -3.436   4.503  14.371  1.00  0.00     0.031 C 
BRANCH  21  22
HETATM   22  C5  UNL     1      -4.251   5.712  14.606  1.00  0.00    -0.030 C 
BRANCH  22  23
HETATM   23  C4  UNL     1      -5.544   5.618  14.798  1.00  0.00    -0.031 C 
BRANCH  23  24
HETATM   24  C3  UNL     1      -6.501   5.618  13.645  1.00  0.00     0.026 C 
BRANCH  24  25
HETATM   25  C2  UNL     1      -5.880   6.505  12.565  1.00  0.00    -0.001 C 
HETATM   26  C1  UNL     1      -6.995   7.372  12.015  1.00  0.00     0.005 C 
ENDBRANCH  24  25
ENDBRANCH  23  24
ENDBRANCH  22  23
ENDBRANCH  21  22
ENDBRANCH  20  21
ENDBRANCH  19  20
BRANCH  19  27
HETATM   27  C16 UNL     1      -4.383   1.006  15.491  1.00  0.00     0.201 C 
BRANCH  27  28
HETATM   28  O3  UNL     1      -5.517   0.399  15.858  1.00  0.00    -0.392 OA
HETATM   29  C17 UNL     1      -5.924   0.720  17.138  1.00  0.00     0.201 C 
ENDBRANCH  27  28
ENDBRANCH  19  27
ENDBRANCH   1  19
TORSDOF 16
ENDMDL
MODEL 3
REMARK VINA RESULT: -6.472027852      1.902      3.039
REMARK  16 active torsions:
REMARK  status: ('A' for Active; 'I' for Inactive)
REMARK    1  A    between atoms: C2_2  and  C3_3 
REMARK    2  A    between atoms: C3_3  and  C4_4 
REMARK    3  A    between atoms: C4_4  and  C5_5 
REMARK    4  A    between atoms: C5_5  and  C6_6 
REMARK    5  A    between atoms: C6_6  and  C7_7 
REMARK    6  A    between atoms: C7_7  and  C8_8 
REMARK    7  A    between atoms: C8_8  and  C9_9 
REMARK    8  A    between atoms: C8_8  and  C16_27 
REMARK    9  A    between atoms: C10_10  and  O1_11 
REMARK   10  A    between atoms: C10_10  and  N1_13 
REMARK   11  A    between atoms: N1_13  and  C11_15 
REMARK   12  A    between atoms: C11_15  and  C12_16 
REMARK   13  A    between atoms: C12_16  and  O2_17 
REMARK   14  A    between atoms: C12_16  and  C13_19 
REMARK   15  A    between atoms: C13_19  and  N2_20 
REMARK   16  A    between atoms: C16_27  and  O3_28 
ROOT
HETATM    1  C9  UNL     1      -4.962   2.023  15.121  1.00  0.00     0.060 C 
HETATM    2  C10 UNL     1      -4.486   0.887  14.399  1.00  0.00     0.135 C 
ENDROOT
BRANCH   2   3
HETATM    3  O1  UNL     1      -4.664  -0.294  14.963  1.00  0.00    -0.346 OA
ATOM      4  H1  UNL     1      -5.021  -0.981  14.413  1.00  0.00     0.219 HD
ENDBRANCH   2   3
BRANCH   2   5
HETATM    5  N1  UNL     1      -3.848   0.800  13.168  1.00  0.00    -0.368 N 
ATOM      6  H1  UNL     1      -2.875   0.499  13.108  1.00  0.00     0.161 HD
BRANCH   5   7
HETATM    7  C11 UNL     1      -4.611   1.153  11.933  1.00  0.00     0.155 C 
BRANCH   7   8
HETATM    8  C12 UNL     1      -3.691   1.785  10.969  1.00  0.00     0.155 C 
BRANCH   8   9
HETATM    9  O2  UNL     1      -3.447   3.127  11.426  1.00  0.00    -0.392 OA
ATOM     10  H2  UNL     1      -2.612   3.402  11.064  1.00  0.00     0.210 HD
ENDBRANCH   8   9
BRANCH   8  11
HETATM   11  C13 UNL     1      -2.341   1.079  10.985  1.00  0.00     0.183 C 
BRANCH  11  12
HETATM   12  N2  UNL     1      -1.263   2.010  10.853  1.00  0.00    -0.285 N 
HETATM   13  C14 UNL     1      -0.619   2.572   9.719  1.00  0.00     0.130 A 
HETATM   14  C15 UNL     1       0.314   3.400  10.130  1.00  0.00     0.127 A 
HETATM   15  N3  UNL     1       0.280   3.376  11.539  1.00  0.00    -0.296 N 
HETATM   16  N4  UNL     1      -0.596   2.604  11.973  1.00  0.00    -0.241 N 
ATOM     17  H3  UNL     1       0.900   3.927  12.132  1.00  0.00     0.187 HD
ATOM     18  H4  UNL     1      -0.802   2.426  12.956  1.00  0.00     0.208 HD
ENDBRANCH  11  12
ENDBRANCH   8  11
ENDBRANCH   7   8
ENDBRANCH   5   7
ENDBRANCH   2   5
BRANCH   1  19
HETATM   19  C8  UNL     1      -4.977   3.279  14.940  1.00  0.00    -0.052 C 
BRANCH  19  20
HETATM   20  C7  UNL     1      -6.135   4.172  14.696  1.00  0.00     0.040 C 
BRANCH  20  21
HETATM   21  C6  UNL     1      -5.751   5.585  14.315  1.00  0.00     0.031 C 
BRANCH  21  22
HETATM   22  C5  UNL     1      -6.768   6.039  13.343  1.00  0.00    -0.030 C 
BRANCH  22  23
HETATM   23  C4  UNL     1      -6.432   6.807  12.336  1.00  0.00    -0.031 C 
BRANCH  23  24
HETATM   24  C3  UNL     1      -7.371   7.847  11.807  1.00  0.00     0.026 C 
BRANCH  24  25
HETATM   25  C2  UNL     1      -6.830   8.263  10.437  1.00  0.00    -0.001 C 
HETATM   26  C1  UNL     1      -5.990   9.505  10.656  1.00  0.00     0.005 C 
ENDBRANCH  24  25
ENDBRANCH  23  24
ENDBRANCH  22  23
ENDBRANCH  21  22
ENDBRANCH  20  21
ENDBRANCH  19  20
BRANCH  19  27
HETATM   27  C16 UNL     1      -3.687   4.087  15.031  1.00  0.00     0.201 C 
BRANCH  27  28
HETATM   28  O3  UNL     1      -2.748   3.864  14.105  1.00  0.00    -0.392 OA
HETATM   29  C17 UNL     1      -1.816   4.878  14.009  1.00  0.00     0.201 C 
ENDBRANCH  27  28
ENDBRANCH  19  27
ENDBRANCH   1  19
TORSDOF 16
ENDMDL
MODEL 4
REMARK VINA RESULT: -6.401375943      2.041      2.586
REMARK  16 active torsions:
REMARK  status: ('A' for Active; 'I' for Inactive)
REMARK    1  A    between atoms: C2_2  and  C3_3 
REMARK    2  A    between atoms: C3_3  and  C4_4 
REMARK    3  A    between atoms: C4_4  and  C5_5 
REMARK    4  A    between atoms: C5_5  and  C6_6 
REMARK    5  A    between atoms: C6_6  and  C7_7 
REMARK    6  A    between atoms: C7_7  and  C8_8 
REMARK    7  A    between atoms: C8_8  and  C9_9 
REMARK    8  A    between atoms: C8_8  and  C16_27 
REMARK    9  A    between atoms: C10_10  and  O1_11 
REMARK   10  A    between atoms: C10_10  and  N1_13 
REMARK   11  A    between atoms: N1_13  and  C11_15 
REMARK   12  A    between atoms: C11_15  and  C12_16 
REMARK   13  A    between atoms: C12_16  and  O2_17 
REMARK   14  A    between atoms: C12_16  and  C13_19 
REMARK   15  A    between atoms: C13_19  and  N2_20 
REMARK   16  A    between atoms: C16_27  and  O3_28 
ROOT
HETATM    1  C9  UNL     1      -5.001   2.095  13.309  1.00  0.00     0.060 C 
HETATM    2  C10 UNL     1      -4.714   1.386  12.104  1.00  0.00     0.135 C 
ENDROOT
BRANCH   2   3
HETATM    3  O1  UNL     1      -5.552   1.558  11.098  1.00  0.00    -0.346 OA
ATOM      4  H1  UNL     1      -5.296   2.184  10.431  1.00  0.00     0.219 HD
ENDBRANCH   2   3
BRANCH   2   5
HETATM    5  N1  UNL     1      -3.675   0.518  11.790  1.00  0.00    -0.368 N 
ATOM      6  H1  UNL     1      -3.588  -0.381  12.265  1.00  0.00     0.161 HD
BRANCH   5   7
HETATM    7  C11 UNL     1      -2.686   0.924  10.746  1.00  0.00     0.155 C 
BRANCH   7   8
HETATM    8  C12 UNL     1      -2.262   2.312  11.006  1.00  0.00     0.155 C 
BRANCH   8   9
HETATM    9  O2  UNL     1      -1.054   2.252  11.786  1.00  0.00    -0.392 OA
ATOM     10  H2  UNL     1      -0.348   2.012  11.197  1.00  0.00     0.210 HD
ENDBRANCH   8   9
BRANCH   8  11
HETATM   11  C13 UNL     1      -1.891   3.005   9.701  1.00  0.00     0.183 C 
BRANCH  11  12
HETATM   12  N2  UNL     1      -2.835   4.026   9.365  1.00  0.00    -0.285 N 
HETATM   13  C14 UNL     1      -2.794   5.096   8.433  1.00  0.00     0.130 A 
HETATM   14  C15 UNL     1      -3.931   5.750   8.490  1.00  0.00     0.127 A 
HETATM   15  N3  UNL     1      -4.718   5.105   9.465  1.00  0.00    -0.296 N 
HETATM   16  N4  UNL     1      -4.128   4.132   9.974  1.00  0.00    -0.241 N 
ATOM     17  H3  UNL     1      -5.660   5.399   9.723  1.00  0.00     0.187 HD
ATOM     18  H4  UNL     1      -4.501   3.519  10.698  1.00  0.00     0.208 HD
ENDBRANCH  11  12
ENDBRANCH   8  11
ENDBRANCH   7   8
ENDBRANCH   5   7
ENDBRANCH   2   5
BRANCH   1  19
HETATM   19  C8  UNL     1      -4.472   2.193  14.459  1.00  0.00    -0.052 C 
BRANCH  19  20
HETATM   20  C7  UNL     1      -3.948   3.397  15.146  1.00  0.00     0.040 C 
BRANCH  20  21
HETATM   21  C6  UNL     1      -3.989   4.653  14.303  1.00  0.00     0.031 C 
BRANCH  21  22
HETATM   22  C5  UNL     1      -5.179   5.407  14.747  1.00  0.00    -0.030 C 
BRANCH  22  23
HETATM   23  C4  UNL     1      -6.172   5.633  13.922  1.00  0.00    -0.031 C 
BRANCH  23  24
HETATM   24  C3  UNL     1      -5.957   6.358  12.629  1.00  0.00     0.026 C 
BRANCH  24  25
HETATM   25  C2  UNL     1      -7.248   7.129  12.345  1.00  0.00    -0.001 C 
HETATM   26  C1  UNL     1      -6.896   8.224  11.357  1.00  0.00     0.005 C 
ENDBRANCH  24  25
ENDBRANCH  23  24
ENDBRANCH  22  23
ENDBRANCH  21  22
ENDBRANCH  20  21
ENDBRANCH  19  20
BRANCH  19  27
HETATM   27  C16 UNL     1      -4.376   0.972  15.369  1.00  0.00     0.201 C 
BRANCH  27  28
HETATM   28  O3  UNL     1      -5.518   0.419  15.789  1.00  0.00    -0.392 OA
HETATM   29  C17 UNL     1      -5.889   0.815  17.059  1.00  0.00     0.201 C 
ENDBRANCH  27  28
ENDBRANCH  19  27
ENDBRANCH   1  19
TORSDOF 16
ENDMDL
MODEL 5
REMARK VINA RESULT: -6.376975043      2.365      5.512
REMARK  16 active torsions:
REMARK  status: ('A' for Active; 'I' for Inactive)
REMARK    1  A    between atoms: C2_2  and  C3_3 
REMARK    2  A    between atoms: C3_3  and  C4_4 
REMARK    3  A    between atoms: C4_4  and  C5_5 
REMARK    4  A    between atoms: C5_5  and  C6_6 
REMARK    5  A    between atoms: C6_6  and  C7_7 
REMARK    6  A    between atoms: C7_7  and  C8_8 
REMARK    7  A    between atoms: C8_8  and  C9_9 
REMARK    8  A    between atoms: C8_8  and  C16_27 
REMARK    9  A    between atoms: C10_10  and  O1_11 
REMARK   10  A    between atoms: C10_10  and  N1_13 
REMARK   11  A    between atoms: N1_13  and  C11_15 
REMARK   12  A    between atoms: C11_15  and  C12_16 
REMARK   13  A    between atoms: C12_16  and  O2_17 
REMARK   14  A    between atoms: C12_16  and  C13_19 
REMARK   15  A    between atoms: C13_19  and  N2_20 
REMARK   16  A    between atoms: C16_27  and  O3_28 
ROOT
HETATM    1  C9  UNL     1      -4.460   6.028  14.477  1.00  0.00     0.060 C 
HETATM    2  C10 UNL     1      -3.475   6.608  13.623  1.00  0.00     0.135 C 
ENDROOT
BRANCH   2   3
HETATM    3  O1  UNL     1      -2.453   7.203  14.211  1.00  0.00    -0.346 OA
ATOM      4  H1  UNL     1      -2.659   7.862  14.864  1.00  0.00     0.219 HD
ENDBRANCH   2   3
BRANCH   2   5
HETATM    5  N1  UNL     1      -3.397   6.660  12.236  1.00  0.00    -0.368 N 
ATOM      6  H1  UNL     1      -3.869   7.400  11.717  1.00  0.00     0.161 HD
BRANCH   5   7
HETATM    7  C11 UNL     1      -2.610   5.612  11.519  1.00  0.00     0.155 C 
BRANCH   7   8
HETATM    8  C12 UNL     1      -3.430   4.391  11.412  1.00  0.00     0.155 C 
BRANCH   8   9
HETATM    9  O2  UNL     1      -4.664   4.759  10.770  1.00  0.00    -0.392 OA
ATOM     10  H2  UNL     1      -5.333   4.798  11.443  1.00  0.00     0.210 HD
ENDBRANCH   8   9
BRANCH   8  11
HETATM   11  C13 UNL     1      -2.757   3.380  10.492  1.00  0.00     0.183 C 
BRANCH  11  12
HETATM   12  N2  UNL     1      -3.275   2.062  10.696  1.00  0.00    -0.285 N 
HETATM   13  C14 UNL     1      -2.653   0.834  11.043  1.00  0.00     0.130 A 
HETATM   14  C15 UNL     1      -3.575  -0.097  11.129  1.00  0.00     0.127 A 
HETATM   15  N3  UNL     1      -4.804   0.525  10.835  1.00  0.00    -0.296 N 
HETATM   16  N4  UNL     1      -4.667   1.739  10.588  1.00  0.00    -0.241 N 
ATOM     17  H3  UNL     1      -5.701   0.039  10.825  1.00  0.00     0.187 HD
ATOM     18  H4  UNL     1      -5.415   2.389  10.349  1.00  0.00     0.208 HD
ENDBRANCH  11  12
ENDBRANCH   8  11
ENDBRANCH   7   8
ENDBRANCH   5   7
ENDBRANCH   2   5
BRANCH   1  19
HETATM   19  C8  UNL     1      -5.552   5.400  14.318  1.00  0.00    -0.052 C 
BRANCH  19  20
HETATM   20  C7  UNL     1      -5.956   4.081  14.858  1.00  0.00     0.040 C 
BRANCH  20  21
HETATM   21  C6  UNL     1      -5.676   2.922  13.925  1.00  0.00     0.031 C 
BRANCH  21  22
HETATM   22  C5  UNL     1      -4.455   2.268  14.438  1.00  0.00    -0.030 C 
BRANCH  22  23
HETATM   23  C4  UNL     1      -4.324   2.005  15.714  1.00  0.00    -0.031 C 
BRANCH  23  24
HETATM   24  C3  UNL     1      -5.006   0.826  16.338  1.00  0.00     0.026 C 
BRANCH  24  25
HETATM   25  C2  UNL     1      -5.893   1.379  17.456  1.00  0.00    -0.001 C 
HETATM   26  C1  UNL     1      -7.328   1.224  16.994  1.00  0.00     0.005 C 
ENDBRANCH  24  25
ENDBRANCH  23  24
ENDBRANCH  22  23
ENDBRANCH  21  22
ENDBRANCH  20  21
ENDBRANCH  19  20
BRANCH  19  27
HETATM   27  C16 UNL     1      -6.697   6.032  13.533  1.00  0.00     0.201 C 
BRANCH  27  28
HETATM   28  O3  UNL     1      -6.501   6.269  12.231  1.00  0.00    -0.392 OA
HETATM   29  C17 UNL     1      -6.957   7.507  11.822  1.00  0.00     0.201 C 
ENDBRANCH  27  28
ENDBRANCH  19  27
ENDBRANCH   1  19
TORSDOF 16
ENDMDL
