MODEL 1
REMARK VINA RESULT: -5.992894398      0.000      0.000
REMARK  9 active torsions:
REMARK  status: ('A' for Active; 'I' for Inactive)
REMARK    1  A    between atoms: C2_4  and  O1_5 
REMARK    2  A    between atoms: C2_4  and  C3_7 
REMARK    3  A    between atoms: C3_7  and  S1_8 
REMARK    4  A    between atoms: S1_8  and  C4_9 
REMARK    5  A    between atoms: C4_9  and  C5_10 
REMARK    6  A    between atoms: C6_11  and  C7_12 
REMARK    7  A    between atoms: C9_17  and  C10_18 
REMARK    8  A    between atoms: C10_18  and  C11_19 
REMARK    9  A    between atoms: C14_24  and  N4_25 
ROOT
HETATM    1  C7  UNL     1      10.817  -0.305   0.516  1.00  0.00     0.035 C 
HETATM    2  C8  UNL     1       9.763   0.185   1.503  1.00  0.00     0.241 C 
HETATM    3  N2  UNL     1      10.537   0.839   2.509  1.00  0.00    -0.070 N 
ATOM      4  H21 UNL     1      10.870   0.214   3.244  1.00  0.00     0.277 HD
ATOM      5  H22 UNL     1       9.992   1.454   3.113  1.00  0.00     0.277 HD
HETATM    6  C9  UNL     1      11.590   1.509   1.799  1.00  0.00     0.193 C 
HETATM    7  C20 UNL     1      11.857   0.810   0.514  1.00  0.00     0.043 C 
ENDROOT
BRANCH   6   8
HETATM    8  C10 UNL     1      11.140   2.964   1.602  1.00  0.00     0.109 C 
BRANCH   8   9
HETATM    9  C11 UNL     1      12.361   3.787   1.759  1.00  0.00     0.084 A 
HETATM   10  N3  UNL     1      12.286   5.090   1.450  1.00  0.00    -0.349 N 
HETATM   11  C12 UNL     1      13.368   5.873   1.576  1.00  0.00     0.020 A 
ATOM     12  H3  UNL     1      11.406   5.486   1.119  1.00  0.00     0.167 HD
HETATM   13  C13 UNL     1      14.572   5.304   2.035  1.00  0.00     0.008 A 
HETATM   14  C19 UNL     1      13.121   7.296   1.206  1.00  0.00     0.057 C 
HETATM   15  C14 UNL     1      14.661   3.991   2.350  1.00  0.00     0.108 A 
HETATM   16  C15 UNL     1      15.815   6.073   2.196  1.00  0.00     0.044 C 
HETATM   17  N5  UNL     1      13.503   3.246   2.195  1.00  0.00    -0.332 N 
ATOM     18  H5  UNL     1      13.523   2.251   2.421  1.00  0.00     0.168 HD
HETATM   19  C16 UNL     1      15.622   6.916   3.456  1.00  0.00     0.005 C 
HETATM   20  C17 UNL     1      14.242   7.552   3.456  1.00  0.00     0.001 C 
HETATM   21  C18 UNL     1      13.871   8.183   2.156  1.00  0.00     0.006 C 
BRANCH  15  22
HETATM   22  N4  UNL     1      15.708   3.438   2.782  1.00  0.00    -0.385 N 
ATOM     23  H42 UNL     1      16.341   3.956   3.391  1.00  0.00     0.157 HD
ATOM     24  H41 UNL     1      15.988   2.485   2.550  1.00  0.00     0.157 HD
ENDBRANCH  15  22
ENDBRANCH   8   9
ENDBRANCH   6   8
BRANCH   1  25
HETATM   25  C6  UNL     1      11.402  -1.529   1.106  1.00  0.00    -0.024 C 
HETATM   26  C5  UNL     1      12.087  -2.461   0.512  1.00  0.00    -0.020 C 
BRANCH  26  27
HETATM   27  C4  UNL     1      12.403  -2.439  -0.924  1.00  0.00     0.101 C 
BRANCH  27  28
HETATM   28  S1  UNL     1      13.928  -3.399  -1.254  1.00  0.00    -0.157 SA
BRANCH  28  29
HETATM   29  C3  UNL     1      15.247  -2.262  -1.816  1.00  0.00     0.157 C 
BRANCH  29  30
HETATM   30  C2  UNL     1      15.488  -1.217  -0.797  1.00  0.00     0.120 C 
HETATM   31  N1  UNL     1      15.281   0.042  -1.069  1.00  0.00    -0.378 N 
HETATM   32  C1  UNL     1      15.505   1.084  -0.099  1.00  0.00     0.148 C 
ATOM     33  H1  UNL     1      14.951   0.297  -1.999  1.00  0.00     0.160 HD
BRANCH  30  34
HETATM   34  O1  UNL     1      15.936  -1.535   0.462  1.00  0.00    -0.349 OA
ATOM     35  H1  UNL     1      16.809  -1.901   0.543  1.00  0.00     0.219 HD
ENDBRANCH  30  34
ENDBRANCH  29  30
ENDBRANCH  28  29
ENDBRANCH  27  28
ENDBRANCH  26  27
ENDBRANCH   1  25
TORSDOF 9
ENDMDL
MODEL 2
REMARK VINA RESULT: -5.896180568      5.980      7.357
REMARK  9 active torsions:
REMARK  status: ('A' for Active; 'I' for Inactive)
REMARK    1  A    between atoms: C2_4  and  O1_5 
REMARK    2  A    between atoms: C2_4  and  C3_7 
REMARK    3  A    between atoms: C3_7  and  S1_8 
REMARK    4  A    between atoms: S1_8  and  C4_9 
REMARK    5  A    between atoms: C4_9  and  C5_10 
REMARK    6  A    between atoms: C6_11  and  C7_12 
REMARK    7  A    between atoms: C9_17  and  C10_18 
REMARK    8  A    between atoms: C10_18  and  C11_19 
REMARK    9  A    between atoms: C14_24  and  N4_25 
ROOT
HETATM    1  C7  UNL     1       7.937   3.874  -0.177  1.00  0.00     0.035 C 
HETATM    2  C8  UNL     1       8.679   2.627  -0.642  1.00  0.00     0.241 C 
HETATM    3  N2  UNL     1      10.014   3.096  -0.837  1.00  0.00    -0.070 N 
ATOM      4  H21 UNL     1      10.182   3.486  -1.765  1.00  0.00     0.277 HD
ATOM      5  H22 UNL     1      10.708   2.350  -0.895  1.00  0.00     0.277 HD
HETATM    6  C9  UNL     1      10.249   4.024   0.232  1.00  0.00     0.193 C 
HETATM    7  C20 UNL     1       8.958   4.600   0.693  1.00  0.00     0.043 C 
ENDROOT
BRANCH   6   8
HETATM    8  C10 UNL     1      10.984   3.254   1.339  1.00  0.00     0.109 C 
BRANCH   8   9
HETATM    9  C11 UNL     1      12.251   3.987   1.565  1.00  0.00     0.084 A 
HETATM   10  N3  UNL     1      12.259   5.311   1.352  1.00  0.00    -0.349 N 
HETATM   11  C12 UNL     1      13.385   6.015   1.543  1.00  0.00     0.020 A 
ATOM     12  H3  UNL     1      11.408   5.784   1.045  1.00  0.00     0.167 HD
HETATM   13  C13 UNL     1      14.547   5.341   1.968  1.00  0.00     0.008 A 
HETATM   14  C19 UNL     1      13.229   7.473   1.277  1.00  0.00     0.057 C 
HETATM   15  C14 UNL     1      14.551   4.005   2.187  1.00  0.00     0.108 A 
HETATM   16  C15 UNL     1      15.832   6.018   2.194  1.00  0.00     0.044 C 
HETATM   17  N5  UNL     1      13.352   3.346   1.968  1.00  0.00    -0.332 N 
ATOM     18  H5  UNL     1      13.308   2.338   2.121  1.00  0.00     0.168 HD
HETATM   19  C16 UNL     1      15.675   6.777   3.511  1.00  0.00     0.005 C 
HETATM   20  C17 UNL     1      14.338   7.495   3.548  1.00  0.00     0.001 C 
HETATM   21  C18 UNL     1      14.020   8.241   2.295  1.00  0.00     0.006 C 
BRANCH  15  22
HETATM   22  N4  UNL     1      15.558   3.358   2.584  1.00  0.00    -0.385 N 
ATOM     23  H42 UNL     1      16.306   3.134   1.929  1.00  0.00     0.157 HD
ATOM     24  H41 UNL     1      15.678   3.018   3.538  1.00  0.00     0.157 HD
ENDBRANCH  15  22
ENDBRANCH   8   9
ENDBRANCH   6   8
BRANCH   1  25
HETATM   25  C6  UNL     1       7.663   4.672  -1.393  1.00  0.00    -0.024 C 
HETATM   26  C5  UNL     1       6.577   4.704  -2.108  1.00  0.00    -0.020 C 
BRANCH  26  27
HETATM   27  C4  UNL     1       5.384   3.902  -1.799  1.00  0.00     0.101 C 
BRANCH  27  28
HETATM   28  S1  UNL     1       4.500   3.457  -3.340  1.00  0.00    -0.157 SA
BRANCH  28  29
HETATM   29  C3  UNL     1       5.158   4.457  -4.723  1.00  0.00     0.157 C 
BRANCH  29  30
HETATM   30  C2  UNL     1       4.361   5.692  -4.885  1.00  0.00     0.120 C 
HETATM   31  N1  UNL     1       3.200   5.666  -5.479  1.00  0.00    -0.378 N 
HETATM   32  C1  UNL     1       2.398   6.851  -5.651  1.00  0.00     0.148 C 
ATOM     33  H1  UNL     1       2.848   4.777  -5.835  1.00  0.00     0.160 HD
BRANCH  30  34
HETATM   34  O1  UNL     1       4.814   6.902  -4.417  1.00  0.00    -0.349 OA
ATOM     35  H1  UNL     1       4.242   7.397  -3.841  1.00  0.00     0.219 HD
ENDBRANCH  30  34
ENDBRANCH  29  30
ENDBRANCH  28  29
ENDBRANCH  27  28
ENDBRANCH  26  27
ENDBRANCH   1  25
TORSDOF 9
ENDMDL
MODEL 3
REMARK VINA RESULT: -5.893959274      7.587     10.077
REMARK  9 active torsions:
REMARK  status: ('A' for Active; 'I' for Inactive)
REMARK    1  A    between atoms: C2_4  and  O1_5 
REMARK    2  A    between atoms: C2_4  and  C3_7 
REMARK    3  A    between atoms: C3_7  and  S1_8 
REMARK    4  A    between atoms: S1_8  and  C4_9 
REMARK    5  A    between atoms: C4_9  and  C5_10 
REMARK    6  A    between atoms: C6_11  and  C7_12 
REMARK    7  A    between atoms: C9_17  and  C10_18 
REMARK    8  A    between atoms: C10_18  and  C11_19 
REMARK    9  A    between atoms: C14_24  and  N4_25 
ROOT
HETATM    1  C7  UNL     1       6.979   6.320   3.275  1.00  0.00     0.035 C 
HETATM    2  C8  UNL     1       6.784   6.011   1.795  1.00  0.00     0.241 C 
HETATM    3  N2  UNL     1       8.004   6.464   1.205  1.00  0.00    -0.070 N 
ATOM      4  H21 UNL     1       7.997   7.453   0.953  1.00  0.00     0.277 HD
ATOM      5  H22 UNL     1       8.165   6.104   0.264  1.00  0.00     0.277 HD
HETATM    6  C9  UNL     1       9.031   6.113   2.144  1.00  0.00     0.193 C 
HETATM    7  C20 UNL     1       8.458   6.033   3.513  1.00  0.00     0.043 C 
ENDROOT
BRANCH   6   8
HETATM    8  C10 UNL     1       9.630   4.779   1.672  1.00  0.00     0.109 C 
BRANCH   8   9
HETATM    9  C11 UNL     1      11.096   4.986   1.637  1.00  0.00     0.084 A 
HETATM   10  N3  UNL     1      11.554   6.247   1.660  1.00  0.00    -0.349 N 
HETATM   11  C12 UNL     1      12.875   6.481   1.629  1.00  0.00     0.020 A 
ATOM     12  H3  UNL     1      10.898   7.028   1.701  1.00  0.00     0.167 HD
HETATM   13  C13 UNL     1      13.761   5.387   1.573  1.00  0.00     0.008 A 
HETATM   14  C19 UNL     1      13.224   7.929   1.671  1.00  0.00     0.057 C 
HETATM   15  C14 UNL     1      13.310   4.111   1.550  1.00  0.00     0.108 A 
HETATM   16  C15 UNL     1      15.222   5.538   1.523  1.00  0.00     0.044 C 
HETATM   17  N5  UNL     1      11.935   3.947   1.585  1.00  0.00    -0.332 N 
ATOM     18  H5  UNL     1      11.550   3.002   1.569  1.00  0.00     0.168 HD
HETATM   19  C16 UNL     1      15.647   5.932   2.937  1.00  0.00     0.005 C 
HETATM   20  C17 UNL     1      14.718   7.001   3.486  1.00  0.00     0.001 C 
HETATM   21  C18 UNL     1      14.443   8.110   2.528  1.00  0.00     0.006 C 
BRANCH  15  22
HETATM   22  N4  UNL     1      14.060   3.098   1.519  1.00  0.00    -0.385 N 
ATOM     23  H42 UNL     1      14.251   2.636   0.630  1.00  0.00     0.157 HD
ATOM     24  H41 UNL     1      14.493   2.682   2.344  1.00  0.00     0.157 HD
ENDBRANCH  15  22
ENDBRANCH   8   9
ENDBRANCH   6   8
BRANCH   1  25
HETATM   25  C6  UNL     1       6.722   7.768   3.436  1.00  0.00    -0.024 C 
HETATM   26  C5  UNL     1       6.419   8.416   4.522  1.00  0.00    -0.020 C 
BRANCH  26  27
HETATM   27  C4  UNL     1       6.278   7.769   5.835  1.00  0.00     0.101 C 
BRANCH  27  28
HETATM   28  S1  UNL     1       4.632   8.134   6.550  1.00  0.00    -0.157 SA
BRANCH  28  29
HETATM   29  C3  UNL     1       4.044   9.748   5.921  1.00  0.00     0.157 C 
BRANCH  29  30
HETATM   30  C2  UNL     1       3.364  10.499   6.998  1.00  0.00     0.120 C 
HETATM   31  N1  UNL     1       2.903   9.887   8.053  1.00  0.00    -0.378 N 
HETATM   32  C1  UNL     1       2.237  10.590   9.120  1.00  0.00     0.148 C 
ATOM     33  H1  UNL     1       3.017   8.876   8.125  1.00  0.00     0.160 HD
BRANCH  30  34
HETATM   34  O1  UNL     1       3.197  11.861   6.924  1.00  0.00    -0.349 OA
ATOM     35  H1  UNL     1       3.652  12.326   6.232  1.00  0.00     0.219 HD
ENDBRANCH  30  34
ENDBRANCH  29  30
ENDBRANCH  28  29
ENDBRANCH  27  28
ENDBRANCH  26  27
ENDBRANCH   1  25
TORSDOF 9
ENDMDL
MODEL 4
REMARK VINA RESULT: -5.786201904      4.978      6.833
REMARK  9 active torsions:
REMARK  status: ('A' for Active; 'I' for Inactive)
REMARK    1  A    between atoms: C2_4  and  O1_5 
REMARK    2  A    between atoms: C2_4  and  C3_7 
REMARK    3  A    between atoms: C3_7  and  S1_8 
REMARK    4  A    between atoms: S1_8  and  C4_9 
REMARK    5  A    between atoms: C4_9  and  C5_10 
REMARK    6  A    between atoms: C6_11  and  C7_12 
REMARK    7  A    between atoms: C9_17  and  C10_18 
REMARK    8  A    between atoms: C10_18  and  C11_19 
REMARK    9  A    between atoms: C14_24  and  N4_25 
ROOT
HETATM    1  C7  UNL     1      12.271   4.866   1.723  1.00  0.00     0.035 C 
HETATM    2  C8  UNL     1      11.496   3.634   1.272  1.00  0.00     0.241 C 
HETATM    3  N2  UNL     1      10.358   3.630   2.135  1.00  0.00    -0.070 N 
ATOM      4  H21 UNL     1      10.515   3.151   3.021  1.00  0.00     0.277 HD
ATOM      5  H22 UNL     1       9.597   3.034   1.810  1.00  0.00     0.277 HD
HETATM    6  C9  UNL     1       9.991   5.011   2.281  1.00  0.00     0.193 C 
HETATM    7  C20 UNL     1      11.180   5.875   2.064  1.00  0.00     0.043 C 
ENDROOT
BRANCH   6   8
HETATM    8  C10 UNL     1       8.867   5.283   1.269  1.00  0.00     0.109 C 
BRANCH   8   9
HETATM    9  C11 UNL     1       7.831   6.036   2.012  1.00  0.00     0.084 A 
HETATM   10  N3  UNL     1       7.320   5.478   3.120  1.00  0.00    -0.349 N 
HETATM   11  C12 UNL     1       6.378   6.124   3.824  1.00  0.00     0.020 A 
ATOM     12  H3  UNL     1       7.648   4.562   3.428  1.00  0.00     0.167 HD
HETATM   13  C13 UNL     1       5.942   7.388   3.379  1.00  0.00     0.008 A 
HETATM   14  C19 UNL     1       5.921   5.380   5.032  1.00  0.00     0.057 C 
HETATM   15  C14 UNL     1       6.450   7.961   2.264  1.00  0.00     0.108 A 
HETATM   16  C15 UNL     1       4.908   8.170   4.072  1.00  0.00     0.044 C 
HETATM   17  N5  UNL     1       7.419   7.235   1.590  1.00  0.00    -0.332 N 
ATOM     18  H5  UNL     1       7.830   7.628   0.743  1.00  0.00     0.168 HD
HETATM   19  C16 UNL     1       5.582   8.736   5.321  1.00  0.00     0.005 C 
HETATM   20  C17 UNL     1       6.410   7.661   6.004  1.00  0.00     0.001 C 
HETATM   21  C18 UNL     1       5.701   6.357   6.149  1.00  0.00     0.006 C 
BRANCH  15  22
HETATM   22  N4  UNL     1       6.107   9.096   1.835  1.00  0.00    -0.385 N 
ATOM     23  H42 UNL     1       5.399   9.634   2.334  1.00  0.00     0.157 HD
ATOM     24  H41 UNL     1       6.486   9.526   0.990  1.00  0.00     0.157 HD
ENDBRANCH  15  22
ENDBRANCH   8   9
ENDBRANCH   6   8
BRANCH   1  25
HETATM   25  C6  UNL     1      12.991   4.476   2.956  1.00  0.00    -0.024 C 
HETATM   26  C5  UNL     1      14.259   4.227   3.103  1.00  0.00    -0.020 C 
BRANCH  26  27
HETATM   27  C4  UNL     1      15.229   4.298   2.000  1.00  0.00     0.101 C 
BRANCH  27  28
HETATM   28  S1  UNL     1      15.950   2.645   1.680  1.00  0.00    -0.157 SA
BRANCH  28  29
HETATM   29  C3  UNL     1      15.254   1.974   0.127  1.00  0.00     0.157 C 
BRANCH  29  30
HETATM   30  C2  UNL     1      15.523   0.522   0.033  1.00  0.00     0.120 C 
HETATM   31  N1  UNL     1      15.418  -0.106  -1.105  1.00  0.00    -0.378 N 
HETATM   32  C1  UNL     1      15.673  -1.518  -1.230  1.00  0.00     0.148 C 
ATOM     33  H1  UNL     1      15.144   0.421  -1.935  1.00  0.00     0.160 HD
BRANCH  30  34
HETATM   34  O1  UNL     1      15.890  -0.210   1.137  1.00  0.00    -0.349 OA
ATOM     35  H1  UNL     1      16.146   0.266   1.919  1.00  0.00     0.219 HD
ENDBRANCH  30  34
ENDBRANCH  29  30
ENDBRANCH  28  29
ENDBRANCH  27  28
ENDBRANCH  26  27
ENDBRANCH   1  25
TORSDOF 9
ENDMDL
MODEL 5
REMARK VINA RESULT: -5.746887990      7.181      9.598
REMARK  9 active torsions:
REMARK  status: ('A' for Active; 'I' for Inactive)
REMARK    1  A    between atoms: C2_4  and  O1_5 
REMARK    2  A    between atoms: C2_4  and  C3_7 
REMARK    3  A    between atoms: C3_7  and  S1_8 
REMARK    4  A    between atoms: S1_8  and  C4_9 
REMARK    5  A    between atoms: C4_9  and  C5_10 
REMARK    6  A    between atoms: C6_11  and  C7_12 
REMARK    7  A    between atoms: C9_17  and  C10_18 
REMARK    8  A    between atoms: C10_18  and  C11_19 
REMARK    9  A    between atoms: C14_24  and  N4_25 
ROOT
HETATM    1  C7  UNL     1       7.120   6.089   3.391  1.00  0.00     0.035 C 
HETATM    2  C8  UNL     1       6.916   5.759   1.917  1.00  0.00     0.241 C 
HETATM    3  N2  UNL     1       8.109   6.251   1.305  1.00  0.00    -0.070 N 
ATOM      4  H21 UNL     1       8.062   7.236   1.045  1.00  0.00     0.277 HD
ATOM      5  H22 UNL     1       8.271   5.887   0.366  1.00  0.00     0.277 HD
HETATM    6  C9  UNL     1       9.162   5.948   2.233  1.00  0.00     0.193 C 
HETATM    7  C20 UNL     1       8.611   5.860   3.611  1.00  0.00     0.043 C 
ENDROOT
BRANCH   6   8
HETATM    8  C10 UNL     1       9.804   4.633   1.766  1.00  0.00     0.109 C 
BRANCH   8   9
HETATM    9  C11 UNL     1      11.258   4.900   1.690  1.00  0.00     0.084 A 
HETATM   10  N3  UNL     1      11.665   6.179   1.702  1.00  0.00    -0.349 N 
HETATM   11  C12 UNL     1      12.974   6.467   1.634  1.00  0.00     0.020 A 
ATOM     12  H3  UNL     1      10.979   6.932   1.763  1.00  0.00     0.167 HD
HETATM   13  C13 UNL     1      13.902   5.410   1.549  1.00  0.00     0.008 A 
HETATM   14  C19 UNL     1      13.264   7.928   1.670  1.00  0.00     0.057 C 
HETATM   15  C14 UNL     1      13.504   4.117   1.537  1.00  0.00     0.108 A 
HETATM   16  C15 UNL     1      15.354   5.621   1.459  1.00  0.00     0.044 C 
HETATM   17  N5  UNL     1      12.138   3.896   1.610  1.00  0.00    -0.332 N 
ATOM     18  H5  UNL     1      11.792   2.937   1.604  1.00  0.00     0.168 HD
HETATM   19  C16 UNL     1      15.803   6.031   2.860  1.00  0.00     0.005 C 
HETATM   20  C17 UNL     1      14.846   7.060   3.439  1.00  0.00     0.001 C 
HETATM   21  C18 UNL     1      14.499   8.158   2.491  1.00  0.00     0.006 C 
BRANCH  15  22
HETATM   22  N4  UNL     1      14.294   3.135   1.482  1.00  0.00    -0.385 N 
ATOM     23  H42 UNL     1      15.264   3.250   1.774  1.00  0.00     0.157 HD
ATOM     24  H41 UNL     1      14.032   2.210   1.143  1.00  0.00     0.157 HD
ENDBRANCH  15  22
ENDBRANCH   8   9
ENDBRANCH   6   8
BRANCH   1  25
HETATM   25  C6  UNL     1       6.810   7.528   3.542  1.00  0.00    -0.024 C 
HETATM   26  C5  UNL     1       6.476   8.171   4.622  1.00  0.00    -0.020 C 
BRANCH  26  27
HETATM   27  C4  UNL     1       6.347   7.526   5.937  1.00  0.00     0.101 C 
BRANCH  27  28
HETATM   28  S1  UNL     1       4.775   8.022   6.737  1.00  0.00    -0.157 SA
BRANCH  28  29
HETATM   29  C3  UNL     1       4.351   9.727   6.228  1.00  0.00     0.157 C 
BRANCH  29  30
HETATM   30  C2  UNL     1       3.166   9.717   5.343  1.00  0.00     0.120 C 
HETATM   31  N1  UNL     1       2.738   8.605   4.812  1.00  0.00    -0.378 N 
HETATM   32  C1  UNL     1       1.586   8.561   3.947  1.00  0.00     0.148 C 
ATOM     33  H1  UNL     1       3.235   7.738   5.016  1.00  0.00     0.160 HD
BRANCH  30  34
HETATM   34  O1  UNL     1       2.481  10.871   5.051  1.00  0.00    -0.349 OA
ATOM     35  H1  UNL     1       2.182  11.405   5.779  1.00  0.00     0.219 HD
ENDBRANCH  30  34
ENDBRANCH  29  30
ENDBRANCH  28  29
ENDBRANCH  27  28
ENDBRANCH  26  27
ENDBRANCH   1  25
TORSDOF 9
ENDMDL
