MODEL 1
REMARK VINA RESULT: -5.065553037      0.000      0.000
REMARK  1 active torsions:
REMARK  status: ('A' for Active; 'I' for Inactive)
REMARK    1  A    between atoms: C1_2  and  C2_4 
ROOT
HETATM    1  C2  UNL     1      13.788   9.337  -2.936  1.00  0.00     0.044 C 
HETATM    2  C3  UNL     1      15.246   9.693  -2.954  1.00  0.00     0.011 C 
HETATM    3  C4  UNL     1      15.723  10.392  -1.729  1.00  0.00     0.001 C 
HETATM    4  C5  UNL     1      14.906  10.079  -0.498  1.00  0.00     0.000 C 
HETATM    5  C6  UNL     1      13.505  10.523  -0.737  1.00  0.00     0.001 C 
HETATM    6  C7  UNL     1      12.954  10.224  -2.072  1.00  0.00     0.011 C 
ENDROOT
BRANCH   1   7
HETATM    7  C1  UNL     1      13.290   9.527  -4.347  1.00  0.00     0.094 C 
HETATM    8  N1  UNL     1      14.283   9.838  -5.325  1.00  0.00    -0.094 NA
HETATM    9  S1  UNL     1      11.714   9.385  -4.728  1.00  0.00    -0.068 SA
ENDBRANCH   1   7
TORSDOF 1
ENDMDL
MODEL 2
REMARK VINA RESULT: -5.049486112      0.553      1.729
REMARK  1 active torsions:
REMARK  status: ('A' for Active; 'I' for Inactive)
REMARK    1  A    between atoms: C1_2  and  C2_4 
ROOT
HETATM    1  C2  UNL     1      13.954  10.407  -3.043  1.00  0.00     0.044 C 
HETATM    2  C3  UNL     1      12.871  10.144  -2.039  1.00  0.00     0.011 C 
HETATM    3  C4  UNL     1      13.360   9.936  -0.648  1.00  0.00     0.001 C 
HETATM    4  C5  UNL     1      14.680  10.611  -0.364  1.00  0.00     0.000 C 
HETATM    5  C6  UNL     1      15.708  10.039  -1.278  1.00  0.00     0.001 C 
HETATM    6  C7  UNL     1      15.282   9.830  -2.675  1.00  0.00     0.011 C 
ENDROOT
BRANCH   1   7
HETATM    7  C1  UNL     1      13.528   9.716  -4.314  1.00  0.00     0.094 C 
HETATM    8  N1  UNL     1      14.543   9.543  -5.304  1.00  0.00    -0.094 NA
HETATM    9  S1  UNL     1      12.000   9.200  -4.541  1.00  0.00    -0.068 SA
ENDBRANCH   1   7
TORSDOF 1
ENDMDL
MODEL 3
REMARK VINA RESULT: -4.902577491      2.679      3.586
REMARK  1 active torsions:
REMARK  status: ('A' for Active; 'I' for Inactive)
REMARK    1  A    between atoms: C1_2  and  C2_4 
ROOT
HETATM    1  C2  UNL     1      14.122  10.692  -2.167  1.00  0.00     0.044 C 
HETATM    2  C3  UNL     1      15.209   9.998  -2.934  1.00  0.00     0.011 C 
HETATM    3  C4  UNL     1      14.728   9.202  -4.097  1.00  0.00     0.001 C 
HETATM    4  C5  UNL     1      13.423   9.698  -4.671  1.00  0.00     0.000 C 
HETATM    5  C6  UNL     1      12.377   9.602  -3.614  1.00  0.00     0.001 C 
HETATM    6  C7  UNL     1      12.788  10.028  -2.262  1.00  0.00     0.011 C 
ENDROOT
BRANCH   1   7
HETATM    7  C1  UNL     1      14.525  10.630  -0.715  1.00  0.00     0.094 C 
HETATM    8  N1  UNL     1      15.746  11.287  -0.375  1.00  0.00    -0.094 NA
HETATM    9  S1  UNL     1      13.619   9.858   0.396  1.00  0.00    -0.068 SA
ENDBRANCH   1   7
TORSDOF 1
ENDMDL
MODEL 4
REMARK VINA RESULT: -4.858045685      2.754      3.933
REMARK  1 active torsions:
REMARK  status: ('A' for Active; 'I' for Inactive)
REMARK    1  A    between atoms: C1_2  and  C2_4 
ROOT
HETATM    1  C2  UNL     1      14.526   9.542  -1.762  1.00  0.00     0.044 C 
HETATM    2  C3  UNL     1      13.092   9.686  -2.179  1.00  0.00     0.011 C 
HETATM    3  C4  UNL     1      12.887   9.791  -3.650  1.00  0.00     0.001 C 
HETATM    4  C5  UNL     1      13.980   9.138  -4.461  1.00  0.00     0.000 C 
HETATM    5  C6  UNL     1      15.269   9.817  -4.150  1.00  0.00     0.001 C 
HETATM    6  C7  UNL     1      15.504  10.128  -2.727  1.00  0.00     0.011 C 
ENDROOT
BRANCH   1   7
HETATM    7  C1  UNL     1      14.673  10.323  -0.480  1.00  0.00     0.094 C 
HETATM    8  N1  UNL     1      15.744  11.268  -0.441  1.00  0.00    -0.094 NA
HETATM    9  S1  UNL     1      13.670  10.100   0.782  1.00  0.00    -0.068 SA
ENDBRANCH   1   7
TORSDOF 1
ENDMDL
MODEL 5
REMARK VINA RESULT: -4.854084021      3.191      4.277
REMARK  1 active torsions:
REMARK  status: ('A' for Active; 'I' for Inactive)
REMARK    1  A    between atoms: C1_2  and  C2_4 
ROOT
HETATM    1  C2  UNL     1      14.984   9.660  -0.980  1.00  0.00     0.044 C 
HETATM    2  C3  UNL     1      13.515   9.966  -0.995  1.00  0.00     0.011 C 
HETATM    3  C4  UNL     1      12.935  10.125  -2.357  1.00  0.00     0.001 C 
HETATM    4  C5  UNL     1      13.691   9.376  -3.428  1.00  0.00     0.000 C 
HETATM    5  C6  UNL     1      15.082   9.905  -3.481  1.00  0.00     0.001 C 
HETATM    6  C7  UNL     1      15.724  10.158  -2.177  1.00  0.00     0.011 C 
ENDROOT
BRANCH   1   7
HETATM    7  C1  UNL     1      15.555  10.392   0.209  1.00  0.00     0.094 C 
HETATM    8  N1  UNL     1      16.460  11.457  -0.086  1.00  0.00    -0.094 NA
HETATM    9  S1  UNL     1      15.160   9.990   1.737  1.00  0.00    -0.068 SA
ENDBRANCH   1   7
TORSDOF 1
ENDMDL
