MODEL 1
REMARK VINA RESULT: -7.789909780      0.000      0.000
REMARK  5 active torsions:
REMARK  status: ('A' for Active; 'I' for Inactive)
REMARK    1  A    between atoms: O1_2  and  C2_3 
REMARK    2  A    between atoms: C2_3  and  C3_5 
REMARK    3  A    between atoms: C4_8  and  O3_9 
REMARK    4  A    between atoms: N2_14  and  O5_15 
REMARK    5  A    between atoms: C10_24  and  O6_25 
ROOT
HETATM    1  C3  UNL     1      17.467  11.403   0.322  1.00  0.00     0.146 A 
HETATM    2  N1  UNL     1      16.771  10.925  -0.722  1.00  0.00    -0.329 N 
ATOM      3  H1  UNL     1      17.118  11.085  -1.667  1.00  0.00     0.168 HD
HETATM    4  C4  UNL     1      15.615  10.234  -0.548  1.00  0.00     0.161 A 
HETATM    5  C6  UNL     1      15.096   9.986   0.700  1.00  0.00     0.116 A 
HETATM    6  C7  UNL     1      13.919   9.281   0.836  1.00  0.00     0.305 A 
HETATM    7  O4  UNL     1      13.284   8.841  -0.179  1.00  0.00    -0.264 OA
HETATM    8  N2  UNL     1      13.459   9.068   2.090  1.00  0.00    -0.013 N 
HETATM    9  C8  UNL     1      14.150   9.544   3.158  1.00  0.00     0.706 A 
HETATM   10  N3  UNL     1      13.688   9.327   4.355  1.00  0.00    -0.232 N 
ATOM     11  H31 UNL     1      14.207   9.684   5.157  1.00  0.00     0.174 HD
ATOM     12  H32 UNL     1      12.818   8.806   4.466  1.00  0.00     0.174 HD
HETATM   13  N4  UNL     1      15.297  10.231   3.011  1.00  0.00    -0.186 N 
ATOM     14  H4  UNL     1      15.790  10.573   3.836  1.00  0.00     0.184 HD
HETATM   15  C9  UNL     1      15.800  10.471   1.789  1.00  0.00     0.105 A 
HETATM   16  C10 UNL     1      16.973  11.171   1.587  1.00  0.00     0.127 A 
ENDROOT
BRANCH   1  17
HETATM   17  C2  UNL     1      18.722  12.153   0.125  1.00  0.00     0.312 C 
HETATM   18  O2  UNL     1      18.743  13.409   0.141  1.00  0.00    -0.258 OA
BRANCH  17  19
HETATM   19  O1  UNL     1      19.913  11.498  -0.084  1.00  0.00    -0.321 OA
HETATM   20  C1  UNL     1      20.793  11.137   0.944  1.00  0.00     0.213 C 
ENDBRANCH  17  19
ENDBRANCH   1  17
BRANCH  16  21
HETATM   21  O6  UNL     1      17.704  11.671   2.646  1.00  0.00    -0.356 OA
ATOM     22  H6  UNL     1      17.543  12.574   2.892  1.00  0.00     0.218 HD
ENDBRANCH  16  21
BRANCH   4  23
HETATM   23  O3  UNL     1      14.888   9.736  -1.626  1.00  0.00    -0.340 OA
HETATM   24  C5  UNL     1      15.327  10.078  -2.933  1.00  0.00     0.211 C 
ENDBRANCH   4  23
BRANCH   8  25
HETATM   25  O5  UNL     1      12.290   8.368   2.242  1.00  0.00    -0.266 OA
ATOM     26  H5  UNL     1      11.578   8.780   2.715  1.00  0.00     0.246 HD
ENDBRANCH   8  25
TORSDOF 5
ENDMDL
MODEL 2
REMARK VINA RESULT: -7.568021507      2.259      4.431
REMARK  5 active torsions:
REMARK  status: ('A' for Active; 'I' for Inactive)
REMARK    1  A    between atoms: O1_2  and  C2_3 
REMARK    2  A    between atoms: C2_3  and  C3_5 
REMARK    3  A    between atoms: C4_8  and  O3_9 
REMARK    4  A    between atoms: N2_14  and  O5_15 
REMARK    5  A    between atoms: C10_24  and  O6_25 
ROOT
HETATM    1  C3  UNL     1      16.446  10.736   0.487  1.00  0.00     0.146 A 
HETATM    2  N1  UNL     1      15.248  10.256   0.861  1.00  0.00    -0.329 N 
ATOM      3  H1  UNL     1      15.040  10.155   1.854  1.00  0.00     0.168 HD
HETATM    4  C4  UNL     1      14.309   9.902  -0.053  1.00  0.00     0.161 A 
HETATM    5  C6  UNL     1      14.529  10.015  -1.405  1.00  0.00     0.116 A 
HETATM    6  C7  UNL     1      13.550   9.644  -2.302  1.00  0.00     0.305 A 
HETATM    7  O4  UNL     1      12.423   9.193  -1.911  1.00  0.00    -0.264 OA
HETATM    8  N2  UNL     1      13.826   9.778  -3.619  1.00  0.00    -0.013 N 
HETATM    9  C8  UNL     1      15.032  10.262  -4.016  1.00  0.00     0.706 A 
HETATM   10  N3  UNL     1      15.275  10.382  -5.289  1.00  0.00    -0.232 N 
ATOM     11  H31 UNL     1      16.180  10.745  -5.587  1.00  0.00     0.174 HD
ATOM     12  H32 UNL     1      14.557  10.111  -5.960  1.00  0.00     0.174 HD
HETATM   13  N4  UNL     1      15.978  10.619  -3.130  1.00  0.00    -0.186 N 
ATOM     14  H4  UNL     1      16.872  10.978  -3.464  1.00  0.00     0.184 HD
HETATM   15  C9  UNL     1      15.758  10.507  -1.810  1.00  0.00     0.105 A 
HETATM   16  C10 UNL     1      16.698  10.860  -0.862  1.00  0.00     0.127 A 
ENDROOT
BRANCH   1  17
HETATM   17  C2  UNL     1      17.462  11.117   1.486  1.00  0.00     0.312 C 
HETATM   18  O2  UNL     1      17.255  12.041   2.311  1.00  0.00    -0.258 OA
BRANCH  17  19
HETATM   19  O1  UNL     1      18.676  10.472   1.543  1.00  0.00    -0.321 OA
HETATM   20  C1  UNL     1      18.937   9.380   2.378  1.00  0.00     0.213 C 
ENDBRANCH  17  19
ENDBRANCH   1  17
BRANCH  16  21
HETATM   21  O6  UNL     1      17.935  11.355  -1.225  1.00  0.00    -0.356 OA
ATOM     22  H6  UNL     1      17.944  12.120  -1.786  1.00  0.00     0.218 HD
ENDBRANCH  16  21
BRANCH   4  23
HETATM   23  O3  UNL     1      13.065   9.404   0.328  1.00  0.00    -0.340 OA
HETATM   24  C5  UNL     1      12.902   9.000   1.679  1.00  0.00     0.211 C 
ENDBRANCH   4  23
BRANCH   8  25
HETATM   25  O5  UNL     1      12.863   9.415  -4.524  1.00  0.00    -0.266 OA
ATOM     26  H5  UNL     1      12.972   9.683  -5.429  1.00  0.00     0.246 HD
ENDBRANCH   8  25
TORSDOF 5
ENDMDL
MODEL 3
REMARK VINA RESULT: -7.545639722      2.977      5.179
REMARK  5 active torsions:
REMARK  status: ('A' for Active; 'I' for Inactive)
REMARK    1  A    between atoms: O1_2  and  C2_3 
REMARK    2  A    between atoms: C2_3  and  C3_5 
REMARK    3  A    between atoms: C4_8  and  O3_9 
REMARK    4  A    between atoms: N2_14  and  O5_15 
REMARK    5  A    between atoms: C10_24  and  O6_25 
ROOT
HETATM    1  C3  UNL     1      15.249   9.855   2.030  1.00  0.00     0.146 A 
HETATM    2  N1  UNL     1      16.404   9.221   2.290  1.00  0.00    -0.329 N 
ATOM      3  H1  UNL     1      17.006   8.944   1.514  1.00  0.00     0.168 HD
HETATM    4  C4  UNL     1      16.789   8.940   3.561  1.00  0.00     0.161 A 
HETATM    5  C6  UNL     1      16.024   9.288   4.647  1.00  0.00     0.116 A 
HETATM    6  C7  UNL     1      16.448   8.985   5.924  1.00  0.00     0.305 A 
HETATM    7  O4  UNL     1      17.553   8.381   6.134  1.00  0.00    -0.264 OA
HETATM    8  N2  UNL     1      15.651   9.352   6.952  1.00  0.00    -0.013 N 
HETATM    9  C8  UNL     1      14.479   9.995   6.709  1.00  0.00     0.706 A 
HETATM   10  N3  UNL     1      13.729  10.339   7.714  1.00  0.00    -0.232 N 
ATOM     11  H31 UNL     1      12.849  10.822   7.531  1.00  0.00     0.174 HD
ATOM     12  H32 UNL     1      14.035  10.120   8.662  1.00  0.00     0.174 HD
HETATM   13  N4  UNL     1      14.076  10.284   5.459  1.00  0.00    -0.186 N 
ATOM     14  H4  UNL     1      13.191  10.768   5.313  1.00  0.00     0.184 HD
HETATM   15  C9  UNL     1      14.829   9.942   4.400  1.00  0.00     0.105 A 
HETATM   16  C10 UNL     1      14.458  10.216   3.099  1.00  0.00     0.127 A 
ENDROOT
BRANCH   1  17
HETATM   17  C2  UNL     1      14.837  10.156   0.646  1.00  0.00     0.312 C 
HETATM   18  O2  UNL     1      15.539  10.877  -0.104  1.00  0.00    -0.258 OA
BRANCH  17  19
HETATM   19  O1  UNL     1      13.662   9.655   0.133  1.00  0.00    -0.321 OA
HETATM   20  C1  UNL     1      13.166   9.982  -1.134  1.00  0.00     0.213 C 
ENDBRANCH  17  19
ENDBRANCH   1  17
BRANCH  16  21
HETATM   21  O6  UNL     1      13.275  10.867   2.810  1.00  0.00    -0.356 OA
ATOM     22  H6  UNL     1      13.342  11.754   2.477  1.00  0.00     0.218 HD
ENDBRANCH  16  21
BRANCH   4  23
HETATM   23  O3  UNL     1      17.986   8.283   3.837  1.00  0.00    -0.340 OA
HETATM   24  C5  UNL     1      19.139   8.677   3.108  1.00  0.00     0.211 C 
ENDBRANCH   4  23
BRANCH   8  25
HETATM   25  O5  UNL     1      16.060   9.059   8.227  1.00  0.00    -0.266 OA
ATOM     26  H5  UNL     1      16.987   9.112   8.425  1.00  0.00     0.246 HD
ENDBRANCH   8  25
TORSDOF 5
ENDMDL
MODEL 4
REMARK VINA RESULT: -7.507442627      2.168      4.542
REMARK  5 active torsions:
REMARK  status: ('A' for Active; 'I' for Inactive)
REMARK    1  A    between atoms: O1_2  and  C2_3 
REMARK    2  A    between atoms: C2_3  and  C3_5 
REMARK    3  A    between atoms: C4_8  and  O3_9 
REMARK    4  A    between atoms: N2_14  and  O5_15 
REMARK    5  A    between atoms: C10_24  and  O6_25 
ROOT
HETATM    1  C3  UNL     1      16.412  10.721   0.639  1.00  0.00     0.146 A 
HETATM    2  N1  UNL     1      15.212  10.232   0.992  1.00  0.00    -0.329 N 
ATOM      3  H1  UNL     1      14.991  10.118   1.981  1.00  0.00     0.168 HD
HETATM    4  C4  UNL     1      14.285   9.886   0.062  1.00  0.00     0.161 A 
HETATM    5  C6  UNL     1      14.521  10.016  -1.285  1.00  0.00     0.116 A 
HETATM    6  C7  UNL     1      13.555   9.654  -2.199  1.00  0.00     0.305 A 
HETATM    7  O4  UNL     1      12.425   9.193  -1.828  1.00  0.00    -0.264 OA
HETATM    8  N2  UNL     1      13.847   9.804  -3.511  1.00  0.00    -0.013 N 
HETATM    9  C8  UNL     1      15.056  10.297  -3.887  1.00  0.00     0.706 A 
HETATM   10  N3  UNL     1      15.314  10.434  -5.155  1.00  0.00    -0.232 N 
ATOM     11  H31 UNL     1      16.222  10.804  -5.437  1.00  0.00     0.174 HD
ATOM     12  H32 UNL     1      14.605  10.169  -5.839  1.00  0.00     0.174 HD
HETATM   13  N4  UNL     1      15.990  10.647  -2.985  1.00  0.00    -0.186 N 
ATOM     14  H4  UNL     1      16.887  11.014  -3.303  1.00  0.00     0.184 HD
HETATM   15  C9  UNL     1      15.754  10.518  -1.669  1.00  0.00     0.105 A 
HETATM   16  C10 UNL     1      16.680  10.862  -0.705  1.00  0.00     0.127 A 
ENDROOT
BRANCH   1  17
HETATM   17  C2  UNL     1      17.414  11.093   1.655  1.00  0.00     0.312 C 
HETATM   18  O2  UNL     1      18.457  10.415   1.826  1.00  0.00    -0.258 OA
BRANCH  17  19
HETATM   19  O1  UNL     1      17.237  12.201   2.451  1.00  0.00    -0.321 OA
HETATM   20  C1  UNL     1      16.664  12.157   3.728  1.00  0.00     0.213 C 
ENDBRANCH  17  19
ENDBRANCH   1  17
BRANCH  16  21
HETATM   21  O6  UNL     1      17.920  11.366  -1.046  1.00  0.00    -0.356 OA
ATOM     22  H6  UNL     1      18.033  11.660  -1.942  1.00  0.00     0.218 HD
ENDBRANCH  16  21
BRANCH   4  23
HETATM   23  O3  UNL     1      13.038   9.379   0.421  1.00  0.00    -0.340 OA
HETATM   24  C5  UNL     1      12.861   8.954   1.765  1.00  0.00     0.211 C 
ENDBRANCH   4  23
BRANCH   8  25
HETATM   25  O5  UNL     1      12.896   9.450  -4.433  1.00  0.00    -0.266 OA
ATOM     26  H5  UNL     1      12.843   8.539  -4.696  1.00  0.00     0.246 HD
ENDBRANCH   8  25
TORSDOF 5
ENDMDL
MODEL 5
REMARK VINA RESULT: -7.388195249      2.271      5.219
REMARK  5 active torsions:
REMARK  status: ('A' for Active; 'I' for Inactive)
REMARK    1  A    between atoms: O1_2  and  C2_3 
REMARK    2  A    between atoms: C2_3  and  C3_5 
REMARK    3  A    between atoms: C4_8  and  O3_9 
REMARK    4  A    between atoms: N2_14  and  O5_15 
REMARK    5  A    between atoms: C10_24  and  O6_25 
ROOT
HETATM    1  C3  UNL     1      14.771   9.753   2.617  1.00  0.00     0.146 A 
HETATM    2  N1  UNL     1      15.998  10.113   2.205  1.00  0.00    -0.329 N 
ATOM      3  H1  UNL     1      16.745  10.210   2.892  1.00  0.00     0.168 HD
HETATM    4  C4  UNL     1      16.265  10.351   0.896  1.00  0.00     0.161 A 
HETATM    5  C6  UNL     1      15.301  10.237  -0.077  1.00  0.00     0.116 A 
HETATM    6  C7  UNL     1      15.612  10.487  -1.397  1.00  0.00     0.305 A 
HETATM    7  O4  UNL     1      16.789  10.826  -1.752  1.00  0.00    -0.264 OA
HETATM    8  N2  UNL     1      14.621  10.358  -2.308  1.00  0.00    -0.013 N 
HETATM    9  C8  UNL     1      13.374   9.994  -1.909  1.00  0.00     0.706 A 
HETATM   10  N3  UNL     1      12.436   9.877  -2.804  1.00  0.00    -0.232 N 
ATOM     11  H31 UNL     1      11.500   9.603  -2.505  1.00  0.00     0.174 HD
ATOM     12  H32 UNL     1      12.656  10.059  -3.783  1.00  0.00     0.174 HD
HETATM   13  N4  UNL     1      13.084   9.754  -0.619  1.00  0.00    -0.186 N 
ATOM     14  H4  UNL     1      12.137   9.482  -0.356  1.00  0.00     0.184 HD
HETATM   15  C9  UNL     1      14.030   9.867   0.329  1.00  0.00     0.105 A 
HETATM   16  C10 UNL     1      13.782   9.630   1.666  1.00  0.00     0.127 A 
ENDROOT
BRANCH   1  17
HETATM   17  C2  UNL     1      14.487   9.497   4.042  1.00  0.00     0.312 C 
HETATM   18  O2  UNL     1      14.007   8.403   4.427  1.00  0.00    -0.258 OA
BRANCH  17  19
HETATM   19  O1  UNL     1      14.740  10.455   4.997  1.00  0.00    -0.321 OA
HETATM   20  C1  UNL     1      14.521  10.264   6.366  1.00  0.00     0.213 C 
ENDBRANCH  17  19
ENDBRANCH   1  17
BRANCH  16  21
HETATM   21  O6  UNL     1      12.528   9.260   2.110  1.00  0.00    -0.356 OA
ATOM     22  H6  UNL     1      12.213   8.404   1.845  1.00  0.00     0.218 HD
ENDBRANCH  16  21
BRANCH   4  23
HETATM   23  O3  UNL     1      17.535  10.724   0.462  1.00  0.00    -0.340 OA
HETATM   24  C5  UNL     1      18.302  11.565   1.312  1.00  0.00     0.211 C 
ENDBRANCH   4  23
BRANCH   8  25
HETATM   25  O5  UNL     1      14.913  10.602  -3.624  1.00  0.00    -0.266 OA
ATOM     26  H5  UNL     1      15.815  10.790  -3.857  1.00  0.00     0.246 HD
ENDBRANCH   8  25
TORSDOF 5
ENDMDL
