MODEL 1
REMARK VINA RESULT: -8.209003840      0.000      0.000
REMARK  3 active torsions:
REMARK  status: ('A' for Active; 'I' for Inactive)
REMARK    1  A    between atoms: C3_5  and  N2_6 
REMARK    2  A    between atoms: N2_6  and  C4_8 
REMARK    3  A    between atoms: C8_17  and  N5_18 
ROOT
HETATM    1  C1  UNL     1       1.178   4.599  67.465  1.00  0.00     0.070 C 
HETATM    2  C2  UNL     1       2.400   4.293  68.248  1.00  0.00     0.031 A 
HETATM    3  N1  UNL     1       3.688   4.207  67.811  1.00  0.00    -0.342 N 
ATOM      4  H1  UNL     1       3.995   4.347  66.848  1.00  0.00     0.167 HD
HETATM    5  C3  UNL     1       4.489   3.908  68.845  1.00  0.00     0.147 A 
HETATM    6  C9  UNL     1       3.744   3.791  69.996  1.00  0.00     0.182 A 
HETATM    7  F1  UNL     1       4.121   3.507  71.247  1.00  0.00    -0.200 F 
HETATM    8  C10 UNL     1       2.422   4.037  69.600  1.00  0.00     0.109 A 
HETATM    9  C11 UNL     1       1.274   4.025  70.465  1.00  0.00     0.104 C 
HETATM   10  N6  UNL     1       0.357   4.029  71.172  1.00  0.00    -0.191 NA
ENDROOT
BRANCH   5  11
HETATM   11  N2  UNL     1       5.892   3.743  68.751  1.00  0.00    -0.336 N 
ATOM     12  H2  UNL     1       6.442   4.492  68.332  1.00  0.00     0.168 HD
BRANCH  11  13
HETATM   13  C4  UNL     1       6.567   2.587  69.211  1.00  0.00     0.088 A 
HETATM   14  C5  UNL     1       6.491   1.405  68.534  1.00  0.00     0.009 A 
HETATM   15  C6  UNL     1       5.697   1.290  67.287  1.00  0.00     0.054 C 
HETATM   16  C7  UNL     1       7.149   0.247  68.965  1.00  0.00     0.126 A 
HETATM   17 CL1  UNL     1       7.010  -1.236  68.048  1.00  0.00    -0.062 Cl
HETATM   18  N3  UNL     1       7.869   0.345  70.091  1.00  0.00    -0.288 N 
HETATM   19  N4  UNL     1       7.969   1.473  70.780  1.00  0.00    -0.283 N 
ATOM     20  H3  UNL     1       8.361  -0.481  70.433  1.00  0.00     0.188 HD
HETATM   21  C8  UNL     1       7.338   2.602  70.376  1.00  0.00     0.141 A 
ATOM     22  H4  UNL     1       8.531   1.491  71.631  1.00  0.00     0.188 HD
BRANCH  21  23
HETATM   23  N5  UNL     1       7.417   3.710  71.024  1.00  0.00    -0.383 N 
ATOM     24  H52 UNL     1       6.724   3.994  71.716  1.00  0.00     0.157 HD
ATOM     25  H51 UNL     1       8.212   4.317  70.825  1.00  0.00     0.157 HD
ENDBRANCH  21  23
ENDBRANCH  11  13
ENDBRANCH   5  11
TORSDOF 3
ENDMDL
MODEL 2
REMARK VINA RESULT: -7.669383109      1.554      1.948
REMARK  3 active torsions:
REMARK  status: ('A' for Active; 'I' for Inactive)
REMARK    1  A    between atoms: C3_5  and  N2_6 
REMARK    2  A    between atoms: N2_6  and  C4_8 
REMARK    3  A    between atoms: C8_17  and  N5_18 
ROOT
HETATM    1  C1  UNL     1       1.196   3.880  70.855  1.00  0.00     0.070 C 
HETATM    2  C2  UNL     1       2.296   3.968  69.865  1.00  0.00     0.031 A 
HETATM    3  N1  UNL     1       3.634   3.800  70.065  1.00  0.00    -0.342 N 
ATOM      4  H1  UNL     1       4.074   3.582  70.959  1.00  0.00     0.167 HD
HETATM    5  C3  UNL     1       4.281   3.966  68.902  1.00  0.00     0.147 A 
HETATM    6  C9  UNL     1       3.382   4.248  67.900  1.00  0.00     0.182 A 
HETATM    7  F1  UNL     1       3.579   4.484  66.600  1.00  0.00    -0.200 F 
HETATM    8  C10 UNL     1       2.128   4.246  68.527  1.00  0.00     0.109 A 
HETATM    9  C11 UNL     1       0.868   4.494  67.880  1.00  0.00     0.104 C 
HETATM   10  N6  UNL     1      -0.143   4.679  67.347  1.00  0.00    -0.191 NA
ENDROOT
BRANCH   5  11
HETATM   11  N2  UNL     1       5.685   3.862  68.744  1.00  0.00    -0.336 N 
ATOM     12  H2  UNL     1       6.187   4.646  68.329  1.00  0.00     0.168 HD
BRANCH  11  13
HETATM   13  C4  UNL     1       6.423   2.720  69.133  1.00  0.00     0.088 A 
HETATM   14  C5  UNL     1       6.452   1.595  68.361  1.00  0.00     0.009 A 
HETATM   15  C6  UNL     1       5.707   1.532  67.080  1.00  0.00     0.054 C 
HETATM   16  C7  UNL     1       7.175   0.452  68.721  1.00  0.00     0.126 A 
HETATM   17 CL1  UNL     1       7.167  -0.956  67.684  1.00  0.00    -0.062 Cl
HETATM   18  N3  UNL     1       7.850   0.505  69.878  1.00  0.00    -0.288 N 
HETATM   19  N4  UNL     1       7.849   1.575  70.659  1.00  0.00    -0.283 N 
ATOM     20  H3  UNL     1       8.387  -0.312  70.170  1.00  0.00     0.188 HD
HETATM   21  C8  UNL     1       7.155   2.689  70.324  1.00  0.00     0.141 A 
ATOM     22  H4  UNL     1       8.382   1.560  71.528  1.00  0.00     0.188 HD
BRANCH  21  23
HETATM   23  N5  UNL     1       7.136   3.743  71.061  1.00  0.00    -0.383 N 
ATOM     24  H52 UNL     1       6.597   4.574  70.820  1.00  0.00     0.157 HD
ATOM     25  H51 UNL     1       7.686   3.728  71.920  1.00  0.00     0.157 HD
ENDBRANCH  21  23
ENDBRANCH  11  13
ENDBRANCH   5  11
TORSDOF 3
ENDMDL
MODEL 3
REMARK VINA RESULT: -7.234297607      2.113      2.999
REMARK  3 active torsions:
REMARK  status: ('A' for Active; 'I' for Inactive)
REMARK    1  A    between atoms: C3_5  and  N2_6 
REMARK    2  A    between atoms: N2_6  and  C4_8 
REMARK    3  A    between atoms: C8_17  and  N5_18 
ROOT
HETATM    1  C1  UNL     1       3.823   2.417  72.646  1.00  0.00     0.070 C 
HETATM    2  C2  UNL     1       4.002   2.580  71.183  1.00  0.00     0.031 A 
HETATM    3  N1  UNL     1       5.074   2.235  70.415  1.00  0.00    -0.342 N 
ATOM      4  H1  UNL     1       5.930   1.799  70.758  1.00  0.00     0.167 HD
HETATM    5  C3  UNL     1       4.826   2.556  69.136  1.00  0.00     0.147 A 
HETATM    6  C9  UNL     1       3.577   3.123  69.028  1.00  0.00     0.182 A 
HETATM    7  F1  UNL     1       2.926   3.588  67.958  1.00  0.00    -0.200 F 
HETATM    8  C10 UNL     1       3.069   3.132  70.335  1.00  0.00     0.109 A 
HETATM    9  C11 UNL     1       1.780   3.636  70.727  1.00  0.00     0.104 C 
HETATM   10  N6  UNL     1       0.735   4.029  71.032  1.00  0.00    -0.191 NA
ENDROOT
BRANCH   5  11
HETATM   11  N2  UNL     1       5.726   2.336  68.065  1.00  0.00    -0.336 N 
ATOM     12  H2  UNL     1       6.078   3.143  67.552  1.00  0.00     0.168 HD
BRANCH  11  13
HETATM   13  C4  UNL     1       6.160   1.047  67.673  1.00  0.00     0.088 A 
HETATM   14  C5  UNL     1       5.458   0.307  66.767  1.00  0.00     0.009 A 
HETATM   15  C6  UNL     1       4.211   0.831  66.159  1.00  0.00     0.054 C 
HETATM   16  C7  UNL     1       5.864  -0.969  66.360  1.00  0.00     0.126 A 
HETATM   17 CL1  UNL     1       4.915  -1.863  65.194  1.00  0.00    -0.062 Cl
HETATM   18  N3  UNL     1       6.990  -1.447  66.907  1.00  0.00    -0.288 N 
HETATM   19  N4  UNL     1       7.702  -0.763  67.791  1.00  0.00    -0.283 N 
ATOM     20  H3  UNL     1       7.314  -2.375  66.632  1.00  0.00     0.188 HD
HETATM   21  C8  UNL     1       7.323   0.473  68.195  1.00  0.00     0.141 A 
ATOM     22  H4  UNL     1       8.552  -1.175  68.175  1.00  0.00     0.188 HD
BRANCH  21  23
HETATM   23  N5  UNL     1       7.993   1.160  69.050  1.00  0.00    -0.383 N 
ATOM     24  H52 UNL     1       7.903   2.173  69.136  1.00  0.00     0.157 HD
ATOM     25  H51 UNL     1       8.636   0.656  69.661  1.00  0.00     0.157 HD
ENDBRANCH  21  23
ENDBRANCH  11  13
ENDBRANCH   5  11
TORSDOF 3
ENDMDL
MODEL 4
REMARK VINA RESULT: -7.048576522      2.860      3.601
REMARK  3 active torsions:
REMARK  status: ('A' for Active; 'I' for Inactive)
REMARK    1  A    between atoms: C3_5  and  N2_6 
REMARK    2  A    between atoms: N2_6  and  C4_8 
REMARK    3  A    between atoms: C8_17  and  N5_18 
ROOT
HETATM    1  C1  UNL     1       3.829   2.552  72.350  1.00  0.00     0.070 C 
HETATM    2  C2  UNL     1       3.713   2.377  70.882  1.00  0.00     0.031 A 
HETATM    3  N1  UNL     1       4.068   1.301  70.125  1.00  0.00    -0.342 N 
ATOM      4  H1  UNL     1       4.476   0.437  70.482  1.00  0.00     0.167 HD
HETATM    5  C3  UNL     1       3.795   1.556  68.836  1.00  0.00     0.147 A 
HETATM    6  C9  UNL     1       3.250   2.813  68.711  1.00  0.00     0.182 A 
HETATM    7  F1  UNL     1       2.833   3.472  67.627  1.00  0.00    -0.200 F 
HETATM    8  C10 UNL     1       3.205   3.320  70.017  1.00  0.00     0.109 A 
HETATM    9  C11 UNL     1       2.710   4.616  70.395  1.00  0.00     0.104 C 
HETATM   10  N6  UNL     1       2.294   5.655  70.691  1.00  0.00    -0.191 NA
ENDROOT
BRANCH   5  11
HETATM   11  N2  UNL     1       4.037   0.653  67.772  1.00  0.00    -0.336 N 
ATOM     12  H2  UNL     1       3.473   0.736  66.927  1.00  0.00     0.168 HD
BRANCH  11  13
HETATM   13  C4  UNL     1       5.024  -0.359  67.827  1.00  0.00     0.088 A 
HETATM   14  C5  UNL     1       4.716  -1.631  68.214  1.00  0.00     0.009 A 
HETATM   15  C6  UNL     1       3.329  -1.997  68.592  1.00  0.00     0.054 C 
HETATM   16  C7  UNL     1       5.671  -2.652  68.276  1.00  0.00     0.126 A 
HETATM   17 CL1  UNL     1       5.206  -4.260  68.782  1.00  0.00    -0.062 Cl
HETATM   18  N3  UNL     1       6.925  -2.326  67.935  1.00  0.00    -0.288 N 
HETATM   19  N4  UNL     1       7.268  -1.105  67.553  1.00  0.00    -0.283 N 
ATOM     20  H3  UNL     1       7.645  -3.048  67.970  1.00  0.00     0.188 HD
HETATM   21  C8  UNL     1       6.356  -0.106  67.488  1.00  0.00     0.141 A 
ATOM     22  H4  UNL     1       8.238  -0.913  67.304  1.00  0.00     0.188 HD
BRANCH  21  23
HETATM   23  N5  UNL     1       6.660   1.089  67.122  1.00  0.00    -0.383 N 
ATOM     24  H52 UNL     1       6.597   1.890  67.750  1.00  0.00     0.157 HD
ATOM     25  H51 UNL     1       6.975   1.222  66.161  1.00  0.00     0.157 HD
ENDBRANCH  21  23
ENDBRANCH  11  13
ENDBRANCH   5  11
TORSDOF 3
ENDMDL
MODEL 5
REMARK VINA RESULT: -6.990610939      1.650      1.822
REMARK  3 active torsions:
REMARK  status: ('A' for Active; 'I' for Inactive)
REMARK    1  A    between atoms: C3_5  and  N2_6 
REMARK    2  A    between atoms: N2_6  and  C4_8 
REMARK    3  A    between atoms: C8_17  and  N5_18 
ROOT
HETATM    1  C1  UNL     1       2.510   4.531  66.280  1.00  0.00     0.070 C 
HETATM    2  C2  UNL     1       2.594   4.116  67.701  1.00  0.00     0.031 A 
HETATM    3  N1  UNL     1       3.639   3.536  68.356  1.00  0.00    -0.342 N 
ATOM      4  H1  UNL     1       4.540   3.302  67.939  1.00  0.00     0.167 HD
HETATM    5  C3  UNL     1       3.298   3.321  69.636  1.00  0.00     0.147 A 
HETATM    6  C9  UNL     1       2.012   3.758  69.858  1.00  0.00     0.182 A 
HETATM    7  F1  UNL     1       1.272   3.743  70.971  1.00  0.00    -0.200 F 
HETATM    8  C10 UNL     1       1.580   4.258  68.622  1.00  0.00     0.109 A 
HETATM    9  C11 UNL     1       0.287   4.828  68.356  1.00  0.00     0.104 C 
HETATM   10  N6  UNL     1      -0.751   5.300  68.154  1.00  0.00    -0.191 NA
ENDROOT
BRANCH   5  11
HETATM   11  N2  UNL     1       4.147   2.733  70.604  1.00  0.00    -0.336 N 
ATOM     12  H2  UNL     1       3.790   2.607  71.551  1.00  0.00     0.168 HD
BRANCH  11  13
HETATM   13  C4  UNL     1       5.468   2.312  70.320  1.00  0.00     0.088 A 
HETATM   14  C5  UNL     1       5.718   1.104  69.738  1.00  0.00     0.009 A 
HETATM   15  C6  UNL     1       4.608   0.187  69.379  1.00  0.00     0.054 C 
HETATM   16  C7  UNL     1       7.013   0.662  69.445  1.00  0.00     0.126 A 
HETATM   17 CL1  UNL     1       7.261  -0.899  68.697  1.00  0.00    -0.062 Cl
HETATM   18  N3  UNL     1       8.019   1.488  69.766  1.00  0.00    -0.288 N 
HETATM   19  N4  UNL     1       7.822   2.669  70.333  1.00  0.00    -0.283 N 
ATOM     20  H3  UNL     1       8.976   1.195  69.566  1.00  0.00     0.188 HD
HETATM   21  C8  UNL     1       6.575   3.110  70.623  1.00  0.00     0.141 A 
ATOM     22  H4  UNL     1       8.625   3.256  70.556  1.00  0.00     0.188 HD
BRANCH  21  23
HETATM   23  N5  UNL     1       6.352   4.251  71.173  1.00  0.00    -0.383 N 
ATOM     24  H52 UNL     1       6.743   5.122  70.813  1.00  0.00     0.157 HD
ATOM     25  H51 UNL     1       5.758   4.268  72.002  1.00  0.00     0.157 HD
ENDBRANCH  21  23
ENDBRANCH  11  13
ENDBRANCH   5  11
TORSDOF 3
ENDMDL
