MODEL 1
REMARK VINA RESULT: -5.826777485      0.000      0.000
REMARK  2 active torsions:
REMARK  status: ('A' for Active; 'I' for Inactive)
REMARK    1  A    between atoms: C3_5  and  N3_8 
REMARK    2  A    between atoms: N3_8  and  C5_10 
ROOT
HETATM    1  C1  UNL     1       3.384  18.347  14.609  1.00  0.00     0.088 C 
HETATM    2  C2  UNL     1       4.253  19.297  15.385  1.00  0.00     0.071 C 
HETATM    3  N1  UNL     1       5.272  19.009  16.097  1.00  0.00    -0.341 N 
ATOM      4  H1  UNL     1       5.647  18.071  16.241  1.00  0.00     0.164 HD
HETATM    5  C3  UNL     1       5.811  20.223  16.670  1.00  0.00     0.209 C 
HETATM    6  C4  UNL     1       7.275  20.201  16.626  1.00  0.00     0.115 C 
HETATM    7  N2  UNL     1       8.431  20.155  16.563  1.00  0.00    -0.193 NA
HETATM    8  C9  UNL     1       5.311  21.283  15.676  1.00  0.00     0.190 C 
HETATM    9  N4  UNL     1       4.008  20.698  15.379  1.00  0.00    -0.375 N 
ATOM     10  H4  UNL     1       3.127  21.182  15.206  1.00  0.00     0.160 HD
ENDROOT
BRANCH   5  11
HETATM   11  N3  UNL     1       5.249  20.381  17.939  1.00  0.00    -0.380 N 
ATOM     12  H3  UNL     1       4.297  20.743  17.997  1.00  0.00     0.157 HD
BRANCH  11  13
HETATM   13  C5  UNL     1       5.904  20.078  19.130  1.00  0.00     0.080 C 
HETATM   14  C6  UNL     1       5.193  19.521  20.325  1.00  0.00     0.025 C 
HETATM   15  C7  UNL     1       4.638  20.939  20.544  1.00  0.00     0.004 C 
HETATM   16  C8  UNL     1       5.999  21.380  19.976  1.00  0.00     0.025 C 
ENDBRANCH  11  13
ENDBRANCH   5  11
TORSDOF 2
ENDMDL
MODEL 2
REMARK VINA RESULT: -5.426021333      2.127      3.719
REMARK  2 active torsions:
REMARK  status: ('A' for Active; 'I' for Inactive)
REMARK    1  A    between atoms: C3_5  and  N3_8 
REMARK    2  A    between atoms: N3_8  and  C5_10 
ROOT
HETATM    1  C1  UNL     1       4.918  23.425  17.700  1.00  0.00     0.088 C 
HETATM    2  C2  UNL     1       4.877  22.127  16.943  1.00  0.00     0.071 C 
HETATM    3  N1  UNL     1       4.835  20.948  17.428  1.00  0.00    -0.341 N 
ATOM      4  H1  UNL     1       4.822  20.718  18.422  1.00  0.00     0.164 HD
HETATM    5  C3  UNL     1       4.810  19.989  16.347  1.00  0.00     0.209 C 
HETATM    6  C4  UNL     1       3.875  18.903  16.649  1.00  0.00     0.115 C 
HETATM    7  N2  UNL     1       3.117  18.067  16.916  1.00  0.00    -0.193 NA
HETATM    8  C9  UNL     1       4.225  20.829  15.200  1.00  0.00     0.190 C 
HETATM    9  N4  UNL     1       4.865  22.100  15.520  1.00  0.00    -0.375 N 
ATOM     10  H4  UNL     1       5.220  22.805  14.875  1.00  0.00     0.160 HD
ENDROOT
BRANCH   5  11
HETATM   11  N3  UNL     1       6.127  19.596  16.095  1.00  0.00    -0.380 N 
ATOM     12  H3  UNL     1       6.509  19.775  15.167  1.00  0.00     0.157 HD
BRANCH  11  13
HETATM   13  C5  UNL     1       6.953  18.976  17.030  1.00  0.00     0.080 C 
HETATM   14  C6  UNL     1       7.600  19.720  18.157  1.00  0.00     0.025 C 
HETATM   15  C7  UNL     1       8.570  20.288  17.108  1.00  0.00     0.004 C 
HETATM   16  C8  UNL     1       8.391  18.914  16.440  1.00  0.00     0.025 C 
ENDBRANCH  11  13
ENDBRANCH   5  11
TORSDOF 2
ENDMDL
MODEL 3
REMARK VINA RESULT: -5.320108037      2.167      2.743
REMARK  2 active torsions:
REMARK  status: ('A' for Active; 'I' for Inactive)
REMARK    1  A    between atoms: C3_5  and  N3_8 
REMARK    2  A    between atoms: N3_8  and  C5_10 
ROOT
HETATM    1  C1  UNL     1       2.222  17.335  17.349  1.00  0.00     0.088 C 
HETATM    2  C2  UNL     1       3.247  18.295  16.812  1.00  0.00     0.071 C 
HETATM    3  N1  UNL     1       4.358  18.621  17.347  1.00  0.00    -0.341 N 
ATOM      4  H1  UNL     1       4.715  18.265  18.234  1.00  0.00     0.164 HD
HETATM    5  C3  UNL     1       5.034  19.576  16.497  1.00  0.00     0.209 C 
HETATM    6  C4  UNL     1       6.467  19.282  16.437  1.00  0.00     0.115 C 
HETATM    7  N2  UNL     1       7.594  19.012  16.403  1.00  0.00    -0.193 NA
HETATM    8  C9  UNL     1       4.416  19.262  15.125  1.00  0.00     0.190 C 
HETATM    9  N4  UNL     1       3.060  18.958  15.567  1.00  0.00    -0.375 N 
ATOM     10  H4  UNL     1       2.181  19.171  15.094  1.00  0.00     0.160 HD
ENDROOT
BRANCH   5  11
HETATM   11  N3  UNL     1       4.700  20.857  16.945  1.00  0.00    -0.380 N 
ATOM     12  H3  UNL     1       4.025  20.934  17.706  1.00  0.00     0.157 HD
BRANCH  11  13
HETATM   13  C5  UNL     1       5.228  22.033  16.421  1.00  0.00     0.080 C 
HETATM   14  C6  UNL     1       6.024  23.000  17.244  1.00  0.00     0.025 C 
HETATM   15  C7  UNL     1       4.688  23.428  17.873  1.00  0.00     0.004 C 
HETATM   16  C8  UNL     1       4.122  23.126  16.473  1.00  0.00     0.025 C 
ENDBRANCH  11  13
ENDBRANCH   5  11
TORSDOF 2
ENDMDL
MODEL 4
REMARK VINA RESULT: -5.271719580      2.207      3.887
REMARK  2 active torsions:
REMARK  status: ('A' for Active; 'I' for Inactive)
REMARK    1  A    between atoms: C3_5  and  N3_8 
REMARK    2  A    between atoms: N3_8  and  C5_10 
ROOT
HETATM    1  C1  UNL     1       8.396  18.198  16.029  1.00  0.00     0.088 C 
HETATM    2  C2  UNL     1       7.693  19.116  16.990  1.00  0.00     0.071 C 
HETATM    3  N1  UNL     1       6.583  18.911  17.585  1.00  0.00    -0.341 N 
ATOM      4  H1  UNL     1       6.006  18.075  17.489  1.00  0.00     0.164 HD
HETATM    5  C3  UNL     1       6.271  20.053  18.416  1.00  0.00     0.209 C 
HETATM    6  C4  UNL     1       5.719  19.613  19.700  1.00  0.00     0.115 C 
HETATM    7  N2  UNL     1       5.298  19.230  20.709  1.00  0.00    -0.193 NA
HETATM    8  C9  UNL     1       7.666  20.646  18.665  1.00  0.00     0.190 C 
HETATM    9  N4  UNL     1       8.250  20.372  17.357  1.00  0.00    -0.375 N 
ATOM     10  H4  UNL     1       8.906  20.948  16.828  1.00  0.00     0.160 HD
ENDROOT
BRANCH   5  11
HETATM   11  N3  UNL     1       5.457  20.911  17.673  1.00  0.00    -0.380 N 
ATOM     12  H3  UNL     1       4.622  20.519  17.238  1.00  0.00     0.157 HD
BRANCH  11  13
HETATM   13  C5  UNL     1       5.712  22.267  17.486  1.00  0.00     0.080 C 
HETATM   14  C6  UNL     1       4.640  23.310  17.561  1.00  0.00     0.025 C 
HETATM   15  C7  UNL     1       4.183  22.814  16.179  1.00  0.00     0.004 C 
HETATM   16  C8  UNL     1       5.685  22.559  15.958  1.00  0.00     0.025 C 
ENDBRANCH  11  13
ENDBRANCH   5  11
TORSDOF 2
ENDMDL
MODEL 5
REMARK VINA RESULT: -5.215400465      1.604      4.498
REMARK  2 active torsions:
REMARK  status: ('A' for Active; 'I' for Inactive)
REMARK    1  A    between atoms: C3_5  and  N3_8 
REMARK    2  A    between atoms: N3_8  and  C5_10 
ROOT
HETATM    1  C1  UNL     1       5.198  23.088  21.243  1.00  0.00     0.088 C 
HETATM    2  C2  UNL     1       5.365  21.896  20.342  1.00  0.00     0.071 C 
HETATM    3  N1  UNL     1       6.181  21.768  19.369  1.00  0.00    -0.341 N 
ATOM      4  H1  UNL     1       6.850  22.474  19.063  1.00  0.00     0.164 HD
HETATM    5  C3  UNL     1       6.007  20.463  18.770  1.00  0.00     0.209 C 
HETATM    6  C4  UNL     1       7.307  19.880  18.430  1.00  0.00     0.115 C 
HETATM    7  N2  UNL     1       8.353  19.444  18.186  1.00  0.00    -0.193 NA
HETATM    8  C9  UNL     1       5.407  19.664  19.937  1.00  0.00     0.190 C 
HETATM    9  N4  UNL     1       4.584  20.719  20.518  1.00  0.00    -0.375 N 
ATOM     10  H4  UNL     1       3.664  20.634  20.949  1.00  0.00     0.160 HD
ENDROOT
BRANCH   5  11
HETATM   11  N3  UNL     1       5.111  20.599  17.707  1.00  0.00    -0.380 N 
ATOM     12  H3  UNL     1       4.119  20.466  17.899  1.00  0.00     0.157 HD
BRANCH  11  13
HETATM   13  C5  UNL     1       5.485  20.905  16.401  1.00  0.00     0.080 C 
HETATM   14  C6  UNL     1       5.673  22.312  15.922  1.00  0.00     0.025 C 
HETATM   15  C7  UNL     1       4.139  22.420  15.915  1.00  0.00     0.004 C 
HETATM   16  C8  UNL     1       4.201  20.933  15.523  1.00  0.00     0.025 C 
ENDBRANCH  11  13
ENDBRANCH   5  11
TORSDOF 2
ENDMDL
