MODEL 1
REMARK VINA RESULT: -7.835035604      0.000      0.000
REMARK  14 active torsions:
REMARK  status: ('A' for Active; 'I' for Inactive)
REMARK    1  A    between atoms: C5_10  and  C6_11 
REMARK    2  A    between atoms: C6_11  and  C7_12 
REMARK    3  A    between atoms: C7_12  and  C8_13 
REMARK    4  A    between atoms: C8_13  and  C9_14 
REMARK    5  A    between atoms: C9_14  and  C10_15 
REMARK    6  A    between atoms: C10_15  and  C11_16 
REMARK    7  A    between atoms: C11_16  and  N3_17 
REMARK    8  A    between atoms: N3_17  and  C14_20 
REMARK    9  A    between atoms: C14_20  and  C15_21 
REMARK   10  A    between atoms: C15_21  and  C16_22 
REMARK   11  A    between atoms: C16_22  and  C17_23 
REMARK   12  A    between atoms: C17_23  and  C18_24 
REMARK   13  A    between atoms: C18_24  and  N4_25 
REMARK   14  A    between atoms: C26_36  and  O2_37 
ROOT
HETATM    1  C1  UNL     1      35.101  14.734  -2.307  1.00  0.00     0.155 C 
HETATM    2  N1  UNL     1      36.334  14.569  -3.060  1.00  0.00    -0.323 N 
HETATM    3  C2  UNL     1      36.405  13.518  -3.998  1.00  0.00     0.259 C 
HETATM    4  O1  UNL     1      35.650  12.551  -3.761  1.00  0.00    -0.270 OA
HETATM    5  C3  UNL     1      37.225  13.361  -5.224  1.00  0.00     0.272 C 
HETATM    6 CL1  UNL     1      38.689  12.416  -4.958  1.00  0.00    -0.092 Cl
HETATM    7  N2  UNL     1      37.563  14.660  -5.795  1.00  0.00    -0.364 N 
ATOM      8  H2  UNL     1      37.433  14.718  -6.805  1.00  0.00     0.161 HD
HETATM    9  C4  UNL     1      38.034  15.849  -5.209  1.00  0.00     0.050 A 
HETATM   10  C5  UNL     1      38.642  16.667  -6.167  1.00  0.00    -0.007 A 
HETATM   11  C22 UNL     1      39.141  17.880  -5.672  1.00  0.00     0.066 A 
HETATM   12 CL2  UNL     1      39.912  18.946  -6.827  1.00  0.00    -0.082 Cl
HETATM   13  C23 UNL     1      39.057  18.257  -4.372  1.00  0.00     0.078 A 
HETATM   14 CL3  UNL     1      39.722  19.800  -3.882  1.00  0.00    -0.081 Cl
HETATM   15  C24 UNL     1      38.463  17.447  -3.459  1.00  0.00     0.070 A 
HETATM   16 CL4  UNL     1      38.323  17.876  -1.764  1.00  0.00    -0.082 Cl
HETATM   17  C25 UNL     1      37.947  16.226  -3.891  1.00  0.00     0.041 A 
HETATM   18  C26 UNL     1      37.361  15.507  -2.761  1.00  0.00     0.260 C 
ENDROOT
BRANCH  10  19
HETATM   19  C6  UNL     1      38.741  16.270  -7.574  1.00  0.00     0.043 C 
BRANCH  19  20
HETATM   20  C7  UNL     1      40.110  15.864  -8.010  1.00  0.00     0.005 C 
BRANCH  20  21
HETATM   21  C8  UNL     1      40.477  14.557  -7.352  1.00  0.00     0.000 C 
BRANCH  21  22
HETATM   22  C9  UNL     1      41.926  14.177  -7.578  1.00  0.00     0.002 C 
BRANCH  22  23
HETATM   23  C10 UNL     1      42.599  13.808  -6.303  1.00  0.00     0.028 C 
BRANCH  23  24
HETATM   24  C11 UNL     1      43.483  14.802  -5.669  1.00  0.00     0.236 C 
BRANCH  24  25
HETATM   25  N3  UNL     1      42.955  15.831  -4.882  1.00  0.00    -0.075 N 
HETATM   26  C12 UNL     1      41.809  15.390  -4.096  1.00  0.00     0.272 C 
HETATM   27  C13 UNL     1      42.615  17.075  -5.499  1.00  0.00     0.272 C 
BRANCH  25  28
HETATM   28  C14 UNL     1      43.979  16.170  -3.868  1.00  0.00     0.236 C 
BRANCH  28  29
HETATM   29  C15 UNL     1      44.281  17.650  -3.908  1.00  0.00     0.028 C 
BRANCH  29  30
HETATM   30  C16 UNL     1      45.772  17.903  -3.915  1.00  0.00     0.003 C 
BRANCH  30  31
HETATM   31  C17 UNL     1      46.605  16.667  -3.873  1.00  0.00     0.028 C 
BRANCH  31  32
HETATM   32  C18 UNL     1      48.075  16.963  -3.732  1.00  0.00     0.236 C 
BRANCH  32  33
HETATM   33  N4  UNL     1      48.865  15.748  -3.654  1.00  0.00    -0.079 N 
HETATM   34  C19 UNL     1      48.203  14.604  -4.198  1.00  0.00     0.271 C 
HETATM   35  C20 UNL     1      49.197  15.570  -2.240  1.00  0.00     0.271 C 
HETATM   36  C21 UNL     1      50.089  15.978  -4.375  1.00  0.00     0.271 C 
ENDBRANCH  32  33
ENDBRANCH  31  32
ENDBRANCH  30  31
ENDBRANCH  29  30
ENDBRANCH  28  29
ENDBRANCH  25  28
ENDBRANCH  24  25
ENDBRANCH  23  24
ENDBRANCH  22  23
ENDBRANCH  21  22
ENDBRANCH  20  21
ENDBRANCH  19  20
ENDBRANCH  10  19
BRANCH  18  37
HETATM   37  O2  UNL     1      38.351  14.862  -1.982  1.00  0.00    -0.372 OA
ATOM     38  H2  UNL     1      38.380  15.273  -1.126  1.00  0.00     0.212 HD
ENDBRANCH  18  37
TORSDOF 14
ENDMDL
MODEL 2
REMARK VINA RESULT: -7.517557404      0.840      1.422
REMARK  14 active torsions:
REMARK  status: ('A' for Active; 'I' for Inactive)
REMARK    1  A    between atoms: C5_10  and  C6_11 
REMARK    2  A    between atoms: C6_11  and  C7_12 
REMARK    3  A    between atoms: C7_12  and  C8_13 
REMARK    4  A    between atoms: C8_13  and  C9_14 
REMARK    5  A    between atoms: C9_14  and  C10_15 
REMARK    6  A    between atoms: C10_15  and  C11_16 
REMARK    7  A    between atoms: C11_16  and  N3_17 
REMARK    8  A    between atoms: N3_17  and  C14_20 
REMARK    9  A    between atoms: C14_20  and  C15_21 
REMARK   10  A    between atoms: C15_21  and  C16_22 
REMARK   11  A    between atoms: C16_22  and  C17_23 
REMARK   12  A    between atoms: C17_23  and  C18_24 
REMARK   13  A    between atoms: C18_24  and  N4_25 
REMARK   14  A    between atoms: C26_36  and  O2_37 
ROOT
HETATM    1  C1  UNL     1      34.806  15.164  -2.840  1.00  0.00     0.155 C 
HETATM    2  N1  UNL     1      36.091  14.758  -3.384  1.00  0.00    -0.323 N 
HETATM    3  C2  UNL     1      36.131  13.622  -4.219  1.00  0.00     0.259 C 
HETATM    4  O1  UNL     1      35.213  12.796  -4.027  1.00  0.00    -0.270 OA
HETATM    5  C3  UNL     1      37.080  13.235  -5.293  1.00  0.00     0.272 C 
HETATM    6 CL1  UNL     1      38.333  12.126  -4.738  1.00  0.00    -0.092 Cl
HETATM    7  N2  UNL     1      37.686  14.414  -5.901  1.00  0.00    -0.364 N 
ATOM      8  H2  UNL     1      37.706  14.391  -6.921  1.00  0.00     0.161 HD
HETATM    9  C4  UNL     1      38.246  15.576  -5.342  1.00  0.00     0.050 A 
HETATM   10  C5  UNL     1      39.097  16.206  -6.256  1.00  0.00    -0.007 A 
HETATM   11  C22 UNL     1      39.700  17.380  -5.785  1.00  0.00     0.066 A 
HETATM   12 CL2  UNL     1      40.776  18.212  -6.888  1.00  0.00    -0.082 Cl
HETATM   13  C23 UNL     1      39.495  17.889  -4.545  1.00  0.00     0.078 A 
HETATM   14 CL3  UNL     1      40.312  19.365  -4.078  1.00  0.00    -0.081 Cl
HETATM   15  C24 UNL     1      38.666  17.260  -3.673  1.00  0.00     0.070 A 
HETATM   16 CL4  UNL     1      38.359  17.867  -2.056  1.00  0.00    -0.082 Cl
HETATM   17  C25 UNL     1      38.035  16.087  -4.085  1.00  0.00     0.041 A 
HETATM   18  C26 UNL     1      37.197  15.569  -3.005  1.00  0.00     0.260 C 
ENDROOT
BRANCH  10  19
HETATM   19  C6  UNL     1      39.328  15.665  -7.599  1.00  0.00     0.043 C 
BRANCH  19  20
HETATM   20  C7  UNL     1      40.131  14.408  -7.632  1.00  0.00     0.005 C 
BRANCH  20  21
HETATM   21  C8  UNL     1      41.567  14.722  -7.290  1.00  0.00     0.000 C 
BRANCH  21  22
HETATM   22  C9  UNL     1      42.085  13.894  -6.132  1.00  0.00     0.002 C 
BRANCH  22  23
HETATM   23  C10 UNL     1      42.213  14.708  -4.893  1.00  0.00     0.028 C 
BRANCH  23  24
HETATM   24  C11 UNL     1      42.959  15.977  -4.968  1.00  0.00     0.236 C 
BRANCH  24  25
HETATM   25  N3  UNL     1      44.162  16.142  -4.274  1.00  0.00    -0.075 N 
HETATM   26  C12 UNL     1      45.164  15.159  -4.666  1.00  0.00     0.272 C 
HETATM   27  C13 UNL     1      44.139  16.206  -2.846  1.00  0.00     0.272 C 
BRANCH  25  28
HETATM   28  C14 UNL     1      44.738  17.436  -4.708  1.00  0.00     0.236 C 
BRANCH  28  29
HETATM   29  C15 UNL     1      45.223  18.217  -3.509  1.00  0.00     0.028 C 
BRANCH  29  30
HETATM   30  C16 UNL     1      46.594  18.806  -3.761  1.00  0.00     0.003 C 
BRANCH  30  31
HETATM   31  C17 UNL     1      47.626  17.809  -4.165  1.00  0.00     0.028 C 
BRANCH  31  32
HETATM   32  C18 UNL     1      48.543  17.432  -3.031  1.00  0.00     0.236 C 
BRANCH  32  33
HETATM   33  N4  UNL     1      49.299  16.229  -3.326  1.00  0.00    -0.079 N 
HETATM   34  C19 UNL     1      50.714  16.409  -3.235  1.00  0.00     0.271 C 
HETATM   35  C20 UNL     1      48.883  15.805  -4.664  1.00  0.00     0.271 C 
HETATM   36  C21 UNL     1      48.887  15.216  -2.389  1.00  0.00     0.271 C 
ENDBRANCH  32  33
ENDBRANCH  31  32
ENDBRANCH  30  31
ENDBRANCH  29  30
ENDBRANCH  28  29
ENDBRANCH  25  28
ENDBRANCH  24  25
ENDBRANCH  23  24
ENDBRANCH  22  23
ENDBRANCH  21  22
ENDBRANCH  20  21
ENDBRANCH  19  20
ENDBRANCH  10  19
BRANCH  18  37
HETATM   37  O2  UNL     1      37.961  14.871  -2.040  1.00  0.00    -0.372 OA
ATOM     38  H2  UNL     1      38.644  14.385  -2.485  1.00  0.00     0.212 HD
ENDBRANCH  18  37
TORSDOF 14
ENDMDL
MODEL 3
REMARK VINA RESULT: -7.443412683      1.042      1.313
REMARK  14 active torsions:
REMARK  status: ('A' for Active; 'I' for Inactive)
REMARK    1  A    between atoms: C5_10  and  C6_11 
REMARK    2  A    between atoms: C6_11  and  C7_12 
REMARK    3  A    between atoms: C7_12  and  C8_13 
REMARK    4  A    between atoms: C8_13  and  C9_14 
REMARK    5  A    between atoms: C9_14  and  C10_15 
REMARK    6  A    between atoms: C10_15  and  C11_16 
REMARK    7  A    between atoms: C11_16  and  N3_17 
REMARK    8  A    between atoms: N3_17  and  C14_20 
REMARK    9  A    between atoms: C14_20  and  C15_21 
REMARK   10  A    between atoms: C15_21  and  C16_22 
REMARK   11  A    between atoms: C16_22  and  C17_23 
REMARK   12  A    between atoms: C17_23  and  C18_24 
REMARK   13  A    between atoms: C18_24  and  N4_25 
REMARK   14  A    between atoms: C26_36  and  O2_37 
ROOT
HETATM    1  C1  UNL     1      35.194  15.895  -2.751  1.00  0.00     0.155 C 
HETATM    2  N1  UNL     1      36.515  15.491  -3.203  1.00  0.00    -0.323 N 
HETATM    3  C2  UNL     1      36.736  14.124  -3.474  1.00  0.00     0.259 C 
HETATM    4  O1  UNL     1      35.990  13.338  -2.853  1.00  0.00    -0.270 OA
HETATM    5  C3  UNL     1      37.707  13.455  -4.376  1.00  0.00     0.272 C 
HETATM    6 CL1  UNL     1      39.156  12.903  -3.538  1.00  0.00    -0.092 Cl
HETATM    7  N2  UNL     1      38.069  14.325  -5.489  1.00  0.00    -0.364 N 
ATOM      8  H2  UNL     1      38.064  13.861  -6.397  1.00  0.00     0.161 HD
HETATM    9  C4  UNL     1      38.426  15.684  -5.540  1.00  0.00     0.050 A 
HETATM   10  C5  UNL     1      39.120  15.971  -6.720  1.00  0.00    -0.007 A 
HETATM   11  C22 UNL     1      39.514  17.308  -6.859  1.00  0.00     0.066 A 
HETATM   12 CL2  UNL     1      40.387  17.726  -8.319  1.00  0.00    -0.082 Cl
HETATM   13  C23 UNL     1      39.257  18.271  -5.940  1.00  0.00     0.078 A 
HETATM   14 CL3  UNL     1      39.806  19.907  -6.234  1.00  0.00    -0.081 Cl
HETATM   15  C24 UNL     1      38.583  17.971  -4.801  1.00  0.00     0.070 A 
HETATM   16 CL4  UNL     1      38.220  19.169  -3.573  1.00  0.00    -0.082 Cl
HETATM   17  C25 UNL     1      38.164  16.655  -4.605  1.00  0.00     0.041 A 
HETATM   18  C26 UNL     1      37.467  16.542  -3.325  1.00  0.00     0.260 C 
ENDROOT
BRANCH  10  19
HETATM   19  C6  UNL     1      39.406  14.939  -7.721  1.00  0.00     0.043 C 
BRANCH  19  20
HETATM   20  C7  UNL     1      40.422  13.930  -7.301  1.00  0.00     0.005 C 
BRANCH  20  21
HETATM   21  C8  UNL     1      41.803  14.520  -7.448  1.00  0.00     0.000 C 
BRANCH  21  22
HETATM   22  C9  UNL     1      42.887  13.609  -6.909  1.00  0.00     0.002 C 
BRANCH  22  23
HETATM   23  C10 UNL     1      43.248  13.960  -5.508  1.00  0.00     0.028 C 
BRANCH  23  24
HETATM   24  C11 UNL     1      43.851  15.280  -5.255  1.00  0.00     0.236 C 
BRANCH  24  25
HETATM   25  N3  UNL     1      43.099  16.315  -4.691  1.00  0.00    -0.075 N 
HETATM   26  C12 UNL     1      41.880  15.828  -4.057  1.00  0.00     0.272 C 
HETATM   27  C13 UNL     1      42.757  17.446  -5.496  1.00  0.00     0.272 C 
BRANCH  25  28
HETATM   28  C14 UNL     1      43.893  16.867  -3.570  1.00  0.00     0.236 C 
BRANCH  28  29
HETATM   29  C15 UNL     1      45.367  16.797  -3.892  1.00  0.00     0.028 C 
BRANCH  29  30
HETATM   30  C16 UNL     1      45.969  18.181  -3.999  1.00  0.00     0.003 C 
BRANCH  30  31
HETATM   31  C17 UNL     1      47.459  18.204  -4.010  1.00  0.00     0.028 C 
BRANCH  31  32
HETATM   32  C18 UNL     1      48.058  16.849  -4.282  1.00  0.00     0.236 C 
BRANCH  32  33
HETATM   33  N4  UNL     1      48.959  16.435  -3.223  1.00  0.00    -0.079 N 
HETATM   34  C19 UNL     1      48.580  15.204  -2.603  1.00  0.00     0.271 C 
HETATM   35  C20 UNL     1      48.999  17.543  -2.267  1.00  0.00     0.271 C 
HETATM   36  C21 UNL     1      50.271  16.295  -3.798  1.00  0.00     0.271 C 
ENDBRANCH  32  33
ENDBRANCH  31  32
ENDBRANCH  30  31
ENDBRANCH  29  30
ENDBRANCH  28  29
ENDBRANCH  25  28
ENDBRANCH  24  25
ENDBRANCH  23  24
ENDBRANCH  22  23
ENDBRANCH  21  22
ENDBRANCH  20  21
ENDBRANCH  19  20
ENDBRANCH  10  19
BRANCH  18  37
HETATM   37  O2  UNL     1      38.373  16.461  -2.242  1.00  0.00    -0.372 OA
ATOM     38  H2  UNL     1      38.881  17.262  -2.209  1.00  0.00     0.212 HD
ENDBRANCH  18  37
TORSDOF 14
ENDMDL
MODEL 4
REMARK VINA RESULT: -7.275796514      1.201      2.076
REMARK  14 active torsions:
REMARK  status: ('A' for Active; 'I' for Inactive)
REMARK    1  A    between atoms: C5_10  and  C6_11 
REMARK    2  A    between atoms: C6_11  and  C7_12 
REMARK    3  A    between atoms: C7_12  and  C8_13 
REMARK    4  A    between atoms: C8_13  and  C9_14 
REMARK    5  A    between atoms: C9_14  and  C10_15 
REMARK    6  A    between atoms: C10_15  and  C11_16 
REMARK    7  A    between atoms: C11_16  and  N3_17 
REMARK    8  A    between atoms: N3_17  and  C14_20 
REMARK    9  A    between atoms: C14_20  and  C15_21 
REMARK   10  A    between atoms: C15_21  and  C16_22 
REMARK   11  A    between atoms: C16_22  and  C17_23 
REMARK   12  A    between atoms: C17_23  and  C18_24 
REMARK   13  A    between atoms: C18_24  and  N4_25 
REMARK   14  A    between atoms: C26_36  and  O2_37 
ROOT
HETATM    1  C1  UNL     1      35.133  15.859  -3.248  1.00  0.00     0.155 C 
HETATM    2  N1  UNL     1      36.509  15.452  -3.476  1.00  0.00    -0.323 N 
HETATM    3  C2  UNL     1      36.784  14.074  -3.604  1.00  0.00     0.259 C 
HETATM    4  O1  UNL     1      35.966  13.320  -3.035  1.00  0.00    -0.270 OA
HETATM    5  C3  UNL     1      37.881  13.361  -4.304  1.00  0.00     0.272 C 
HETATM    6 CL1  UNL     1      39.203  12.909  -3.228  1.00  0.00    -0.092 Cl
HETATM    7  N2  UNL     1      38.389  14.152  -5.419  1.00  0.00    -0.364 N 
ATOM      8  H2  UNL     1      38.519  13.621  -6.280  1.00  0.00     0.161 HD
HETATM    9  C4  UNL     1      38.732  15.512  -5.526  1.00  0.00     0.050 A 
HETATM   10  C5  UNL     1      39.585  15.724  -6.615  1.00  0.00    -0.007 A 
HETATM   11  C22 UNL     1      39.978  17.056  -6.801  1.00  0.00     0.066 A 
HETATM   12 CL2  UNL     1      41.045  17.382  -8.151  1.00  0.00    -0.082 Cl
HETATM   13  C23 UNL     1      39.580  18.080  -6.006  1.00  0.00     0.078 A 
HETATM   14 CL3  UNL     1      40.145  19.701  -6.347  1.00  0.00    -0.081 Cl
HETATM   15  C24 UNL     1      38.753  17.851  -4.954  1.00  0.00     0.070 A 
HETATM   16 CL4  UNL     1      38.204  19.131  -3.888  1.00  0.00    -0.082 Cl
HETATM   17  C25 UNL     1      38.327  16.545  -4.717  1.00  0.00     0.041 A 
HETATM   18  C26 UNL     1      37.455  16.513  -3.544  1.00  0.00     0.260 C 
ENDROOT
BRANCH  10  19
HETATM   19  C6  UNL     1      40.023  14.626  -7.480  1.00  0.00     0.043 C 
BRANCH  19  20
HETATM   20  C7  UNL     1      41.503  14.443  -7.551  1.00  0.00     0.005 C 
BRANCH  20  21
HETATM   21  C8  UNL     1      42.000  13.879  -6.243  1.00  0.00     0.000 C 
BRANCH  21  22
HETATM   22  C9  UNL     1      43.152  14.676  -5.665  1.00  0.00     0.002 C 
BRANCH  22  23
HETATM   23  C10 UNL     1      42.669  15.798  -4.815  1.00  0.00     0.028 C 
BRANCH  23  24
HETATM   24  C11 UNL     1      43.298  17.119  -4.985  1.00  0.00     0.236 C 
BRANCH  24  25
HETATM   25  N3  UNL     1      44.420  17.480  -4.232  1.00  0.00    -0.075 N 
HETATM   26  C12 UNL     1      44.064  18.261  -3.053  1.00  0.00     0.272 C 
HETATM   27  C13 UNL     1      45.513  18.134  -4.881  1.00  0.00     0.272 C 
BRANCH  25  28
HETATM   28  C14 UNL     1      44.991  16.231  -3.679  1.00  0.00     0.236 C 
BRANCH  28  29
HETATM   29  C15 UNL     1      46.477  16.174  -3.949  1.00  0.00     0.028 C 
BRANCH  29  30
HETATM   30  C16 UNL     1      46.906  14.779  -4.344  1.00  0.00     0.003 C 
BRANCH  30  31
HETATM   31  C17 UNL     1      48.359  14.505  -4.151  1.00  0.00     0.028 C 
BRANCH  31  32
HETATM   32  C18 UNL     1      49.217  15.711  -4.426  1.00  0.00     0.236 C 
BRANCH  32  33
HETATM   33  N4  UNL     1      49.930  16.147  -3.239  1.00  0.00    -0.079 N 
HETATM   34  C19 UNL     1      51.334  16.319  -3.451  1.00  0.00     0.271 C 
HETATM   35  C20 UNL     1      49.648  15.149  -2.206  1.00  0.00     0.271 C 
HETATM   36  C21 UNL     1      49.355  17.398  -2.821  1.00  0.00     0.271 C 
ENDBRANCH  32  33
ENDBRANCH  31  32
ENDBRANCH  30  31
ENDBRANCH  29  30
ENDBRANCH  28  29
ENDBRANCH  25  28
ENDBRANCH  24  25
ENDBRANCH  23  24
ENDBRANCH  22  23
ENDBRANCH  21  22
ENDBRANCH  20  21
ENDBRANCH  19  20
ENDBRANCH  10  19
BRANCH  18  37
HETATM   37  O2  UNL     1      38.198  16.536  -2.340  1.00  0.00    -0.372 OA
ATOM     38  H2  UNL     1      38.760  17.301  -2.343  1.00  0.00     0.212 HD
ENDBRANCH  18  37
TORSDOF 14
ENDMDL
MODEL 5
REMARK VINA RESULT: -7.124494032      2.274      3.891
REMARK  14 active torsions:
REMARK  status: ('A' for Active; 'I' for Inactive)
REMARK    1  A    between atoms: C5_10  and  C6_11 
REMARK    2  A    between atoms: C6_11  and  C7_12 
REMARK    3  A    between atoms: C7_12  and  C8_13 
REMARK    4  A    between atoms: C8_13  and  C9_14 
REMARK    5  A    between atoms: C9_14  and  C10_15 
REMARK    6  A    between atoms: C10_15  and  C11_16 
REMARK    7  A    between atoms: C11_16  and  N3_17 
REMARK    8  A    between atoms: N3_17  and  C14_20 
REMARK    9  A    between atoms: C14_20  and  C15_21 
REMARK   10  A    between atoms: C15_21  and  C16_22 
REMARK   11  A    between atoms: C16_22  and  C17_23 
REMARK   12  A    between atoms: C17_23  and  C18_24 
REMARK   13  A    between atoms: C18_24  and  N4_25 
REMARK   14  A    between atoms: C26_36  and  O2_37 
ROOT
HETATM    1  C1  UNL     1      40.692  19.957  -4.155  1.00  0.00     0.155 C 
HETATM    2  N1  UNL     1      39.883  19.157  -5.059  1.00  0.00    -0.323 N 
HETATM    3  C2  UNL     1      40.184  19.202  -6.437  1.00  0.00     0.259 C 
HETATM    4  O1  UNL     1      40.745  20.250  -6.818  1.00  0.00    -0.270 OA
HETATM    5  C3  UNL     1      39.948  18.212  -7.518  1.00  0.00     0.272 C 
HETATM    6 CL1  UNL     1      38.482  18.539  -8.442  1.00  0.00    -0.092 Cl
HETATM    7  N2  UNL     1      39.913  16.856  -6.984  1.00  0.00    -0.364 N 
ATOM      8  H2  UNL     1      40.454  16.182  -7.525  1.00  0.00     0.161 HD
HETATM    9  C4  UNL     1      39.270  16.305  -5.860  1.00  0.00     0.050 A 
HETATM   10  C5  UNL     1      39.140  14.919  -5.993  1.00  0.00    -0.007 A 
HETATM   11  C22 UNL     1      38.511  14.282  -4.914  1.00  0.00     0.066 A 
HETATM   12 CL2  UNL     1      38.322  12.545  -5.025  1.00  0.00    -0.082 Cl
HETATM   13  C23 UNL     1      38.054  14.932  -3.815  1.00  0.00     0.078 A 
HETATM   14 CL3  UNL     1      37.285  14.018  -2.536  1.00  0.00    -0.081 Cl
HETATM   15  C24 UNL     1      38.190  16.278  -3.708  1.00  0.00     0.070 A 
HETATM   16 CL4  UNL     1      37.621  17.178  -2.314  1.00  0.00    -0.082 Cl
HETATM   17  C25 UNL     1      38.809  16.969  -4.750  1.00  0.00     0.041 A 
HETATM   18  C26 UNL     1      38.849  18.397  -4.443  1.00  0.00     0.260 C 
ENDROOT
BRANCH  10  19
HETATM   19  C6  UNL     1      39.628  14.205  -7.176  1.00  0.00     0.043 C 
BRANCH  19  20
HETATM   20  C7  UNL     1      41.087  14.372  -7.445  1.00  0.00     0.005 C 
BRANCH  20  21
HETATM   21  C8  UNL     1      41.870  13.978  -6.217  1.00  0.00     0.000 C 
BRANCH  21  22
HETATM   22  C9  UNL     1      43.321  13.668  -6.525  1.00  0.00     0.002 C 
BRANCH  22  23
HETATM   23  C10 UNL     1      44.242  14.444  -5.652  1.00  0.00     0.028 C 
BRANCH  23  24
HETATM   24  C11 UNL     1      43.697  15.037  -4.418  1.00  0.00     0.236 C 
BRANCH  24  25
HETATM   25  N3  UNL     1      43.733  16.419  -4.210  1.00  0.00    -0.075 N 
HETATM   26  C12 UNL     1      43.274  16.788  -2.877  1.00  0.00     0.272 C 
HETATM   27  C13 UNL     1      43.093  17.282  -5.153  1.00  0.00     0.272 C 
BRANCH  25  28
HETATM   28  C14 UNL     1      45.158  16.822  -4.225  1.00  0.00     0.236 C 
BRANCH  28  29
HETATM   29  C15 UNL     1      45.293  18.275  -3.834  1.00  0.00     0.028 C 
BRANCH  29  30
HETATM   30  C16 UNL     1      46.740  18.714  -3.855  1.00  0.00     0.003 C 
BRANCH  30  31
HETATM   31  C17 UNL     1      47.699  17.650  -4.270  1.00  0.00     0.028 C 
BRANCH  31  32
HETATM   32  C18 UNL     1      48.655  17.271  -3.170  1.00  0.00     0.236 C 
BRANCH  32  33
HETATM   33  N4  UNL     1      49.257  15.971  -3.404  1.00  0.00    -0.079 N 
HETATM   34  C19 UNL     1      48.533  15.169  -4.339  1.00  0.00     0.271 C 
HETATM   35  C20 UNL     1      49.360  15.330  -2.092  1.00  0.00     0.271 C 
HETATM   36  C21 UNL     1      50.591  16.192  -3.899  1.00  0.00     0.271 C 
ENDBRANCH  32  33
ENDBRANCH  31  32
ENDBRANCH  30  31
ENDBRANCH  29  30
ENDBRANCH  28  29
ENDBRANCH  25  28
ENDBRANCH  24  25
ENDBRANCH  23  24
ENDBRANCH  22  23
ENDBRANCH  21  22
ENDBRANCH  20  21
ENDBRANCH  19  20
ENDBRANCH  10  19
BRANCH  18  37
HETATM   37  O2  UNL     1      37.608  19.024  -4.706  1.00  0.00    -0.372 OA
ATOM     38  H2  UNL     1      36.978  18.359  -4.955  1.00  0.00     0.212 HD
ENDBRANCH  18  37
TORSDOF 14
ENDMDL
