MODEL 1
REMARK VINA RESULT: -10.552125393      0.000      0.000
REMARK  9 active torsions:
REMARK  status: ('A' for Active; 'I' for Inactive)
REMARK    1  A    between atoms: C2_2  and  C3_3 
REMARK    2  A    between atoms: C3_3  and  C4_4 
REMARK    3  A    between atoms: C3_3  and  S1_31 
REMARK    4  A    between atoms: C4_4  and  N1_5 
REMARK       I    between atoms: N1_5  and  C5_7 
REMARK    5  A    between atoms: C5_7  and  C6_9 
REMARK    6  A    between atoms: C9_14  and  N3_15 
REMARK    7  A    between atoms: C12_18  and  N4_19 
REMARK    8  A    between atoms: N4_19  and  C13_21 
REMARK    9  A    between atoms: S1_31  and  C22_32 
ROOT
HETATM    1  C6  UNL     1      25.106 -18.220  18.759  1.00  0.00     0.058 A 
HETATM    2  C7  UNL     1      25.327 -19.225  17.854  1.00  0.00     0.036 A 
HETATM    3  C8  UNL     1      24.274 -19.780  17.129  1.00  0.00     0.091 A 
HETATM    4  N2  UNL     1      23.057 -19.281  17.368  1.00  0.00    -0.351 N 
ATOM      5  H2  UNL     1      22.279 -19.681  16.843  1.00  0.00     0.166 HD
HETATM    6  C9  UNL     1      22.769 -18.301  18.240  1.00  0.00     0.126 A 
HETATM    7  C21 UNL     1      23.834 -17.766  18.950  1.00  0.00     0.093 A 
HETATM    8 CL1  UNL     1      23.545 -16.488  20.090  1.00  0.00    -0.079 Cl
ENDROOT
BRANCH   6   9
HETATM    9  N3  UNL     1      21.449 -17.817  18.452  1.00  0.00    -0.365 N 
HETATM   10  C10 UNL     1      21.015 -16.643  17.715  1.00  0.00     0.130 C 
HETATM   11  C11 UNL     1      20.299 -15.783  18.782  1.00  0.00     0.072 C 
HETATM   12  C12 UNL     1      19.064 -16.526  19.167  1.00  0.00    -0.015 C 
HETATM   13  C19 UNL     1      19.335 -17.856  19.745  1.00  0.00     0.072 C 
HETATM   14  C20 UNL     1      20.616 -18.520  19.379  1.00  0.00     0.130 C 
BRANCH  12  15
HETATM   15  N4  UNL     1      18.042 -15.767  19.820  1.00  0.00    -0.392 N 
ATOM     16  H4  UNL     1      18.266 -14.908  20.322  1.00  0.00     0.159 HD
BRANCH  15  17
HETATM   17  C13 UNL     1      16.720 -16.240  19.751  1.00  0.00     0.081 C 
HETATM   18  C14 UNL     1      15.824 -15.003  19.522  1.00  0.00     0.025 C 
HETATM   19  C15 UNL     1      15.575 -14.912  18.022  1.00  0.00     0.002 C 
HETATM   20  C16 UNL     1      14.594 -16.007  17.660  1.00  0.00     0.000 C 
HETATM   21  C17 UNL     1      15.080 -17.317  18.196  1.00  0.00     0.002 C 
HETATM   22  C18 UNL     1      16.525 -17.258  18.690  1.00  0.00     0.025 C 
ENDBRANCH  15  17
ENDBRANCH  12  15
ENDBRANCH   6   9
BRANCH   1  23
HETATM   23  C5  UNL     1      26.280 -17.651  19.502  1.00  0.00     0.253 C 
HETATM   24  N1  UNL     1      27.215 -16.894  18.809  1.00  0.00    -0.356 N 
ATOM     25  H1  UNL     1      26.984 -16.792  17.820  1.00  0.00     0.162 HD
HETATM   26  O1  UNL     1      26.271 -17.939  20.700  1.00  0.00    -0.268 OA
BRANCH  24  27
HETATM   27  C4  UNL     1      28.412 -16.235  19.162  1.00  0.00     0.138 C 
BRANCH  27  28
HETATM   28  C3  UNL     1      28.393 -14.792  19.475  1.00  0.00     0.073 C 
BRANCH  28  29
HETATM   29  C2  UNL     1      29.454 -14.418  20.536  1.00  0.00     0.012 C 
HETATM   30  C1  UNL     1      29.371 -15.335  21.710  1.00  0.00     0.006 C 
ENDBRANCH  28  29
BRANCH  28  31
HETATM   31  S1  UNL     1      26.819 -14.225  20.233  1.00  0.00    -0.049 SA
BRANCH  31  32
HETATM   32  C22 UNL     1      25.659 -13.609  19.002  1.00  0.00     0.443 C 
HETATM   33  F1  UNL     1      25.964 -12.368  18.489  1.00  0.00    -0.160 F 
HETATM   34  F2  UNL     1      25.377 -14.517  17.990  1.00  0.00    -0.160 F 
HETATM   35  F3  UNL     1      24.434 -13.461  19.677  1.00  0.00    -0.160 F 
ENDBRANCH  31  32
ENDBRANCH  28  31
ENDBRANCH  27  28
ENDBRANCH  24  27
ENDBRANCH   1  23
TORSDOF 9
ENDMDL
MODEL 2
REMARK VINA RESULT: -10.348209817      0.688      1.137
REMARK  9 active torsions:
REMARK  status: ('A' for Active; 'I' for Inactive)
REMARK    1  A    between atoms: C2_2  and  C3_3 
REMARK    2  A    between atoms: C3_3  and  C4_4 
REMARK    3  A    between atoms: C3_3  and  S1_31 
REMARK    4  A    between atoms: C4_4  and  N1_5 
REMARK       I    between atoms: N1_5  and  C5_7 
REMARK    5  A    between atoms: C5_7  and  C6_9 
REMARK    6  A    between atoms: C9_14  and  N3_15 
REMARK    7  A    between atoms: C12_18  and  N4_19 
REMARK    8  A    between atoms: N4_19  and  C13_21 
REMARK    9  A    between atoms: S1_31  and  C22_32 
ROOT
HETATM    1  C6  UNL     1      25.148 -18.127  18.871  1.00  0.00     0.058 A 
HETATM    2  C7  UNL     1      25.202 -19.239  18.074  1.00  0.00     0.036 A 
HETATM    3  C8  UNL     1      24.068 -19.694  17.401  1.00  0.00     0.091 A 
HETATM    4  N2  UNL     1      22.946 -18.991  17.580  1.00  0.00    -0.351 N 
ATOM      5  H2  UNL     1      22.111 -19.315  17.093  1.00  0.00     0.166 HD
HETATM    6  C9  UNL     1      22.822 -17.895  18.347  1.00  0.00     0.126 A 
HETATM    7  C21 UNL     1      23.964 -17.463  19.006  1.00  0.00     0.093 A 
HETATM    8 CL1  UNL     1      23.888 -16.047  20.009  1.00  0.00    -0.079 Cl
ENDROOT
BRANCH   6   9
HETATM    9  N3  UNL     1      21.596 -17.192  18.499  1.00  0.00    -0.365 N 
HETATM   10  C10 UNL     1      20.630 -17.685  19.464  1.00  0.00     0.130 C 
HETATM   11  C11 UNL     1      19.283 -17.611  18.709  1.00  0.00     0.072 C 
HETATM   12  C12 UNL     1      18.987 -16.163  18.510  1.00  0.00    -0.015 C 
HETATM   13  C19 UNL     1      20.009 -15.458  17.713  1.00  0.00     0.072 C 
HETATM   14  C20 UNL     1      21.384 -16.028  17.694  1.00  0.00     0.130 C 
BRANCH  12  15
HETATM   15  N4  UNL     1      17.630 -15.826  18.208  1.00  0.00    -0.392 N 
ATOM     16  H4  UNL     1      17.399 -15.269  17.385  1.00  0.00     0.159 HD
BRANCH  15  17
HETATM   17  C13 UNL     1      16.624 -16.283  19.076  1.00  0.00     0.081 C 
HETATM   18  C14 UNL     1      15.543 -15.180  19.114  1.00  0.00     0.025 C 
HETATM   19  C15 UNL     1      14.470 -15.579  18.108  1.00  0.00     0.002 C 
HETATM   20  C16 UNL     1      13.686 -16.723  18.716  1.00  0.00     0.000 C 
HETATM   21  C17 UNL     1      14.628 -17.792  19.175  1.00  0.00     0.002 C 
HETATM   22  C18 UNL     1      16.054 -17.589  18.662  1.00  0.00     0.025 C 
ENDBRANCH  15  17
ENDBRANCH  12  15
ENDBRANCH   6   9
BRANCH   1  23
HETATM   23  C5  UNL     1      26.403 -17.675  19.561  1.00  0.00     0.253 C 
HETATM   24  N1  UNL     1      27.296 -16.866  18.873  1.00  0.00    -0.356 N 
ATOM     25  H1  UNL     1      26.981 -16.644  17.928  1.00  0.00     0.162 HD
HETATM   26  O1  UNL     1      26.492 -18.099  20.714  1.00  0.00    -0.268 OA
BRANCH  24  27
HETATM   27  C4  UNL     1      28.543 -16.280  19.185  1.00  0.00     0.138 C 
BRANCH  27  28
HETATM   28  C3  UNL     1      28.634 -14.823  19.415  1.00  0.00     0.073 C 
BRANCH  28  29
HETATM   29  C2  UNL     1      29.684 -14.476  20.496  1.00  0.00     0.012 C 
HETATM   30  C1  UNL     1      29.426 -15.246  21.748  1.00  0.00     0.006 C 
ENDBRANCH  28  29
BRANCH  28  31
HETATM   31  S1  UNL     1      27.088 -14.084  20.072  1.00  0.00    -0.049 SA
BRANCH  31  32
HETATM   32  C22 UNL     1      26.026 -13.459  18.760  1.00  0.00     0.443 C 
HETATM   33  F1  UNL     1      26.465 -12.298  18.164  1.00  0.00    -0.160 F 
HETATM   34  F2  UNL     1      25.681 -14.413  17.813  1.00  0.00    -0.160 F 
HETATM   35  F3  UNL     1      24.804 -13.140  19.381  1.00  0.00    -0.160 F 
ENDBRANCH  31  32
ENDBRANCH  28  31
ENDBRANCH  27  28
ENDBRANCH  24  27
ENDBRANCH   1  23
TORSDOF 9
ENDMDL
MODEL 3
REMARK VINA RESULT: -10.341656234      0.806      1.488
REMARK  9 active torsions:
REMARK  status: ('A' for Active; 'I' for Inactive)
REMARK    1  A    between atoms: C2_2  and  C3_3 
REMARK    2  A    between atoms: C3_3  and  C4_4 
REMARK    3  A    between atoms: C3_3  and  S1_31 
REMARK    4  A    between atoms: C4_4  and  N1_5 
REMARK       I    between atoms: N1_5  and  C5_7 
REMARK    5  A    between atoms: C5_7  and  C6_9 
REMARK    6  A    between atoms: C9_14  and  N3_15 
REMARK    7  A    between atoms: C12_18  and  N4_19 
REMARK    8  A    between atoms: N4_19  and  C13_21 
REMARK    9  A    between atoms: S1_31  and  C22_32 
ROOT
HETATM    1  C6  UNL     1      24.620 -18.085  18.284  1.00  0.00     0.058 A 
HETATM    2  C7  UNL     1      24.578 -18.817  17.126  1.00  0.00     0.036 A 
HETATM    3  C8  UNL     1      23.373 -19.030  16.458  1.00  0.00     0.091 A 
HETATM    4  N2  UNL     1      22.282 -18.488  17.006  1.00  0.00    -0.351 N 
ATOM      5  H2  UNL     1      21.395 -18.638  16.524  1.00  0.00     0.166 HD
HETATM    6  C9  UNL     1      22.250 -17.762  18.136  1.00  0.00     0.126 A 
HETATM    7  C21 UNL     1      23.461 -17.564  18.783  1.00  0.00     0.093 A 
HETATM    8 CL1  UNL     1      23.506 -16.629  20.246  1.00  0.00    -0.079 Cl
ENDROOT
BRANCH   6   9
HETATM    9  N3  UNL     1      21.053 -17.214  18.671  1.00  0.00    -0.365 N 
HETATM   10  C10 UNL     1      20.463 -17.844  19.838  1.00  0.00     0.130 C 
HETATM   11  C11 UNL     1      18.956 -17.910  19.499  1.00  0.00     0.072 C 
HETATM   12  C12 UNL     1      18.464 -16.502  19.480  1.00  0.00    -0.015 C 
HETATM   13  C19 UNL     1      19.133 -15.659  18.471  1.00  0.00     0.072 C 
HETATM   14  C20 UNL     1      20.497 -16.061  18.030  1.00  0.00     0.130 C 
BRANCH  12  15
HETATM   15  N4  UNL     1      17.049 -16.319  19.594  1.00  0.00    -0.392 N 
ATOM     16  H4  UNL     1      16.573 -16.453  20.486  1.00  0.00     0.159 HD
BRANCH  15  17
HETATM   17  C13 UNL     1      16.334 -15.951  18.442  1.00  0.00     0.081 C 
HETATM   18  C14 UNL     1      15.419 -17.147  18.094  1.00  0.00     0.025 C 
HETATM   19  C15 UNL     1      14.054 -16.848  18.700  1.00  0.00     0.002 C 
HETATM   20  C16 UNL     1      13.407 -15.777  17.847  1.00  0.00     0.000 C 
HETATM   21  C17 UNL     1      14.351 -14.626  17.680  1.00  0.00     0.002 C 
HETATM   22  C18 UNL     1      15.553 -14.703  18.621  1.00  0.00     0.025 C 
ENDBRANCH  15  17
ENDBRANCH  12  15
ENDBRANCH   6   9
BRANCH   1  23
HETATM   23  C5  UNL     1      25.947 -17.875  18.954  1.00  0.00     0.253 C 
HETATM   24  N1  UNL     1      26.761 -16.835  18.529  1.00  0.00    -0.356 N 
ATOM     25  H1  UNL     1      26.342 -16.289  17.775  1.00  0.00     0.162 HD
HETATM   26  O1  UNL     1      26.164 -18.695  19.848  1.00  0.00    -0.268 OA
BRANCH  24  27
HETATM   27  C4  UNL     1      28.037 -16.361  18.902  1.00  0.00     0.138 C 
BRANCH  27  28
HETATM   28  C3  UNL     1      28.220 -14.938  19.255  1.00  0.00     0.073 C 
BRANCH  28  29
HETATM   29  C2  UNL     1      29.434 -14.728  20.190  1.00  0.00     0.012 C 
HETATM   30  C1  UNL     1      29.294 -15.550  21.428  1.00  0.00     0.006 C 
ENDBRANCH  28  29
BRANCH  28  31
HETATM   31  S1  UNL     1      26.821 -14.232  20.212  1.00  0.00    -0.049 SA
BRANCH  31  32
HETATM   32  C22 UNL     1      25.525 -13.589  19.141  1.00  0.00     0.443 C 
HETATM   33  F1  UNL     1      25.776 -12.342  18.615  1.00  0.00    -0.160 F 
HETATM   34  F2  UNL     1      25.114 -14.478  18.158  1.00  0.00    -0.160 F 
HETATM   35  F3  UNL     1      24.392 -13.445  19.963  1.00  0.00    -0.160 F 
ENDBRANCH  31  32
ENDBRANCH  28  31
ENDBRANCH  27  28
ENDBRANCH  24  27
ENDBRANCH   1  23
TORSDOF 9
ENDMDL
MODEL 4
REMARK VINA RESULT: -10.126071500      2.052      2.788
REMARK  9 active torsions:
REMARK  status: ('A' for Active; 'I' for Inactive)
REMARK    1  A    between atoms: C2_2  and  C3_3 
REMARK    2  A    between atoms: C3_3  and  C4_4 
REMARK    3  A    between atoms: C3_3  and  S1_31 
REMARK    4  A    between atoms: C4_4  and  N1_5 
REMARK       I    between atoms: N1_5  and  C5_7 
REMARK    5  A    between atoms: C5_7  and  C6_9 
REMARK    6  A    between atoms: C9_14  and  N3_15 
REMARK    7  A    between atoms: C12_18  and  N4_19 
REMARK    8  A    between atoms: N4_19  and  C13_21 
REMARK    9  A    between atoms: S1_31  and  C22_32 
ROOT
HETATM    1  C6  UNL     1      24.376 -17.714  18.135  1.00  0.00     0.058 A 
HETATM    2  C7  UNL     1      24.427 -18.554  17.054  1.00  0.00     0.036 A 
HETATM    3  C8  UNL     1      23.257 -19.031  16.463  1.00  0.00     0.091 A 
HETATM    4  N2  UNL     1      22.106 -18.626  17.007  1.00  0.00    -0.351 N 
ATOM      5  H2  UNL     1      21.244 -18.969  16.582  1.00  0.00     0.166 HD
HETATM    6  C9  UNL     1      21.984 -17.807  18.064  1.00  0.00     0.126 A 
HETATM    7  C21 UNL     1      23.161 -17.347  18.635  1.00  0.00     0.093 A 
HETATM    8 CL1  UNL     1      23.088 -16.276  20.001  1.00  0.00    -0.079 Cl
ENDROOT
BRANCH   6   9
HETATM    9  N3  UNL     1      20.726 -17.415  18.599  1.00  0.00    -0.365 N 
HETATM   10  C10 UNL     1      20.060 -18.309  19.530  1.00  0.00     0.130 C 
HETATM   11  C11 UNL     1      18.591 -18.315  19.048  1.00  0.00     0.072 C 
HETATM   12  C12 UNL     1      18.054 -16.948  19.310  1.00  0.00    -0.015 C 
HETATM   13  C19 UNL     1      18.778 -15.884  18.589  1.00  0.00     0.072 C 
HETATM   14  C20 UNL     1      20.187 -16.153  18.194  1.00  0.00     0.130 C 
BRANCH  12  15
HETATM   15  N4  UNL     1      16.629 -16.817  19.333  1.00  0.00    -0.392 N 
ATOM     16  H4  UNL     1      16.082 -17.177  20.115  1.00  0.00     0.159 HD
BRANCH  15  17
HETATM   17  C13 UNL     1      16.005 -16.179  18.248  1.00  0.00     0.081 C 
HETATM   18  C14 UNL     1      14.864 -17.113  17.786  1.00  0.00     0.025 C 
HETATM   19  C15 UNL     1      13.590 -16.614  18.455  1.00  0.00     0.002 C 
HETATM   20  C16 UNL     1      13.177 -15.341  17.746  1.00  0.00     0.000 C 
HETATM   21  C17 UNL     1      14.337 -14.396  17.690  1.00  0.00     0.002 C 
HETATM   22  C18 UNL     1      15.498 -14.827  18.587  1.00  0.00     0.025 C 
ENDBRANCH  15  17
ENDBRANCH  12  15
ENDBRANCH   6   9
BRANCH   1  23
HETATM   23  C5  UNL     1      25.668 -17.221  18.723  1.00  0.00     0.253 C 
HETATM   24  N1  UNL     1      26.060 -15.911  18.485  1.00  0.00    -0.356 N 
ATOM     25  H1  UNL     1      25.387 -15.394  17.918  1.00  0.00     0.162 HD
HETATM   26  O1  UNL     1      26.253 -18.084  19.378  1.00  0.00    -0.268 OA
BRANCH  24  27
HETATM   27  C4  UNL     1      27.179 -15.131  18.852  1.00  0.00     0.138 C 
BRANCH  27  28
HETATM   28  C3  UNL     1      26.984 -13.858  19.575  1.00  0.00     0.073 C 
BRANCH  28  29
HETATM   29  C2  UNL     1      27.604 -12.663  18.815  1.00  0.00     0.012 C 
HETATM   30  C1  UNL     1      26.559 -11.931  18.042  1.00  0.00     0.006 C 
ENDBRANCH  28  29
BRANCH  28  31
HETATM   31  S1  UNL     1      27.823 -13.804  21.207  1.00  0.00    -0.049 SA
BRANCH  31  32
HETATM   32  C22 UNL     1      29.067 -15.094  21.372  1.00  0.00     0.443 C 
HETATM   33  F1  UNL     1      29.993 -15.138  20.355  1.00  0.00    -0.160 F 
HETATM   34  F2  UNL     1      29.682 -15.128  22.616  1.00  0.00    -0.160 F 
HETATM   35  F3  UNL     1      28.362 -16.310  21.309  1.00  0.00    -0.160 F 
ENDBRANCH  31  32
ENDBRANCH  28  31
ENDBRANCH  27  28
ENDBRANCH  24  27
ENDBRANCH   1  23
TORSDOF 9
ENDMDL
MODEL 5
REMARK VINA RESULT: -10.074430136      1.858      2.736
REMARK  9 active torsions:
REMARK  status: ('A' for Active; 'I' for Inactive)
REMARK    1  A    between atoms: C2_2  and  C3_3 
REMARK    2  A    between atoms: C3_3  and  C4_4 
REMARK    3  A    between atoms: C3_3  and  S1_31 
REMARK    4  A    between atoms: C4_4  and  N1_5 
REMARK       I    between atoms: N1_5  and  C5_7 
REMARK    5  A    between atoms: C5_7  and  C6_9 
REMARK    6  A    between atoms: C9_14  and  N3_15 
REMARK    7  A    between atoms: C12_18  and  N4_19 
REMARK    8  A    between atoms: N4_19  and  C13_21 
REMARK    9  A    between atoms: S1_31  and  C22_32 
ROOT
HETATM    1  C6  UNL     1      24.294 -17.937  18.455  1.00  0.00     0.058 A 
HETATM    2  C7  UNL     1      24.377 -18.607  17.263  1.00  0.00     0.036 A 
HETATM    3  C8  UNL     1      23.229 -18.905  16.528  1.00  0.00     0.091 A 
HETATM    4  N2  UNL     1      22.066 -18.506  17.051  1.00  0.00    -0.351 N 
ATOM      5  H2  UNL     1      21.220 -18.719  16.522  1.00  0.00     0.166 HD
HETATM    6  C9  UNL     1      21.913 -17.848  18.213  1.00  0.00     0.126 A 
HETATM    7  C21 UNL     1      23.069 -17.564  18.924  1.00  0.00     0.093 A 
HETATM    8 CL1  UNL     1      22.956 -16.709  20.432  1.00  0.00    -0.079 Cl
ENDROOT
BRANCH   6   9
HETATM    9  N3  UNL     1      20.644 -17.454  18.717  1.00  0.00    -0.365 N 
HETATM   10  C10 UNL     1      19.937 -18.361  19.603  1.00  0.00     0.130 C 
HETATM   11  C11 UNL     1      18.484 -18.335  19.075  1.00  0.00     0.072 C 
HETATM   12  C12 UNL     1      17.956 -16.968  19.355  1.00  0.00    -0.015 C 
HETATM   13  C19 UNL     1      18.716 -15.896  18.684  1.00  0.00     0.072 C 
HETATM   14  C20 UNL     1      20.134 -16.174  18.328  1.00  0.00     0.130 C 
BRANCH  12  15
HETATM   15  N4  UNL     1      16.533 -16.818  19.336  1.00  0.00    -0.392 N 
ATOM     16  H4  UNL     1      15.955 -17.200  20.085  1.00  0.00     0.159 HD
BRANCH  15  17
HETATM   17  C13 UNL     1      15.954 -16.131  18.256  1.00  0.00     0.081 C 
HETATM   18  C14 UNL     1      14.826 -17.037  17.713  1.00  0.00     0.025 C 
HETATM   19  C15 UNL     1      13.530 -16.558  18.354  1.00  0.00     0.002 C 
HETATM   20  C16 UNL     1      13.151 -15.253  17.684  1.00  0.00     0.000 C 
HETATM   21  C17 UNL     1      14.318 -14.315  17.711  1.00  0.00     0.002 C 
HETATM   22  C18 UNL     1      15.441 -14.791  18.632  1.00  0.00     0.025 C 
ENDBRANCH  15  17
ENDBRANCH  12  15
ENDBRANCH   6   9
BRANCH   1  23
HETATM   23  C5  UNL     1      25.564 -17.631  19.196  1.00  0.00     0.253 C 
HETATM   24  N1  UNL     1      25.796 -16.333  19.630  1.00  0.00    -0.356 N 
ATOM     25  H1  UNL     1      25.033 -15.697  19.396  1.00  0.00     0.162 HD
HETATM   26  O1  UNL     1      26.283 -18.621  19.338  1.00  0.00    -0.268 OA
BRANCH  24  27
HETATM   27  C4  UNL     1      26.849 -15.694  20.320  1.00  0.00     0.138 C 
BRANCH  27  28
HETATM   28  C3  UNL     1      26.822 -14.230  20.511  1.00  0.00     0.073 C 
BRANCH  28  29
HETATM   29  C2  UNL     1      25.595 -13.583  19.827  1.00  0.00     0.012 C 
HETATM   30  C1  UNL     1      25.981 -12.971  18.521  1.00  0.00     0.006 C 
ENDBRANCH  28  29
BRANCH  28  31
HETATM   31  S1  UNL     1      28.244 -13.362  19.739  1.00  0.00    -0.049 SA
BRANCH  31  32
HETATM   32  C22 UNL     1      29.486 -14.511  19.125  1.00  0.00     0.443 C 
HETATM   33  F1  UNL     1      28.982 -15.600  18.451  1.00  0.00    -0.160 F 
HETATM   34  F2  UNL     1      30.509 -13.905  18.409  1.00  0.00    -0.160 F 
HETATM   35  F3  UNL     1      30.127 -15.023  20.268  1.00  0.00    -0.160 F 
ENDBRANCH  31  32
ENDBRANCH  28  31
ENDBRANCH  27  28
ENDBRANCH  24  27
ENDBRANCH   1  23
TORSDOF 9
ENDMDL
