MODEL 1
REMARK VINA RESULT: -4.400340144      0.000      0.000
REMARK  5 active torsions:
REMARK  status: ('A' for Active; 'I' for Inactive)
REMARK    1  A    between atoms: N1_1  and  C1_4 
REMARK    2  A    between atoms: C3_10  and  N4_11 
REMARK    3  A    between atoms: N4_11  and  C4_13 
REMARK    4  A    between atoms: C4_13  and  C5_14 
REMARK    5  A    between atoms: C5_14  and  N5_15 
ROOT
HETATM    1  C1  UNL     1      12.139  13.607 -12.078  1.00  0.00     0.692 A 
HETATM    2  N2  UNL     1      12.881  13.558 -13.199  1.00  0.00    -0.133 N 
ATOM      3  H2  UNL     1      12.983  12.662 -13.677  1.00  0.00     0.205 HD
HETATM    4  N3  UNL     1      13.484  14.620 -13.709  1.00  0.00    -0.294 N 
ATOM      5  H3  UNL     1      14.036  14.531 -14.562  1.00  0.00     0.186 HD
HETATM    6  C2  UNL     1      13.371  15.818 -13.104  1.00  0.00     0.156 A 
HETATM    7  C3  UNL     1      12.611  15.909 -11.941  1.00  0.00     0.134 A 
HETATM    8  N6  UNL     1      12.020  14.798 -11.466  1.00  0.00    -0.175 N 
ATOM      9  H6  UNL     1      11.462  14.861 -10.613  1.00  0.00     0.186 HD
ENDROOT
BRANCH   7  10
HETATM   10  N4  UNL     1      12.490  17.048 -11.345  1.00  0.00    -0.373 N 
ATOM     11  H4  UNL     1      11.701  17.195 -10.715  1.00  0.00     0.161 HD
BRANCH  10  12
HETATM   12  C4  UNL     1      13.436  18.118 -11.543  1.00  0.00     0.148 C 
BRANCH  12  13
HETATM   13  C5  UNL     1      14.277  18.365 -10.318  1.00  0.00     0.249 C 
BRANCH  13  14
HETATM   14  N5  UNL     1      15.422  19.199 -10.622  1.00  0.00    -0.078 N 
ATOM     15  H53 UNL     1      15.688  19.775  -9.823  1.00  0.00     0.274 HD
ATOM     16  H52 UNL     1      16.274  18.645 -10.708  1.00  0.00     0.274 HD
ATOM     17  H51 UNL     1      15.259  19.767 -11.454  1.00  0.00     0.274 HD
ENDBRANCH  13  14
ENDBRANCH  12  13
ENDBRANCH  10  12
ENDBRANCH   7  10
BRANCH   1  18
HETATM   18  N1  UNL     1      11.548  12.542 -11.587  1.00  0.00    -0.233 N 
ATOM     19  H12 UNL     1      11.556  12.361 -10.583  1.00  0.00     0.174 HD
ATOM     20  H11 UNL     1      11.068  11.868 -12.183  1.00  0.00     0.174 HD
ENDBRANCH   1  18
TORSDOF 5
ENDMDL
MODEL 2
REMARK VINA RESULT: -4.376014477      1.075      1.110
REMARK  5 active torsions:
REMARK  status: ('A' for Active; 'I' for Inactive)
REMARK    1  A    between atoms: N1_1  and  C1_4 
REMARK    2  A    between atoms: C3_10  and  N4_11 
REMARK    3  A    between atoms: N4_11  and  C4_13 
REMARK    4  A    between atoms: C4_13  and  C5_14 
REMARK    5  A    between atoms: C5_14  and  N5_15 
ROOT
HETATM    1  C1  UNL     1      12.137  13.605 -12.074  1.00  0.00     0.692 A 
HETATM    2  N2  UNL     1      12.883  13.568 -13.192  1.00  0.00    -0.133 N 
ATOM      3  H2  UNL     1      12.992  12.677 -13.677  1.00  0.00     0.205 HD
HETATM    4  N3  UNL     1      13.482  14.639 -13.693  1.00  0.00    -0.294 N 
ATOM      5  H3  UNL     1      14.037  14.559 -14.545  1.00  0.00     0.186 HD
HETATM    6  C2  UNL     1      13.359  15.831 -13.080  1.00  0.00     0.156 A 
HETATM    7  C3  UNL     1      12.594  15.909 -11.919  1.00  0.00     0.134 A 
HETATM    8  N6  UNL     1      12.008  14.791 -11.453  1.00  0.00    -0.175 N 
ATOM      9  H6  UNL     1      11.448  14.844 -10.603  1.00  0.00     0.186 HD
ENDROOT
BRANCH   7  10
HETATM   10  N4  UNL     1      12.463  17.043 -11.315  1.00  0.00    -0.373 N 
ATOM     11  H4  UNL     1      11.525  17.395 -11.123  1.00  0.00     0.161 HD
BRANCH  10  12
HETATM   12  C4  UNL     1      13.603  17.825 -10.904  1.00  0.00     0.148 C 
BRANCH  12  13
HETATM   13  C5  UNL     1      13.222  19.238 -10.549  1.00  0.00     0.249 C 
BRANCH  13  14
HETATM   14  N5  UNL     1      12.316  19.274  -9.420  1.00  0.00    -0.078 N 
ATOM     15  H53 UNL     1      11.355  19.446  -9.717  1.00  0.00     0.274 HD
ATOM     16  H52 UNL     1      12.191  18.348  -9.011  1.00  0.00     0.274 HD
ATOM     17  H51 UNL     1      12.618  19.954  -8.721  1.00  0.00     0.274 HD
ENDBRANCH  13  14
ENDBRANCH  12  13
ENDBRANCH  10  12
ENDBRANCH   7  10
BRANCH   1  18
HETATM   18  N1  UNL     1      11.552  12.533 -11.593  1.00  0.00    -0.233 N 
ATOM     19  H12 UNL     1      12.104  11.722 -11.311  1.00  0.00     0.174 HD
ATOM     20  H11 UNL     1      10.540  12.472 -11.484  1.00  0.00     0.174 HD
ENDBRANCH   1  18
TORSDOF 5
ENDMDL
MODEL 3
REMARK VINA RESULT: -4.357624572      2.759      4.064
REMARK  5 active torsions:
REMARK  status: ('A' for Active; 'I' for Inactive)
REMARK    1  A    between atoms: N1_1  and  C1_4 
REMARK    2  A    between atoms: C3_10  and  N4_11 
REMARK    3  A    between atoms: N4_11  and  C4_13 
REMARK    4  A    between atoms: C4_13  and  C5_14 
REMARK    5  A    between atoms: C5_14  and  N5_15 
ROOT
HETATM    1  C1  UNL     1      12.763  15.881 -12.085  1.00  0.00     0.692 A 
HETATM    2  N2  UNL     1      13.324  16.740 -11.216  1.00  0.00    -0.133 N 
ATOM      3  H2  UNL     1      13.133  16.622 -10.221  1.00  0.00     0.205 HD
HETATM    4  N3  UNL     1      14.115  17.733 -11.595  1.00  0.00    -0.294 N 
ATOM      5  H3  UNL     1      14.517  18.358 -10.896  1.00  0.00     0.186 HD
HETATM    6  C2  UNL     1      14.389  17.919 -12.900  1.00  0.00     0.156 A 
HETATM    7  C3  UNL     1      13.826  17.049 -13.831  1.00  0.00     0.134 A 
HETATM    8  N6  UNL     1      13.030  16.058 -13.391  1.00  0.00    -0.175 N 
ATOM      9  H6  UNL     1      12.615  15.419 -14.070  1.00  0.00     0.186 HD
ENDROOT
BRANCH   7  10
HETATM   10  N4  UNL     1      14.076  17.209 -15.087  1.00  0.00    -0.373 N 
ATOM     11  H4  UNL     1      13.906  16.434 -15.728  1.00  0.00     0.161 HD
BRANCH  10  12
HETATM   12  C4  UNL     1      14.587  18.451 -15.612  1.00  0.00     0.148 C 
BRANCH  12  13
HETATM   13  C5  UNL     1      13.542  19.217 -16.378  1.00  0.00     0.249 C 
BRANCH  13  14
HETATM   14  N5  UNL     1      12.703  18.331 -17.159  1.00  0.00    -0.078 N 
ATOM     15  H53 UNL     1      12.330  18.801 -17.984  1.00  0.00     0.274 HD
ATOM     16  H52 UNL     1      13.253  17.609 -17.623  1.00  0.00     0.274 HD
ATOM     17  H51 UNL     1      11.958  17.927 -16.590  1.00  0.00     0.274 HD
ENDBRANCH  13  14
ENDBRANCH  12  13
ENDBRANCH  10  12
ENDBRANCH   7  10
BRANCH   1  18
HETATM   18  N1  UNL     1      11.981  14.903 -11.690  1.00  0.00    -0.233 N 
ATOM     19  H12 UNL     1      12.376  14.057 -11.279  1.00  0.00     0.174 HD
ATOM     20  H11 UNL     1      10.966  14.953 -11.779  1.00  0.00     0.174 HD
ENDBRANCH   1  18
TORSDOF 5
ENDMDL
MODEL 4
REMARK VINA RESULT: -4.327842725      4.249      5.625
REMARK  5 active torsions:
REMARK  status: ('A' for Active; 'I' for Inactive)
REMARK    1  A    between atoms: N1_1  and  C1_4 
REMARK    2  A    between atoms: C3_10  and  N4_11 
REMARK    3  A    between atoms: N4_11  and  C4_13 
REMARK    4  A    between atoms: C4_13  and  C5_14 
REMARK    5  A    between atoms: C5_14  and  N5_15 
ROOT
HETATM    1  C1  UNL     1      10.714  18.849  -9.837  1.00  0.00     0.692 A 
HETATM    2  N2  UNL     1      11.752  18.094 -10.235  1.00  0.00    -0.133 N 
ATOM      3  H2  UNL     1      11.573  17.134 -10.529  1.00  0.00     0.205 HD
HETATM    4  N3  UNL     1      12.999  18.542 -10.263  1.00  0.00    -0.294 N 
ATOM      5  H3  UNL     1      13.753  17.930 -10.574  1.00  0.00     0.186 HD
HETATM    6  C2  UNL     1      13.272  19.804  -9.882  1.00  0.00     0.156 A 
HETATM    7  C3  UNL     1      12.222  20.617  -9.464  1.00  0.00     0.134 A 
HETATM    8  N6  UNL     1      10.975  20.111  -9.455  1.00  0.00    -0.175 N 
ATOM      9  H6  UNL     1      10.204  20.704  -9.148  1.00  0.00     0.186 HD
ENDROOT
BRANCH   7  10
HETATM   10  N4  UNL     1      12.462  21.831  -9.094  1.00  0.00    -0.373 N 
ATOM     11  H4  UNL     1      12.117  22.149  -8.188  1.00  0.00     0.161 HD
BRANCH  10  12
HETATM   12  C4  UNL     1      13.203  22.749  -9.923  1.00  0.00     0.148 C 
BRANCH  12  13
HETATM   13  C5  UNL     1      13.852  23.844  -9.117  1.00  0.00     0.249 C 
BRANCH  13  14
HETATM   14  N5  UNL     1      13.087  25.072  -9.180  1.00  0.00    -0.078 N 
ATOM     15  H53 UNL     1      12.102  24.910  -8.971  1.00  0.00     0.274 HD
ATOM     16  H52 UNL     1      13.313  25.693  -8.403  1.00  0.00     0.274 HD
ATOM     17  H51 UNL     1      13.206  25.539 -10.080  1.00  0.00     0.274 HD
ENDBRANCH  13  14
ENDBRANCH  12  13
ENDBRANCH  10  12
ENDBRANCH   7  10
BRANCH   1  18
HETATM   18  N1  UNL     1       9.485  18.387  -9.816  1.00  0.00    -0.233 N 
ATOM     19  H12 UNL     1       9.163  17.805  -9.043  1.00  0.00     0.174 HD
ATOM     20  H11 UNL     1       8.819  18.590 -10.562  1.00  0.00     0.174 HD
ENDBRANCH   1  18
TORSDOF 5
ENDMDL
MODEL 5
REMARK VINA RESULT: -4.322247762      2.284      3.960
REMARK  5 active torsions:
REMARK  status: ('A' for Active; 'I' for Inactive)
REMARK    1  A    between atoms: N1_1  and  C1_4 
REMARK    2  A    between atoms: C3_10  and  N4_11 
REMARK    3  A    between atoms: N4_11  and  C4_13 
REMARK    4  A    between atoms: C4_13  and  C5_14 
REMARK    5  A    between atoms: C5_14  and  N5_15 
ROOT
HETATM    1  C1  UNL     1      13.057  16.851 -11.988  1.00  0.00     0.692 A 
HETATM    2  N2  UNL     1      12.200  17.265 -11.038  1.00  0.00    -0.133 N 
ATOM      3  H2  UNL     1      11.304  16.787 -10.947  1.00  0.00     0.205 HD
HETATM    4  N3  UNL     1      12.469  18.267 -10.213  1.00  0.00    -0.294 N 
ATOM      5  H3  UNL     1      11.786  18.543  -9.508  1.00  0.00     0.186 HD
HETATM    6  C2  UNL     1      13.643  18.920 -10.305  1.00  0.00     0.156 A 
HETATM    7  C3  UNL     1      14.557  18.520 -11.277  1.00  0.00     0.134 A 
HETATM    8  N6  UNL     1      14.232  17.497 -12.088  1.00  0.00    -0.175 N 
ATOM      9  H6  UNL     1      14.898  17.202 -12.801  1.00  0.00     0.186 HD
ENDROOT
BRANCH   7  10
HETATM   10  N4  UNL     1      15.688  19.133 -11.381  1.00  0.00    -0.373 N 
ATOM     11  H4  UNL     1      16.100  19.555 -10.548  1.00  0.00     0.161 HD
BRANCH  10  12
HETATM   12  C4  UNL     1      16.385  19.241 -12.638  1.00  0.00     0.148 C 
BRANCH  12  13
HETATM   13  C5  UNL     1      16.027  20.501 -13.381  1.00  0.00     0.249 C 
BRANCH  13  14
HETATM   14  N5  UNL     1      17.202  21.144 -13.930  1.00  0.00    -0.078 N 
ATOM     15  H53 UNL     1      18.059  20.679 -13.628  1.00  0.00     0.274 HD
ATOM     16  H52 UNL     1      17.281  20.984 -14.934  1.00  0.00     0.274 HD
ATOM     17  H51 UNL     1      17.220  22.140 -13.707  1.00  0.00     0.274 HD
ENDBRANCH  13  14
ENDBRANCH  12  13
ENDBRANCH  10  12
ENDBRANCH   7  10
BRANCH   1  18
HETATM   18  N1  UNL     1      12.771  15.856 -12.796  1.00  0.00    -0.233 N 
ATOM     19  H12 UNL     1      12.286  15.029 -12.449  1.00  0.00     0.174 HD
ATOM     20  H11 UNL     1      13.021  15.875 -13.785  1.00  0.00     0.174 HD
ENDBRANCH   1  18
TORSDOF 5
ENDMDL
