MODEL 1
REMARK VINA RESULT: -10.696728363      0.000      0.000
REMARK  14 active torsions:
REMARK  status: ('A' for Active; 'I' for Inactive)
REMARK    1  A    between atoms: C2_2  and  N1_3 
REMARK    2  A    between atoms: C2_2  and  C4_8 
REMARK       I    between atoms: C4_8  and  N4_10 
REMARK    3  A    between atoms: N4_10  and  C5_12 
REMARK    4  A    between atoms: C5_12  and  C6_13 
REMARK    5  A    between atoms: C9_16  and  C10_17 
REMARK    6  A    between atoms: C10_17  and  C11_18 
REMARK    7  A    between atoms: C11_18  and  C12_19 
REMARK    8  A    between atoms: C12_19  and  N5_20 
REMARK    9  A    between atoms: N5_20  and  C13_22 
REMARK   10  A    between atoms: C14_25  and  C15_26 
REMARK   11  A    between atoms: C18_31  and  N8_32 
REMARK   12  A    between atoms: N8_32  and  C19_34 
REMARK   13  A    between atoms: C19_34  and  C20_35 
REMARK   14  A    between atoms: C20_35  and  C21_36 
ROOT
HETATM    1  N5  UNL     1      20.784  42.989  45.808  1.00  0.00    -0.205 N 
ATOM      2  H5  UNL     1      20.357  42.785  46.711  1.00  0.00     0.183 HD
ENDROOT
BRANCH   1   3
HETATM    3  C12 UNL     1      21.948  42.257  45.500  1.00  0.00     0.079 C 
BRANCH   3   4
HETATM    4  C11 UNL     1      23.236  42.998  45.401  1.00  0.00     0.049 C 
BRANCH   4   5
HETATM    5  C10 UNL     1      23.744  43.174  43.980  1.00  0.00     0.043 C 
BRANCH   5   6
HETATM    6  C9  UNL     1      23.764  44.600  43.644  1.00  0.00    -0.058 A 
HETATM    7  C8  UNL     1      24.216  45.479  44.619  1.00  0.00     0.007 A 
HETATM    8  C7  UNL     1      24.220  46.820  44.308  1.00  0.00     0.009 A 
HETATM    9  C6  UNL     1      23.794  47.273  43.084  1.00  0.00    -0.041 A 
HETATM   10  C28 UNL     1      23.354  46.383  42.145  1.00  0.00     0.009 A 
HETATM   11  C27 UNL     1      23.329  45.032  42.404  1.00  0.00     0.007 A 
BRANCH   9  12
HETATM   12  C5  UNL     1      23.823  48.715  42.789  1.00  0.00     0.161 C 
BRANCH  12  13
HETATM   13  N4  UNL     1      24.206  49.433  43.985  1.00  0.00    -0.355 N 
HETATM   14  C4  UNL     1      23.374  50.434  44.532  1.00  0.00     0.240 C 
HETATM   15  O1  UNL     1      22.288  50.716  43.985  1.00  0.00    -0.271 OA
ATOM     16  H4  UNL     1      25.092  49.212  44.441  1.00  0.00     0.162 HD
BRANCH  14  17
HETATM   17  C2  UNL     1      23.778  51.161  45.756  1.00  0.00     0.171 C 
HETATM   18  C1  UNL     1      23.403  52.623  45.518  1.00  0.00     0.042 C 
BRANCH  17  19
HETATM   19  N1  UNL     1      23.070  50.631  46.879  1.00  0.00    -0.354 N 
HETATM   20  C3  UNL     1      23.383  49.539  47.478  1.00  0.00     0.197 C 
HETATM   21  N2  UNL     1      24.493  48.738  47.060  1.00  0.00    -0.067 NA
HETATM   22  N3  UNL     1      22.570  49.169  48.581  1.00  0.00    -0.067 NA
ATOM     23  H1  UNL     1      22.267  51.154  47.227  1.00  0.00     0.162 HD
ENDBRANCH  17  19
ENDBRANCH  14  17
ENDBRANCH  12  13
ENDBRANCH   9  12
ENDBRANCH   5   6
ENDBRANCH   4   5
ENDBRANCH   3   4
ENDBRANCH   1   3
BRANCH   1  24
HETATM   24  C13 UNL     1      20.195  43.877  45.103  1.00  0.00     0.697 A 
HETATM   25  N6  UNL     1      20.621  45.125  44.881  1.00  0.00    -0.179 N 
HETATM   26  C14 UNL     1      19.944  45.997  44.133  1.00  0.00     0.117 A 
ATOM     27  H6  UNL     1      21.501  45.422  45.302  1.00  0.00     0.185 HD
HETATM   28  N7  UNL     1      18.768  45.629  43.561  1.00  0.00    -0.179 N 
HETATM   29  C18 UNL     1      18.291  44.388  43.750  1.00  0.00     0.694 A 
ATOM     30  H7  UNL     1      18.248  46.295  42.989  1.00  0.00     0.185 HD
HETATM   31  N9  UNL     1      18.999  43.545  44.505  1.00  0.00    -0.022 N 
ATOM     32  H9  UNL     1      18.634  42.603  44.647  1.00  0.00     0.203 HD
BRANCH  26  33
HETATM   33  C15 UNL     1      20.421  47.393  43.892  1.00  0.00     0.054 A 
HETATM   34  C16 UNL     1      19.565  48.516  44.357  1.00  0.00     0.013 A 
HETATM   35  C17 UNL     1      20.905  48.177  45.062  1.00  0.00     0.013 A 
ENDBRANCH  26  33
BRANCH  29  36
HETATM   36  N8  UNL     1      17.187  44.036  43.219  1.00  0.00    -0.225 N 
ATOM     37  H8  UNL     1      16.396  43.968  43.860  1.00  0.00     0.177 HD
BRANCH  36  38
HETATM   38  C19 UNL     1      16.901  43.726  41.869  1.00  0.00     0.142 C 
BRANCH  38  39
HETATM   39  C20 UNL     1      17.276  44.830  40.902  1.00  0.00     0.058 C 
BRANCH  39  40
HETATM   40  C21 UNL     1      16.121  45.717  40.612  1.00  0.00    -0.057 A 
HETATM   41  C22 UNL     1      16.361  46.922  39.991  1.00  0.00     0.007 A 
HETATM   42  C23 UNL     1      15.274  47.732  39.735  1.00  0.00     0.001 A 
HETATM   43  C24 UNL     1      13.994  47.352  40.085  1.00  0.00     0.000 A 
HETATM   44  C25 UNL     1      13.746  46.136  40.711  1.00  0.00     0.001 A 
HETATM   45  C26 UNL     1      14.841  45.332  40.965  1.00  0.00     0.007 A 
ENDBRANCH  39  40
ENDBRANCH  38  39
ENDBRANCH  36  38
ENDBRANCH  29  36
ENDBRANCH   1  24
TORSDOF 14
ENDMDL
MODEL 2
REMARK VINA RESULT: -10.162298351      1.137      1.794
REMARK  14 active torsions:
REMARK  status: ('A' for Active; 'I' for Inactive)
REMARK    1  A    between atoms: C2_2  and  N1_3 
REMARK    2  A    between atoms: C2_2  and  C4_8 
REMARK       I    between atoms: C4_8  and  N4_10 
REMARK    3  A    between atoms: N4_10  and  C5_12 
REMARK    4  A    between atoms: C5_12  and  C6_13 
REMARK    5  A    between atoms: C9_16  and  C10_17 
REMARK    6  A    between atoms: C10_17  and  C11_18 
REMARK    7  A    between atoms: C11_18  and  C12_19 
REMARK    8  A    between atoms: C12_19  and  N5_20 
REMARK    9  A    between atoms: N5_20  and  C13_22 
REMARK   10  A    between atoms: C14_25  and  C15_26 
REMARK   11  A    between atoms: C18_31  and  N8_32 
REMARK   12  A    between atoms: N8_32  and  C19_34 
REMARK   13  A    between atoms: C19_34  and  C20_35 
REMARK   14  A    between atoms: C20_35  and  C21_36 
ROOT
HETATM    1  N5  UNL     1      20.687  43.000  45.701  1.00  0.00    -0.205 N 
ATOM      2  H5  UNL     1      20.198  42.721  46.551  1.00  0.00     0.183 HD
ENDROOT
BRANCH   1   3
HETATM    3  C12 UNL     1      21.949  42.407  45.496  1.00  0.00     0.079 C 
BRANCH   3   4
HETATM    4  C11 UNL     1      23.132  43.303  45.370  1.00  0.00     0.049 C 
BRANCH   4   5
HETATM    5  C10 UNL     1      23.595  43.524  43.940  1.00  0.00     0.043 C 
BRANCH   5   6
HETATM    6  C9  UNL     1      23.682  44.962  43.675  1.00  0.00    -0.058 A 
HETATM    7  C8  UNL     1      24.236  45.761  44.666  1.00  0.00     0.007 A 
HETATM    8  C7  UNL     1      24.303  47.115  44.422  1.00  0.00     0.009 A 
HETATM    9  C6  UNL     1      23.843  47.654  43.246  1.00  0.00    -0.041 A 
HETATM   10  C28 UNL     1      23.304  46.841  42.290  1.00  0.00     0.009 A 
HETATM   11  C27 UNL     1      23.211  45.482  42.482  1.00  0.00     0.007 A 
BRANCH   9  12
HETATM   12  C5  UNL     1      23.943  49.106  43.021  1.00  0.00     0.161 C 
BRANCH  12  13
HETATM   13  N4  UNL     1      24.020  49.777  44.301  1.00  0.00    -0.355 N 
HETATM   14  C4  UNL     1      23.047  50.726  44.686  1.00  0.00     0.240 C 
HETATM   15  O1  UNL     1      22.102  51.002  43.919  1.00  0.00    -0.271 OA
ATOM     16  H4  UNL     1      24.789  49.560  44.935  1.00  0.00     0.162 HD
BRANCH  14  17
HETATM   17  C2  UNL     1      23.138  51.405  45.997  1.00  0.00     0.171 C 
HETATM   18  C1  UNL     1      23.229  50.292  47.039  1.00  0.00     0.042 C 
BRANCH  17  19
HETATM   19  N1  UNL     1      24.307  52.227  46.027  1.00  0.00    -0.354 N 
HETATM   20  C3  UNL     1      24.338  53.450  45.639  1.00  0.00     0.197 C 
HETATM   21  N2  UNL     1      23.176  54.112  45.128  1.00  0.00    -0.067 NA
HETATM   22  N3  UNL     1      25.587  54.115  45.746  1.00  0.00    -0.067 NA
ATOM     23  H1  UNL     1      25.171  51.815  46.379  1.00  0.00     0.162 HD
ENDBRANCH  17  19
ENDBRANCH  14  17
ENDBRANCH  12  13
ENDBRANCH   9  12
ENDBRANCH   5   6
ENDBRANCH   4   5
ENDBRANCH   3   4
ENDBRANCH   1   3
BRANCH   1  24
HETATM   24  C13 UNL     1      20.076  43.842  44.960  1.00  0.00     0.697 A 
HETATM   25  N6  UNL     1      20.408  45.124  44.775  1.00  0.00    -0.179 N 
HETATM   26  C14 UNL     1      19.715  45.944  43.985  1.00  0.00     0.117 A 
ATOM     27  H6  UNL     1      21.227  45.491  45.261  1.00  0.00     0.185 HD
HETATM   28  N7  UNL     1      18.618  45.485  43.327  1.00  0.00    -0.179 N 
HETATM   29  C18 UNL     1      18.237  44.205  43.475  1.00  0.00     0.694 A 
ATOM     30  H7  UNL     1      18.085  46.110  42.723  1.00  0.00     0.185 HD
HETATM   31  N9  UNL     1      18.958  43.416  44.275  1.00  0.00    -0.022 N 
ATOM     32  H9  UNL     1      18.666  42.445  44.385  1.00  0.00     0.203 HD
BRANCH  26  33
HETATM   33  C15 UNL     1      20.087  47.378  43.786  1.00  0.00     0.054 A 
HETATM   34  C16 UNL     1      19.350  48.408  44.566  1.00  0.00     0.013 A 
HETATM   35  C17 UNL     1      20.830  48.064  44.879  1.00  0.00     0.013 A 
ENDBRANCH  26  33
BRANCH  29  36
HETATM   36  N8  UNL     1      17.207  43.767  42.864  1.00  0.00    -0.225 N 
ATOM     37  H8  UNL     1      16.519  43.294  43.450  1.00  0.00     0.177 HD
BRANCH  36  38
HETATM   38  C19 UNL     1      16.883  43.842  41.489  1.00  0.00     0.142 C 
BRANCH  38  39
HETATM   39  C20 UNL     1      15.416  44.112  41.227  1.00  0.00     0.058 C 
BRANCH  39  40
HETATM   40  C21 UNL     1      15.198  45.486  40.706  1.00  0.00    -0.057 A 
HETATM   41  C22 UNL     1      16.289  46.197  40.259  1.00  0.00     0.007 A 
HETATM   42  C23 UNL     1      16.063  47.472  39.783  1.00  0.00     0.001 A 
HETATM   43  C24 UNL     1      14.795  48.016  39.753  1.00  0.00     0.000 A 
HETATM   44  C25 UNL     1      13.690  47.303  40.202  1.00  0.00     0.001 A 
HETATM   45  C26 UNL     1      13.926  46.026  40.678  1.00  0.00     0.007 A 
ENDBRANCH  39  40
ENDBRANCH  38  39
ENDBRANCH  36  38
ENDBRANCH  29  36
ENDBRANCH   1  24
TORSDOF 14
ENDMDL
MODEL 3
REMARK VINA RESULT: -8.801073164      2.766      9.297
REMARK  14 active torsions:
REMARK  status: ('A' for Active; 'I' for Inactive)
REMARK    1  A    between atoms: C2_2  and  N1_3 
REMARK    2  A    between atoms: C2_2  and  C4_8 
REMARK       I    between atoms: C4_8  and  N4_10 
REMARK    3  A    between atoms: N4_10  and  C5_12 
REMARK    4  A    between atoms: C5_12  and  C6_13 
REMARK    5  A    between atoms: C9_16  and  C10_17 
REMARK    6  A    between atoms: C10_17  and  C11_18 
REMARK    7  A    between atoms: C11_18  and  C12_19 
REMARK    8  A    between atoms: C12_19  and  N5_20 
REMARK    9  A    between atoms: N5_20  and  C13_22 
REMARK   10  A    between atoms: C14_25  and  C15_26 
REMARK   11  A    between atoms: C18_31  and  N8_32 
REMARK   12  A    between atoms: N8_32  and  C19_34 
REMARK   13  A    between atoms: C19_34  and  C20_35 
REMARK   14  A    between atoms: C20_35  and  C21_36 
ROOT
HETATM    1  N5  UNL     1      24.205  47.357  45.677  1.00  0.00    -0.205 N 
ATOM      2  H5  UNL     1      23.911  46.426  45.972  1.00  0.00     0.183 HD
ENDROOT
BRANCH   1   3
HETATM    3  C12 UNL     1      24.862  47.428  44.432  1.00  0.00     0.079 C 
BRANCH   3   4
HETATM    4  C11 UNL     1      24.453  46.469  43.369  1.00  0.00     0.049 C 
BRANCH   4   5
HETATM    5  C10 UNL     1      24.117  45.079  43.882  1.00  0.00     0.043 C 
BRANCH   5   6
HETATM    6  C9  UNL     1      22.662  44.926  43.952  1.00  0.00    -0.058 A 
HETATM    7  C8  UNL     1      22.168  43.858  44.690  1.00  0.00     0.007 A 
HETATM    8  C7  UNL     1      20.800  43.705  44.742  1.00  0.00     0.009 A 
HETATM    9  C6  UNL     1      19.958  44.573  44.093  1.00  0.00    -0.041 A 
HETATM   10  C28 UNL     1      20.474  45.614  43.376  1.00  0.00     0.009 A 
HETATM   11  C27 UNL     1      21.833  45.813  43.289  1.00  0.00     0.007 A 
BRANCH   9  12
HETATM   12  C5  UNL     1      18.501  44.379  44.183  1.00  0.00     0.161 C 
BRANCH  12  13
HETATM   13  N4  UNL     1      17.857  45.157  43.147  1.00  0.00    -0.355 N 
HETATM   14  C4  UNL     1      17.532  44.581  41.899  1.00  0.00     0.240 C 
HETATM   15  O1  UNL     1      17.801  43.384  41.671  1.00  0.00    -0.271 OA
ATOM     16  H4  UNL     1      17.634  46.137  43.321  1.00  0.00     0.162 HD
BRANCH  14  17
HETATM   17  C2  UNL     1      16.874  45.388  40.847  1.00  0.00     0.171 C 
HETATM   18  C1  UNL     1      17.476  44.921  39.523  1.00  0.00     0.042 C 
BRANCH  17  19
HETATM   19  N1  UNL     1      15.465  45.150  40.878  1.00  0.00    -0.354 N 
HETATM   20  C3  UNL     1      14.579  46.033  40.589  1.00  0.00     0.197 C 
HETATM   21  N2  UNL     1      14.934  47.365  40.204  1.00  0.00    -0.067 NA
HETATM   22  N3  UNL     1      13.224  45.617  40.668  1.00  0.00    -0.067 NA
ATOM     23  H1  UNL     1      15.144  44.220  41.147  1.00  0.00     0.162 HD
ENDBRANCH  17  19
ENDBRANCH  14  17
ENDBRANCH  12  13
ENDBRANCH   9  12
ENDBRANCH   5   6
ENDBRANCH   4   5
ENDBRANCH   3   4
ENDBRANCH   1   3
BRANCH   1  24
HETATM   24  C13 UNL     1      23.931  48.308  46.485  1.00  0.00     0.697 A 
HETATM   25  N6  UNL     1      24.138  48.310  47.807  1.00  0.00    -0.179 N 
HETATM   26  C14 UNL     1      23.820  49.344  48.586  1.00  0.00     0.117 A 
ATOM     27  H6  UNL     1      24.557  47.485  48.236  1.00  0.00     0.185 HD
HETATM   28  N7  UNL     1      23.258  50.456  48.042  1.00  0.00    -0.179 N 
HETATM   29  C18 UNL     1      23.027  50.509  46.719  1.00  0.00     0.694 A 
ATOM     30  H7  UNL     1      23.013  51.247  48.635  1.00  0.00     0.185 HD
HETATM   31  N9  UNL     1      23.360  49.453  45.974  1.00  0.00    -0.022 N 
ATOM     32  H9  UNL     1      23.183  49.496  44.970  1.00  0.00     0.203 HD
BRANCH  26  33
HETATM   33  C15 UNL     1      24.048  49.340  50.063  1.00  0.00     0.054 A 
HETATM   34  C16 UNL     1      23.722  50.575  50.826  1.00  0.00     0.013 A 
HETATM   35  C17 UNL     1      22.855  49.295  50.954  1.00  0.00     0.013 A 
ENDBRANCH  26  33
BRANCH  29  36
HETATM   36  N8  UNL     1      22.497  51.546  46.201  1.00  0.00    -0.225 N 
ATOM     37  H8  UNL     1      21.510  51.686  46.414  1.00  0.00     0.177 HD
BRANCH  36  38
HETATM   38  C19 UNL     1      23.084  52.532  45.373  1.00  0.00     0.142 C 
BRANCH  38  39
HETATM   39  C20 UNL     1      24.436  53.007  45.862  1.00  0.00     0.058 C 
BRANCH  39  40
HETATM   40  C21 UNL     1      24.739  54.379  45.380  1.00  0.00    -0.057 A 
HETATM   41  C22 UNL     1      23.715  55.126  44.844  1.00  0.00     0.007 A 
HETATM   42  C23 UNL     1      24.021  56.396  44.401  1.00  0.00     0.001 A 
HETATM   43  C24 UNL     1      25.303  56.901  44.490  1.00  0.00     0.000 A 
HETATM   44  C25 UNL     1      26.340  56.152  45.031  1.00  0.00     0.001 A 
HETATM   45  C26 UNL     1      26.024  54.880  45.472  1.00  0.00     0.007 A 
ENDBRANCH  39  40
ENDBRANCH  38  39
ENDBRANCH  36  38
ENDBRANCH  29  36
ENDBRANCH   1  24
TORSDOF 14
ENDMDL
MODEL 4
REMARK VINA RESULT: -8.748639003      2.470      7.859
REMARK  14 active torsions:
REMARK  status: ('A' for Active; 'I' for Inactive)
REMARK    1  A    between atoms: C2_2  and  N1_3 
REMARK    2  A    between atoms: C2_2  and  C4_8 
REMARK       I    between atoms: C4_8  and  N4_10 
REMARK    3  A    between atoms: N4_10  and  C5_12 
REMARK    4  A    between atoms: C5_12  and  C6_13 
REMARK    5  A    between atoms: C9_16  and  C10_17 
REMARK    6  A    between atoms: C10_17  and  C11_18 
REMARK    7  A    between atoms: C11_18  and  C12_19 
REMARK    8  A    between atoms: C12_19  and  N5_20 
REMARK    9  A    between atoms: N5_20  and  C13_22 
REMARK   10  A    between atoms: C14_25  and  C15_26 
REMARK   11  A    between atoms: C18_31  and  N8_32 
REMARK   12  A    between atoms: N8_32  and  C19_34 
REMARK   13  A    between atoms: C19_34  and  C20_35 
REMARK   14  A    between atoms: C20_35  and  C21_36 
ROOT
HETATM    1  N5  UNL     1      24.308  47.404  45.926  1.00  0.00    -0.205 N 
ATOM      2  H5  UNL     1      23.580  46.697  45.824  1.00  0.00     0.183 HD
ENDROOT
BRANCH   1   3
HETATM    3  C12 UNL     1      25.461  47.216  45.138  1.00  0.00     0.079 C 
BRANCH   3   4
HETATM    4  C11 UNL     1      25.374  46.283  43.980  1.00  0.00     0.049 C 
BRANCH   4   5
HETATM    5  C10 UNL     1      25.161  44.830  44.368  1.00  0.00     0.043 C 
BRANCH   5   6
HETATM    6  C9  UNL     1      23.731  44.520  44.326  1.00  0.00    -0.058 A 
HETATM    7  C8  UNL     1      23.212  43.759  45.365  1.00  0.00     0.007 A 
HETATM    8  C7  UNL     1      21.870  43.454  45.317  1.00  0.00     0.009 A 
HETATM    9  C6  UNL     1      21.075  43.886  44.284  1.00  0.00    -0.041 A 
HETATM   10  C28 UNL     1      21.614  44.633  43.276  1.00  0.00     0.009 A 
HETATM   11  C27 UNL     1      22.950  44.965  43.275  1.00  0.00     0.007 A 
BRANCH   9  12
HETATM   12  C5  UNL     1      19.642  43.546  44.276  1.00  0.00     0.161 C 
BRANCH  12  13
HETATM   13  N4  UNL     1      18.997  44.251  43.189  1.00  0.00    -0.355 N 
HETATM   14  C4  UNL     1      17.658  43.973  42.833  1.00  0.00     0.240 C 
HETATM   15  O1  UNL     1      17.010  43.107  43.455  1.00  0.00    -0.271 OA
ATOM     16  H4  UNL     1      19.517  44.960  42.672  1.00  0.00     0.162 HD
BRANCH  14  17
HETATM   17  C2  UNL     1      17.010  44.701  41.720  1.00  0.00     0.171 C 
HETATM   18  C1  UNL     1      17.972  45.826  41.340  1.00  0.00     0.042 C 
BRANCH  17  19
HETATM   19  N1  UNL     1      16.812  43.809  40.621  1.00  0.00    -0.354 N 
HETATM   20  C3  UNL     1      15.857  43.916  39.769  1.00  0.00     0.197 C 
HETATM   21  N2  UNL     1      14.884  44.963  39.850  1.00  0.00    -0.067 NA
HETATM   22  N3  UNL     1      15.819  42.942  38.738  1.00  0.00    -0.067 NA
ATOM     23  H1  UNL     1      17.470  43.039  40.506  1.00  0.00     0.162 HD
ENDBRANCH  17  19
ENDBRANCH  14  17
ENDBRANCH  12  13
ENDBRANCH   9  12
ENDBRANCH   5   6
ENDBRANCH   4   5
ENDBRANCH   3   4
ENDBRANCH   1   3
BRANCH   1  24
HETATM   24  C13 UNL     1      24.056  48.345  46.753  1.00  0.00     0.697 A 
HETATM   25  N6  UNL     1      24.177  48.285  48.083  1.00  0.00    -0.179 N 
HETATM   26  C14 UNL     1      23.890  49.313  48.882  1.00  0.00     0.117 A 
ATOM     27  H6  UNL     1      24.502  47.415  48.505  1.00  0.00     0.185 HD
HETATM   28  N7  UNL     1      23.452  50.484  48.348  1.00  0.00    -0.179 N 
HETATM   29  C18 UNL     1      23.312  50.601  47.017  1.00  0.00     0.694 A 
ATOM     30  H7  UNL     1      23.231  51.272  48.957  1.00  0.00     0.185 HD
HETATM   31  N9  UNL     1      23.610  49.549  46.253  1.00  0.00    -0.022 N 
ATOM     32  H9  UNL     1      23.502  49.641  45.243  1.00  0.00     0.203 HD
BRANCH  26  33
HETATM   33  C15 UNL     1      24.021  49.241  50.369  1.00  0.00     0.054 A 
HETATM   34  C16 UNL     1      23.598  50.421  51.169  1.00  0.00     0.013 A 
HETATM   35  C17 UNL     1      22.775  49.106  51.174  1.00  0.00     0.013 A 
ENDBRANCH  26  33
BRANCH  29  36
HETATM   36  N8  UNL     1      22.898  51.695  46.509  1.00  0.00    -0.225 N 
ATOM     37  H8  UNL     1      22.689  52.436  47.178  1.00  0.00     0.177 HD
BRANCH  36  38
HETATM   38  C19 UNL     1      22.688  52.028  45.150  1.00  0.00     0.142 C 
BRANCH  38  39
HETATM   39  C20 UNL     1      21.303  51.679  44.649  1.00  0.00     0.058 C 
BRANCH  39  40
HETATM   40  C21 UNL     1      21.211  50.253  44.244  1.00  0.00    -0.057 A 
HETATM   41  C22 UNL     1      22.301  49.673  43.636  1.00  0.00     0.007 A 
HETATM   42  C23 UNL     1      22.192  48.349  43.266  1.00  0.00     0.001 A 
HETATM   43  C24 UNL     1      21.037  47.630  43.496  1.00  0.00     0.000 A 
HETATM   44  C25 UNL     1      19.933  48.209  44.110  1.00  0.00     0.001 A 
HETATM   45  C26 UNL     1      20.052  49.537  44.476  1.00  0.00     0.007 A 
ENDBRANCH  39  40
ENDBRANCH  38  39
ENDBRANCH  36  38
ENDBRANCH  29  36
ENDBRANCH   1  24
TORSDOF 14
ENDMDL
MODEL 5
REMARK VINA RESULT: -8.691062620      2.901      8.287
REMARK  14 active torsions:
REMARK  status: ('A' for Active; 'I' for Inactive)
REMARK    1  A    between atoms: C2_2  and  N1_3 
REMARK    2  A    between atoms: C2_2  and  C4_8 
REMARK       I    between atoms: C4_8  and  N4_10 
REMARK    3  A    between atoms: N4_10  and  C5_12 
REMARK    4  A    between atoms: C5_12  and  C6_13 
REMARK    5  A    between atoms: C9_16  and  C10_17 
REMARK    6  A    between atoms: C10_17  and  C11_18 
REMARK    7  A    between atoms: C11_18  and  C12_19 
REMARK    8  A    between atoms: C12_19  and  N5_20 
REMARK    9  A    between atoms: N5_20  and  C13_22 
REMARK   10  A    between atoms: C14_25  and  C15_26 
REMARK   11  A    between atoms: C18_31  and  N8_32 
REMARK   12  A    between atoms: N8_32  and  C19_34 
REMARK   13  A    between atoms: C19_34  and  C20_35 
REMARK   14  A    between atoms: C20_35  and  C21_36 
ROOT
HETATM    1  N5  UNL     1      23.509  43.589  44.291  1.00  0.00    -0.205 N 
ATOM      2  H5  UNL     1      23.133  43.091  43.484  1.00  0.00     0.183 HD
ENDROOT
BRANCH   1   3
HETATM    3  C12 UNL     1      23.174  43.055  45.551  1.00  0.00     0.079 C 
BRANCH   3   4
HETATM    4  C11 UNL     1      21.838  42.417  45.709  1.00  0.00     0.049 C 
BRANCH   4   5
HETATM    5  C10 UNL     1      20.752  43.362  46.196  1.00  0.00     0.043 C 
BRANCH   5   6
HETATM    6  C9  UNL     1      20.200  44.097  45.056  1.00  0.00    -0.058 A 
HETATM    7  C8  UNL     1      20.518  45.444  44.951  1.00  0.00     0.007 A 
HETATM    8  C7  UNL     1      19.985  46.138  43.887  1.00  0.00     0.009 A 
HETATM    9  C6  UNL     1      19.174  45.524  42.966  1.00  0.00    -0.041 A 
HETATM   10  C28 UNL     1      18.879  44.197  43.097  1.00  0.00     0.009 A 
HETATM   11  C27 UNL     1      19.383  43.456  44.141  1.00  0.00     0.007 A 
BRANCH   9  12
HETATM   12  C5  UNL     1      18.633  46.300  41.838  1.00  0.00     0.161 C 
BRANCH  12  13
HETATM   13  N4  UNL     1      17.253  45.921  41.623  1.00  0.00    -0.355 N 
HETATM   14  C4  UNL     1      16.816  45.443  40.367  1.00  0.00     0.240 C 
HETATM   15  O1  UNL     1      17.621  45.343  39.419  1.00  0.00    -0.271 OA
ATOM     16  H4  UNL     1      16.586  46.000  42.390  1.00  0.00     0.162 HD
BRANCH  14  17
HETATM   17  C2  UNL     1      15.402  45.058  40.161  1.00  0.00     0.171 C 
HETATM   18  C1  UNL     1      15.189  43.790  40.986  1.00  0.00     0.042 C 
BRANCH  17  19
HETATM   19  N1  UNL     1      14.552  46.112  40.618  1.00  0.00    -0.354 N 
HETATM   20  C3  UNL     1      14.050  47.015  39.856  1.00  0.00     0.197 C 
HETATM   21  N2  UNL     1      14.307  47.046  38.448  1.00  0.00    -0.067 NA
HETATM   22  N3  UNL     1      13.221  47.982  40.483  1.00  0.00    -0.067 NA
ATOM     23  H1  UNL     1      14.329  46.149  41.613  1.00  0.00     0.162 HD
ENDBRANCH  17  19
ENDBRANCH  14  17
ENDBRANCH  12  13
ENDBRANCH   9  12
ENDBRANCH   5   6
ENDBRANCH   4   5
ENDBRANCH   3   4
ENDBRANCH   1   3
BRANCH   1  24
HETATM   24  C13 UNL     1      24.221  44.616  44.028  1.00  0.00     0.697 A 
HETATM   25  N6  UNL     1      25.510  44.788  44.338  1.00  0.00    -0.179 N 
HETATM   26  C14 UNL     1      26.186  45.896  44.031  1.00  0.00     0.117 A 
ATOM     27  H6  UNL     1      25.998  44.040  44.831  1.00  0.00     0.185 HD
HETATM   28  N7  UNL     1      25.563  46.910  43.376  1.00  0.00    -0.179 N 
HETATM   29  C18 UNL     1      24.268  46.792  43.039  1.00  0.00     0.694 A 
ATOM     30  H7  UNL     1      26.077  47.759  43.140  1.00  0.00     0.185 HD
HETATM   31  N9  UNL     1      23.627  45.668  43.364  1.00  0.00    -0.022 N 
ATOM     32  H9  UNL     1      22.644  45.582  43.107  1.00  0.00     0.203 HD
BRANCH  26  33
HETATM   33  C15 UNL     1      27.626  46.086  44.385  1.00  0.00     0.054 A 
HETATM   34  C16 UNL     1      28.444  44.877  44.667  1.00  0.00     0.013 A 
HETATM   35  C17 UNL     1      28.650  45.706  43.373  1.00  0.00     0.013 A 
ENDBRANCH  26  33
BRANCH  29  36
HETATM   36  N8  UNL     1      23.675  47.741  42.427  1.00  0.00    -0.225 N 
ATOM     37  H8  UNL     1      23.421  47.545  41.458  1.00  0.00     0.177 HD
BRANCH  36  38
HETATM   38  C19 UNL     1      23.319  49.026  42.899  1.00  0.00     0.142 C 
BRANCH  38  39
HETATM   39  C20 UNL     1      22.183  49.011  43.900  1.00  0.00     0.058 C 
BRANCH  39  40
HETATM   40  C21 UNL     1      22.635  49.451  45.245  1.00  0.00    -0.057 A 
HETATM   41  C22 UNL     1      22.898  50.787  45.442  1.00  0.00     0.007 A 
HETATM   42  C23 UNL     1      23.319  51.172  46.698  1.00  0.00     0.001 A 
HETATM   43  C24 UNL     1      23.471  50.256  47.720  1.00  0.00     0.000 A 
HETATM   44  C25 UNL     1      23.205  48.906  47.527  1.00  0.00     0.001 A 
HETATM   45  C26 UNL     1      22.784  48.529  46.264  1.00  0.00     0.007 A 
ENDBRANCH  39  40
ENDBRANCH  38  39
ENDBRANCH  36  38
ENDBRANCH  29  36
ENDBRANCH   1  24
TORSDOF 14
ENDMDL
