MODEL 1
REMARK VINA RESULT: -7.747061474      0.000      0.000
REMARK  15 active torsions:
REMARK  status: ('A' for Active; 'I' for Inactive)
REMARK    1  A    between atoms: C3_3  and  N1_4 
REMARK    2  A    between atoms: N1_4  and  C4_6 
REMARK    3  A    between atoms: C4_6  and  N2_7 
REMARK    4  A    between atoms: N2_7  and  N3_8 
REMARK    5  A    between atoms: C5_11  and  N4_12 
REMARK       I    between atoms: N4_12  and  C6_14 
REMARK    6  A    between atoms: C6_14  and  C7_16 
REMARK    7  A    between atoms: C7_16  and  C8_17 
REMARK    8  A    between atoms: C8_17  and  C9_18 
REMARK    9  A    between atoms: C15_24  and  C16_25 
REMARK   10  A    between atoms: C16_25  and  C17_26 
REMARK   11  A    between atoms: N6_35  and  C23_36 
REMARK   12  A    between atoms: C24_37  and  C25_38 
REMARK   13  A    between atoms: C25_38  and  N7_39 
REMARK   14  A    between atoms: C25_38  and  C26_43 
REMARK   15  A    between atoms: C26_43  and  C27_44 
ROOT
HETATM    1  C1  UNL     1      18.096  44.043  44.217  1.00  0.00     0.073 C 
HETATM    2  C2  UNL     1      19.247  44.833  43.737  1.00  0.00     0.059 A 
HETATM    3  C3  UNL     1      20.248  45.142  44.669  1.00  0.00     0.087 A 
HETATM    4  C5  UNL     1      21.361  45.850  44.266  1.00  0.00     0.088 A 
HETATM    5  C15 UNL     1      21.434  46.221  42.957  1.00  0.00     0.059 A 
HETATM    6  N5  UNL     1      20.426  45.887  42.117  1.00  0.00    -0.296 N 
ATOM      7  H5  UNL     1      20.512  46.181  41.144  1.00  0.00     0.187 HD
HETATM    8  N6  UNL     1      19.319  45.198  42.458  1.00  0.00    -0.270 N 
ENDROOT
BRANCH   4   9
HETATM    9  N4  UNL     1      22.304  46.184  45.255  1.00  0.00    -0.324 N 
HETATM   10  C6  UNL     1      22.134  47.327  46.121  1.00  0.00     0.222 C 
HETATM   11  O1  UNL     1      21.092  47.979  45.918  1.00  0.00    -0.273 OA
ATOM     12  H4  UNL     1      23.134  45.601  45.364  1.00  0.00     0.169 HD
BRANCH  10  13
HETATM   13  C7  UNL     1      23.112  47.669  47.139  1.00  0.00     0.108 C 
BRANCH  13  14
HETATM   14  C8  UNL     1      23.370  49.094  47.435  1.00  0.00     0.047 C 
BRANCH  14  15
HETATM   15  C9  UNL     1      23.417  49.525  48.816  1.00  0.00    -0.058 A 
HETATM   16  C10 UNL     1      22.976  48.743  49.850  1.00  0.00     0.007 A 
HETATM   17  C11 UNL     1      23.037  49.169  51.181  1.00  0.00     0.001 A 
HETATM   18  C12 UNL     1      23.550  50.404  51.469  1.00  0.00     0.000 A 
HETATM   19  C13 UNL     1      23.991  51.192  50.453  1.00  0.00     0.001 A 
HETATM   20  C14 UNL     1      23.938  50.784  49.141  1.00  0.00     0.007 A 
ENDBRANCH  14  15
ENDBRANCH  13  14
ENDBRANCH  10  13
ENDBRANCH   4   9
BRANCH   3  21
HETATM   21  N1  UNL     1      20.097  44.719  46.036  1.00  0.00    -0.336 N 
ATOM     22  H1  UNL     1      19.737  45.354  46.749  1.00  0.00     0.168 HD
BRANCH  21  23
HETATM   23  C4  UNL     1      20.470  43.385  46.358  1.00  0.00     0.301 C 
BRANCH  23  24
HETATM   24  N2  UNL     1      21.675  42.999  46.272  1.00  0.00    -0.328 NA
BRANCH  24  25
HETATM   25  N3  UNL     1      22.830  42.638  45.999  1.00  0.00    -0.279 N 
ATOM     26  H32 UNL     1      22.669  41.837  46.610  1.00  0.00     0.191 HD
ATOM     27  H31 UNL     1      23.786  42.471  45.685  1.00  0.00     0.191 HD
ENDBRANCH  24  25
ENDBRANCH  23  24
ENDBRANCH  21  23
ENDBRANCH   3  21
BRANCH   5  28
HETATM   28  C16 UNL     1      22.584  46.995  42.374  1.00  0.00     0.099 C 
BRANCH  28  29
HETATM   29  C17 UNL     1      22.767  48.286  43.059  1.00  0.00    -0.052 A 
HETATM   30  C18 UNL     1      21.667  49.120  43.301  1.00  0.00     0.009 A 
HETATM   31  C19 UNL     1      21.815  50.301  43.982  1.00  0.00     0.024 A 
HETATM   32  C20 UNL     1      23.058  50.681  44.439  1.00  0.00     0.034 A 
HETATM   33 CL1  UNL     1      23.306  52.162  45.308  1.00  0.00    -0.084 Cl
HETATM   34  C21 UNL     1      24.155  49.848  44.198  1.00  0.00     0.024 A 
HETATM   35  C22 UNL     1      23.986  48.670  43.515  1.00  0.00     0.009 A 
ENDBRANCH  28  29
ENDBRANCH   5  28
BRANCH   8  36
HETATM   36  C23 UNL     1      18.346  44.959  41.486  1.00  0.00     0.114 C 
HETATM   37  C24 UNL     1      17.456  45.616  40.871  1.00  0.00     0.025 C 
BRANCH  37  38
HETATM   38  C25 UNL     1      16.582  44.897  39.847  1.00  0.00     0.212 C 
BRANCH  38  39
HETATM   39  N7  UNL     1      16.191  43.598  40.265  1.00  0.00    -0.071 N 
ATOM     40  H73 UNL     1      16.603  42.883  39.666  1.00  0.00     0.275 HD
ATOM     41  H72 UNL     1      16.636  43.350  41.149  1.00  0.00     0.275 HD
ATOM     42  H71 UNL     1      15.179  43.486  40.323  1.00  0.00     0.275 HD
ENDBRANCH  38  39
BRANCH  38  43
HETATM   43  C26 UNL     1      15.441  45.771  39.434  1.00  0.00     0.080 C 
BRANCH  43  44
HETATM   44  C27 UNL     1      14.711  46.193  40.657  1.00  0.00     0.055 C 
HETATM   45  N8  UNL     1      13.528  45.794  40.938  1.00  0.00    -0.411 N 
ATOM     46  H82 UNL     1      13.079  45.156  40.280  1.00  0.00     0.155 HD
ATOM     47  H81 UNL     1      13.027  46.084  41.777  1.00  0.00     0.155 HD
ENDBRANCH  43  44
ENDBRANCH  38  43
ENDBRANCH  37  38
ENDBRANCH   8  36
TORSDOF 15
ENDMDL
MODEL 2
REMARK VINA RESULT: -7.742414036      1.838      2.476
REMARK  15 active torsions:
REMARK  status: ('A' for Active; 'I' for Inactive)
REMARK    1  A    between atoms: C3_3  and  N1_4 
REMARK    2  A    between atoms: N1_4  and  C4_6 
REMARK    3  A    between atoms: C4_6  and  N2_7 
REMARK    4  A    between atoms: N2_7  and  N3_8 
REMARK    5  A    between atoms: C5_11  and  N4_12 
REMARK       I    between atoms: N4_12  and  C6_14 
REMARK    6  A    between atoms: C6_14  and  C7_16 
REMARK    7  A    between atoms: C7_16  and  C8_17 
REMARK    8  A    between atoms: C8_17  and  C9_18 
REMARK    9  A    between atoms: C15_24  and  C16_25 
REMARK   10  A    between atoms: C16_25  and  C17_26 
REMARK   11  A    between atoms: N6_35  and  C23_36 
REMARK   12  A    between atoms: C24_37  and  C25_38 
REMARK   13  A    between atoms: C25_38  and  N7_39 
REMARK   14  A    between atoms: C25_38  and  C26_43 
REMARK   15  A    between atoms: C26_43  and  C27_44 
ROOT
HETATM    1  C1  UNL     1      17.842  44.186  44.300  1.00  0.00     0.073 C 
HETATM    2  C2  UNL     1      19.028  44.909  43.798  1.00  0.00     0.059 A 
HETATM    3  C3  UNL     1      20.014  45.254  44.732  1.00  0.00     0.087 A 
HETATM    4  C5  UNL     1      21.157  45.901  44.312  1.00  0.00     0.088 A 
HETATM    5  C15 UNL     1      21.272  46.179  42.983  1.00  0.00     0.059 A 
HETATM    6  N5  UNL     1      20.276  45.816  42.141  1.00  0.00    -0.296 N 
ATOM      7  H5  UNL     1      20.394  46.040  41.153  1.00  0.00     0.187 HD
HETATM    8  N6  UNL     1      19.141  45.183  42.500  1.00  0.00    -0.270 N 
ENDROOT
BRANCH   4   9
HETATM    9  N4  UNL     1      22.085  46.276  45.300  1.00  0.00    -0.324 N 
HETATM   10  C6  UNL     1      22.162  47.626  45.806  1.00  0.00     0.222 C 
HETATM   11  O1  UNL     1      21.343  48.417  45.298  1.00  0.00    -0.273 OA
ATOM     12  H4  UNL     1      22.724  45.572  45.670  1.00  0.00     0.169 HD
BRANCH  10  13
HETATM   13  C7  UNL     1      23.123  48.009  46.825  1.00  0.00     0.108 C 
BRANCH  13  14
HETATM   14  C8  UNL     1      23.210  49.427  47.233  1.00  0.00     0.047 C 
BRANCH  14  15
HETATM   15  C9  UNL     1      23.350  49.744  48.638  1.00  0.00    -0.058 A 
HETATM   16  C10 UNL     1      23.869  50.932  49.079  1.00  0.00     0.007 A 
HETATM   17  C11 UNL     1      23.990  51.230  50.441  1.00  0.00     0.001 A 
HETATM   18  C12 UNL     1      23.580  50.311  51.368  1.00  0.00     0.000 A 
HETATM   19  C13 UNL     1      23.063  49.127  50.945  1.00  0.00     0.001 A 
HETATM   20  C14 UNL     1      22.939  48.823  49.610  1.00  0.00     0.007 A 
ENDBRANCH  14  15
ENDBRANCH  13  14
ENDBRANCH  10  13
ENDBRANCH   4   9
BRANCH   3  21
HETATM   21  N1  UNL     1      19.818  44.931  46.121  1.00  0.00    -0.336 N 
ATOM     22  H1  UNL     1      19.383  45.595  46.762  1.00  0.00     0.168 HD
BRANCH  21  23
HETATM   23  C4  UNL     1      20.252  43.652  46.567  1.00  0.00     0.301 C 
BRANCH  23  24
HETATM   24  N2  UNL     1      21.360  43.164  46.189  1.00  0.00    -0.328 NA
BRANCH  24  25
HETATM   25  N3  UNL     1      22.354  42.517  45.825  1.00  0.00    -0.279 N 
ATOM     26  H32 UNL     1      21.708  41.778  45.549  1.00  0.00     0.191 HD
ATOM     27  H31 UNL     1      23.255  42.110  45.575  1.00  0.00     0.191 HD
ENDBRANCH  24  25
ENDBRANCH  23  24
ENDBRANCH  21  23
ENDBRANCH   3  21
BRANCH   5  28
HETATM   28  C16 UNL     1      22.458  46.879  42.378  1.00  0.00     0.099 C 
BRANCH  28  29
HETATM   29  C17 UNL     1      23.725  46.349  42.912  1.00  0.00    -0.052 A 
HETATM   30  C18 UNL     1      24.813  47.205  43.130  1.00  0.00     0.009 A 
HETATM   31  C19 UNL     1      25.981  46.735  43.672  1.00  0.00     0.024 A 
HETATM   32  C20 UNL     1      26.096  45.404  44.011  1.00  0.00     0.034 A 
HETATM   33 CL1  UNL     1      27.548  44.752  44.702  1.00  0.00    -0.084 Cl
HETATM   34  C21 UNL     1      25.011  44.550  43.792  1.00  0.00     0.024 A 
HETATM   35  C22 UNL     1      23.850  45.040  43.249  1.00  0.00     0.009 A 
ENDBRANCH  28  29
ENDBRANCH   5  28
BRANCH   8  36
HETATM   36  C23 UNL     1      18.185  44.904  41.520  1.00  0.00     0.114 C 
HETATM   37  C24 UNL     1      17.505  45.546  40.667  1.00  0.00     0.025 C 
BRANCH  37  38
HETATM   38  C25 UNL     1      16.535  44.782  39.771  1.00  0.00     0.212 C 
BRANCH  38  39
HETATM   39  N7  UNL     1      16.215  43.492  40.271  1.00  0.00    -0.071 N 
ATOM     40  H73 UNL     1      16.536  42.764  39.633  1.00  0.00     0.275 HD
ATOM     41  H72 UNL     1      16.786  43.265  41.084  1.00  0.00     0.275 HD
ATOM     42  H71 UNL     1      15.223  43.381  40.480  1.00  0.00     0.275 HD
ENDBRANCH  38  39
BRANCH  38  43
HETATM   43  C26 UNL     1      15.341  45.627  39.461  1.00  0.00     0.080 C 
BRANCH  43  44
HETATM   44  C27 UNL     1      14.941  46.342  40.700  1.00  0.00     0.055 C 
HETATM   45  N8  UNL     1      14.107  45.863  41.545  1.00  0.00    -0.411 N 
ATOM     46  H82 UNL     1      13.707  44.947  41.343  1.00  0.00     0.155 HD
ATOM     47  H81 UNL     1      13.833  46.354  42.396  1.00  0.00     0.155 HD
ENDBRANCH  43  44
ENDBRANCH  38  43
ENDBRANCH  37  38
ENDBRANCH   8  36
TORSDOF 15
ENDMDL
MODEL 3
REMARK VINA RESULT: -7.116661572      0.732      1.165
REMARK  15 active torsions:
REMARK  status: ('A' for Active; 'I' for Inactive)
REMARK    1  A    between atoms: C3_3  and  N1_4 
REMARK    2  A    between atoms: N1_4  and  C4_6 
REMARK    3  A    between atoms: C4_6  and  N2_7 
REMARK    4  A    between atoms: N2_7  and  N3_8 
REMARK    5  A    between atoms: C5_11  and  N4_12 
REMARK       I    between atoms: N4_12  and  C6_14 
REMARK    6  A    between atoms: C6_14  and  C7_16 
REMARK    7  A    between atoms: C7_16  and  C8_17 
REMARK    8  A    between atoms: C8_17  and  C9_18 
REMARK    9  A    between atoms: C15_24  and  C16_25 
REMARK   10  A    between atoms: C16_25  and  C17_26 
REMARK   11  A    between atoms: N6_35  and  C23_36 
REMARK   12  A    between atoms: C24_37  and  C25_38 
REMARK   13  A    between atoms: C25_38  and  N7_39 
REMARK   14  A    between atoms: C25_38  and  C26_43 
REMARK   15  A    between atoms: C26_43  and  C27_44 
ROOT
HETATM    1  C1  UNL     1      18.059  44.047  44.371  1.00  0.00     0.073 C 
HETATM    2  C2  UNL     1      19.177  44.857  43.848  1.00  0.00     0.059 A 
HETATM    3  C3  UNL     1      20.236  45.132  44.724  1.00  0.00     0.087 A 
HETATM    4  C5  UNL     1      21.322  45.856  44.277  1.00  0.00     0.088 A 
HETATM    5  C15 UNL     1      21.310  46.277  42.980  1.00  0.00     0.059 A 
HETATM    6  N5  UNL     1      20.250  45.972  42.196  1.00  0.00    -0.296 N 
ATOM      7  H5  UNL     1      20.273  46.302  41.231  1.00  0.00     0.187 HD
HETATM    8  N6  UNL     1      19.166  45.269  42.582  1.00  0.00    -0.270 N 
ENDROOT
BRANCH   4   9
HETATM    9  N4  UNL     1      22.327  46.155  45.214  1.00  0.00    -0.324 N 
HETATM   10  C6  UNL     1      22.219  47.271  46.124  1.00  0.00     0.222 C 
HETATM   11  O1  UNL     1      21.170  47.935  46.007  1.00  0.00    -0.273 OA
ATOM     12  H4  UNL     1      23.158  45.564  45.253  1.00  0.00     0.169 HD
BRANCH  10  13
HETATM   13  C7  UNL     1      23.260  47.577  47.089  1.00  0.00     0.108 C 
BRANCH  13  14
HETATM   14  C8  UNL     1      23.588  48.991  47.367  1.00  0.00     0.047 C 
BRANCH  14  15
HETATM   15  C9  UNL     1      23.515  49.472  48.730  1.00  0.00    -0.058 A 
HETATM   16  C10 UNL     1      23.032  48.708  49.758  1.00  0.00     0.007 A 
HETATM   17  C11 UNL     1      22.977  49.184  51.074  1.00  0.00     0.001 A 
HETATM   18  C12 UNL     1      23.416  50.449  51.350  1.00  0.00     0.000 A 
HETATM   19  C13 UNL     1      23.898  51.219  50.339  1.00  0.00     0.001 A 
HETATM   20  C14 UNL     1      23.958  50.764  49.043  1.00  0.00     0.007 A 
ENDBRANCH  14  15
ENDBRANCH  13  14
ENDBRANCH  10  13
ENDBRANCH   4   9
BRANCH   3  21
HETATM   21  N1  UNL     1      20.173  44.659  46.082  1.00  0.00    -0.336 N 
ATOM     22  H1  UNL     1      19.855  45.264  46.838  1.00  0.00     0.168 HD
BRANCH  21  23
HETATM   23  C4  UNL     1      20.573  43.317  46.330  1.00  0.00     0.301 C 
BRANCH  23  24
HETATM   24  N2  UNL     1      21.792  42.971  46.274  1.00  0.00    -0.328 NA
BRANCH  24  25
HETATM   25  N3  UNL     1      22.941  42.560  46.049  1.00  0.00    -0.279 N 
ATOM     26  H32 UNL     1      22.514  41.850  45.454  1.00  0.00     0.191 HD
ATOM     27  H31 UNL     1      23.932  42.337  45.960  1.00  0.00     0.191 HD
ENDBRANCH  24  25
ENDBRANCH  23  24
ENDBRANCH  21  23
ENDBRANCH   3  21
BRANCH   5  28
HETATM   28  C16 UNL     1      22.420  47.073  42.354  1.00  0.00     0.099 C 
BRANCH  28  29
HETATM   29  C17 UNL     1      22.627  48.353  43.055  1.00  0.00    -0.052 A 
HETATM   30  C18 UNL     1      21.536  49.181  43.350  1.00  0.00     0.009 A 
HETATM   31  C19 UNL     1      21.707  50.349  44.046  1.00  0.00     0.024 A 
HETATM   32  C20 UNL     1      22.966  50.723  44.465  1.00  0.00     0.034 A 
HETATM   33 CL1  UNL     1      23.244  52.190  45.350  1.00  0.00    -0.084 Cl
HETATM   34  C21 UNL     1      24.055  49.897  44.169  1.00  0.00     0.024 A 
HETATM   35  C22 UNL     1      23.862  48.730  43.472  1.00  0.00     0.009 A 
ENDBRANCH  28  29
ENDBRANCH   5  28
BRANCH   8  36
HETATM   36  C23 UNL     1      18.132  45.064  41.666  1.00  0.00     0.114 C 
HETATM   37  C24 UNL     1      17.225  45.750  41.110  1.00  0.00     0.025 C 
BRANCH  37  38
HETATM   38  C25 UNL     1      16.275  45.065  40.133  1.00  0.00     0.212 C 
BRANCH  38  39
HETATM   39  N7  UNL     1      15.780  45.943  39.132  1.00  0.00    -0.071 N 
ATOM     40  H73 UNL     1      15.450  46.815  39.544  1.00  0.00     0.275 HD
ATOM     41  H72 UNL     1      16.540  46.307  38.558  1.00  0.00     0.275 HD
ATOM     42  H71 UNL     1      15.057  45.518  38.551  1.00  0.00     0.275 HD
ENDBRANCH  38  39
BRANCH  38  43
HETATM   43  C26 UNL     1      16.897  43.817  39.592  1.00  0.00     0.080 C 
BRANCH  43  44
HETATM   44  C27 UNL     1      15.890  43.122  38.750  1.00  0.00     0.055 C 
HETATM   45  N8  UNL     1      15.414  41.969  39.038  1.00  0.00    -0.411 N 
ATOM     46  H82 UNL     1      15.752  41.521  39.890  1.00  0.00     0.155 HD
ATOM     47  H81 UNL     1      14.722  41.492  38.460  1.00  0.00     0.155 HD
ENDBRANCH  43  44
ENDBRANCH  38  43
ENDBRANCH  37  38
ENDBRANCH   8  36
TORSDOF 15
ENDMDL
MODEL 4
REMARK VINA RESULT: -6.845332492      1.769      2.507
REMARK  15 active torsions:
REMARK  status: ('A' for Active; 'I' for Inactive)
REMARK    1  A    between atoms: C3_3  and  N1_4 
REMARK    2  A    between atoms: N1_4  and  C4_6 
REMARK    3  A    between atoms: C4_6  and  N2_7 
REMARK    4  A    between atoms: N2_7  and  N3_8 
REMARK    5  A    between atoms: C5_11  and  N4_12 
REMARK       I    between atoms: N4_12  and  C6_14 
REMARK    6  A    between atoms: C6_14  and  C7_16 
REMARK    7  A    between atoms: C7_16  and  C8_17 
REMARK    8  A    between atoms: C8_17  and  C9_18 
REMARK    9  A    between atoms: C15_24  and  C16_25 
REMARK   10  A    between atoms: C16_25  and  C17_26 
REMARK   11  A    between atoms: N6_35  and  C23_36 
REMARK   12  A    between atoms: C24_37  and  C25_38 
REMARK   13  A    between atoms: C25_38  and  N7_39 
REMARK   14  A    between atoms: C25_38  and  C26_43 
REMARK   15  A    between atoms: C26_43  and  C27_44 
ROOT
HETATM    1  C1  UNL     1      17.766  43.835  44.716  1.00  0.00     0.073 C 
HETATM    2  C2  UNL     1      18.828  44.627  44.062  1.00  0.00     0.059 A 
HETATM    3  C3  UNL     1      19.911  45.028  44.855  1.00  0.00     0.087 A 
HETATM    4  C5  UNL     1      20.946  45.741  44.287  1.00  0.00     0.088 A 
HETATM    5  C15 UNL     1      20.862  46.025  42.957  1.00  0.00     0.059 A 
HETATM    6  N5  UNL     1      19.782  45.604  42.257  1.00  0.00    -0.296 N 
ATOM      7  H5  UNL     1      19.751  45.834  41.264  1.00  0.00     0.187 HD
HETATM    8  N6  UNL     1      18.746  44.906  42.763  1.00  0.00    -0.270 N 
ENDROOT
BRANCH   4   9
HETATM    9  N4  UNL     1      21.978  46.170  45.141  1.00  0.00    -0.324 N 
HETATM   10  C6  UNL     1      22.015  47.506  45.688  1.00  0.00     0.222 C 
HETATM   11  O1  UNL     1      21.064  48.234  45.341  1.00  0.00    -0.273 OA
ATOM     12  H4  UNL     1      22.724  45.517  45.383  1.00  0.00     0.169 HD
BRANCH  10  13
HETATM   13  C7  UNL     1      23.084  47.945  46.567  1.00  0.00     0.108 C 
BRANCH  13  14
HETATM   14  C8  UNL     1      23.158  49.371  46.950  1.00  0.00     0.047 C 
BRANCH  14  15
HETATM   15  C9  UNL     1      23.335  49.713  48.346  1.00  0.00    -0.058 A 
HETATM   16  C10 UNL     1      23.854  50.913  48.751  1.00  0.00     0.007 A 
HETATM   17  C11 UNL     1      24.010  51.235  50.104  1.00  0.00     0.001 A 
HETATM   18  C12 UNL     1      23.635  50.329  51.058  1.00  0.00     0.000 A 
HETATM   19  C13 UNL     1      23.118  49.133  50.670  1.00  0.00     0.001 A 
HETATM   20  C14 UNL     1      22.959  48.805  49.344  1.00  0.00     0.007 A 
ENDBRANCH  14  15
ENDBRANCH  13  14
ENDBRANCH  10  13
ENDBRANCH   4   9
BRANCH   3  21
HETATM   21  N1  UNL     1      19.926  44.695  46.255  1.00  0.00    -0.336 N 
ATOM     22  H1  UNL     1      19.581  45.348  46.958  1.00  0.00     0.168 HD
BRANCH  21  23
HETATM   23  C4  UNL     1      20.441  43.421  46.623  1.00  0.00     0.301 C 
BRANCH  23  24
HETATM   24  N2  UNL     1      21.595  43.046  46.255  1.00  0.00    -0.328 NA
BRANCH  24  25
HETATM   25  N3  UNL     1      22.649  42.503  45.891  1.00  0.00    -0.279 N 
ATOM     26  H32 UNL     1      22.080  41.705  45.606  1.00  0.00     0.191 HD
ATOM     27  H31 UNL     1      23.587  42.188  45.641  1.00  0.00     0.191 HD
ENDBRANCH  24  25
ENDBRANCH  23  24
ENDBRANCH  21  23
ENDBRANCH   3  21
BRANCH   5  28
HETATM   28  C16 UNL     1      21.911  46.792  42.201  1.00  0.00     0.099 C 
BRANCH  28  29
HETATM   29  C17 UNL     1      23.251  46.579  42.774  1.00  0.00    -0.052 A 
HETATM   30  C18 UNL     1      23.697  45.283  43.066  1.00  0.00     0.009 A 
HETATM   31  C19 UNL     1      24.960  45.065  43.553  1.00  0.00     0.024 A 
HETATM   32  C20 UNL     1      25.810  46.130  43.761  1.00  0.00     0.034 A 
HETATM   33 CL1  UNL     1      27.420  45.916  44.373  1.00  0.00    -0.084 Cl
HETATM   34  C21 UNL     1      25.365  47.423  43.470  1.00  0.00     0.024 A 
HETATM   35  C22 UNL     1      24.097  47.620  42.983  1.00  0.00     0.009 A 
ENDBRANCH  28  29
ENDBRANCH   5  28
BRANCH   8  36
HETATM   36  C23 UNL     1      17.682  44.572  41.922  1.00  0.00     0.114 C 
HETATM   37  C24 UNL     1      16.489  44.948  41.727  1.00  0.00     0.025 C 
BRANCH  37  38
HETATM   38  C25 UNL     1      15.663  44.254  40.648  1.00  0.00     0.212 C 
BRANCH  38  39
HETATM   39  N7  UNL     1      14.325  44.727  40.584  1.00  0.00    -0.071 N 
ATOM     40  H73 UNL     1      13.664  43.950  40.590  1.00  0.00     0.275 HD
ATOM     41  H72 UNL     1      14.057  45.181  41.457  1.00  0.00     0.275 HD
ATOM     42  H71 UNL     1      14.157  45.341  39.787  1.00  0.00     0.275 HD
ENDBRANCH  38  39
BRANCH  38  43
HETATM   43  C26 UNL     1      16.383  44.291  39.338  1.00  0.00     0.080 C 
BRANCH  43  44
HETATM   44  C27 UNL     1      15.940  43.126  38.530  1.00  0.00     0.055 C 
HETATM   45  N8  UNL     1      15.531  42.029  39.049  1.00  0.00    -0.411 N 
ATOM     46  H82 UNL     1      15.515  41.970  40.067  1.00  0.00     0.155 HD
ATOM     47  H81 UNL     1      15.226  41.230  38.494  1.00  0.00     0.155 HD
ENDBRANCH  43  44
ENDBRANCH  38  43
ENDBRANCH  37  38
ENDBRANCH   8  36
TORSDOF 15
ENDMDL
MODEL 5
REMARK VINA RESULT: -6.278507211      3.051      8.431
REMARK  15 active torsions:
REMARK  status: ('A' for Active; 'I' for Inactive)
REMARK    1  A    between atoms: C3_3  and  N1_4 
REMARK    2  A    between atoms: N1_4  and  C4_6 
REMARK    3  A    between atoms: C4_6  and  N2_7 
REMARK    4  A    between atoms: N2_7  and  N3_8 
REMARK    5  A    between atoms: C5_11  and  N4_12 
REMARK       I    between atoms: N4_12  and  C6_14 
REMARK    6  A    between atoms: C6_14  and  C7_16 
REMARK    7  A    between atoms: C7_16  and  C8_17 
REMARK    8  A    between atoms: C8_17  and  C9_18 
REMARK    9  A    between atoms: C15_24  and  C16_25 
REMARK   10  A    between atoms: C16_25  and  C17_26 
REMARK   11  A    between atoms: N6_35  and  C23_36 
REMARK   12  A    between atoms: C24_37  and  C25_38 
REMARK   13  A    between atoms: C25_38  and  N7_39 
REMARK   14  A    between atoms: C25_38  and  C26_43 
REMARK   15  A    between atoms: C26_43  and  C27_44 
ROOT
HETATM    1  C1  UNL     1      24.409  43.357  44.229  1.00  0.00     0.073 C 
HETATM    2  C2  UNL     1      23.601  44.590  44.144  1.00  0.00     0.059 A 
HETATM    3  C3  UNL     1      22.208  44.452  44.197  1.00  0.00     0.087 A 
HETATM    4  C5  UNL     1      21.407  45.575  44.155  1.00  0.00     0.088 A 
HETATM    5  C15 UNL     1      22.024  46.786  44.063  1.00  0.00     0.059 A 
HETATM    6  N5  UNL     1      23.376  46.839  44.016  1.00  0.00    -0.296 N 
ATOM      7  H5  UNL     1      23.804  47.762  43.947  1.00  0.00     0.187 HD
HETATM    8  N6  UNL     1      24.203  45.775  44.053  1.00  0.00    -0.270 N 
ENDROOT
BRANCH   4   9
HETATM    9  N4  UNL     1      20.015  45.373  44.150  1.00  0.00    -0.324 N 
HETATM   10  C6  UNL     1      19.270  45.205  42.924  1.00  0.00     0.222 C 
HETATM   11  O1  UNL     1      19.961  45.252  41.888  1.00  0.00    -0.273 OA
ATOM     12  H4  UNL     1      19.517  45.345  45.039  1.00  0.00     0.169 HD
BRANCH  10  13
HETATM   13  C7  UNL     1      17.832  45.000  42.924  1.00  0.00     0.108 C 
BRANCH  13  14
HETATM   14  C8  UNL     1      17.171  44.558  41.679  1.00  0.00     0.047 C 
BRANCH  14  15
HETATM   15  C9  UNL     1      16.226  45.445  41.034  1.00  0.00    -0.058 A 
HETATM   16  C10 UNL     1      14.874  45.228  41.059  1.00  0.00     0.007 A 
HETATM   17  C11 UNL     1      13.971  46.100  40.440  1.00  0.00     0.001 A 
HETATM   18  C12 UNL     1      14.444  47.204  39.787  1.00  0.00     0.000 A 
HETATM   19  C13 UNL     1      15.784  47.432  39.753  1.00  0.00     0.001 A 
HETATM   20  C14 UNL     1      16.682  46.584  40.358  1.00  0.00     0.007 A 
ENDBRANCH  14  15
ENDBRANCH  13  14
ENDBRANCH  10  13
ENDBRANCH   4   9
BRANCH   3  21
HETATM   21  N1  UNL     1      21.630  43.137  44.288  1.00  0.00    -0.336 N 
ATOM     22  H1  UNL     1      21.304  42.644  43.457  1.00  0.00     0.168 HD
BRANCH  21  23
HETATM   23  C4  UNL     1      21.529  42.550  45.580  1.00  0.00     0.301 C 
BRANCH  23  24
HETATM   24  N2  UNL     1      20.869  43.110  46.507  1.00  0.00    -0.328 NA
BRANCH  24  25
HETATM   25  N3  UNL     1      20.084  43.673  47.285  1.00  0.00    -0.279 N 
ATOM     26  H32 UNL     1      20.807  43.584  47.999  1.00  0.00     0.191 HD
ATOM     27  H31 UNL     1      19.339  44.140  47.802  1.00  0.00     0.191 HD
ENDBRANCH  24  25
ENDBRANCH  23  24
ENDBRANCH  21  23
ENDBRANCH   3  21
BRANCH   5  28
HETATM   28  C16 UNL     1      21.285  48.094  44.008  1.00  0.00     0.099 C 
BRANCH  28  29
HETATM   29  C17 UNL     1      22.074  49.185  44.607  1.00  0.00    -0.052 A 
HETATM   30  C18 UNL     1      22.061  50.463  44.034  1.00  0.00     0.009 A 
HETATM   31  C19 UNL     1      22.751  51.499  44.609  1.00  0.00     0.024 A 
HETATM   32  C20 UNL     1      23.468  51.290  45.767  1.00  0.00     0.034 A 
HETATM   33 CL1  UNL     1      24.359  52.563  46.541  1.00  0.00    -0.084 Cl
HETATM   34  C21 UNL     1      23.481  50.014  46.338  1.00  0.00     0.024 A 
HETATM   35  C22 UNL     1      22.784  48.990  45.747  1.00  0.00     0.009 A 
ENDBRANCH  28  29
ENDBRANCH   5  28
BRANCH   8  36
HETATM   36  C23 UNL     1      25.580  45.987  43.959  1.00  0.00     0.114 C 
HETATM   37  C24 UNL     1      26.574  46.037  44.740  1.00  0.00     0.025 C 
BRANCH  37  38
HETATM   38  C25 UNL     1      27.957  46.313  44.159  1.00  0.00     0.212 C 
BRANCH  38  39
HETATM   39  N7  UNL     1      28.731  47.194  44.960  1.00  0.00    -0.071 N 
ATOM     40  H73 UNL     1      28.280  48.106  45.038  1.00  0.00     0.275 HD
ATOM     41  H72 UNL     1      28.707  46.912  45.939  1.00  0.00     0.275 HD
ATOM     42  H71 UNL     1      29.692  47.290  44.632  1.00  0.00     0.275 HD
ENDBRANCH  38  39
BRANCH  38  43
HETATM   43  C26 UNL     1      28.648  45.028  43.830  1.00  0.00     0.080 C 
BRANCH  43  44
HETATM   44  C27 UNL     1      29.749  45.321  42.878  1.00  0.00     0.055 C 
HETATM   45  N8  UNL     1      30.218  44.453  42.062  1.00  0.00    -0.411 N 
ATOM     46  H82 UNL     1      29.803  43.521  42.079  1.00  0.00     0.155 HD
ATOM     47  H81 UNL     1      30.974  44.654  41.408  1.00  0.00     0.155 HD
ENDBRANCH  43  44
ENDBRANCH  38  43
ENDBRANCH  37  38
ENDBRANCH   8  36
TORSDOF 15
ENDMDL
