MODEL 1
REMARK VINA RESULT: -6.237920568      0.000      0.000
REMARK  5 active torsions:
REMARK  status: ('A' for Active; 'I' for Inactive)
REMARK    1  A    between atoms: O1_1  and  C1_3 
REMARK    2  A    between atoms: C1_3  and  C2_4 
REMARK    3  A    between atoms: C2_4  and  O2_5 
REMARK    4  A    between atoms: O2_5  and  C3_6 
REMARK    5  A    between atoms: C7_10  and  O3_11 
ROOT
HETATM    1  C3  UNL     1      65.901  95.818  51.409  1.00  0.00     0.262 C 
HETATM    2  C4  UNL     1      65.032  96.969  51.937  1.00  0.00     0.061 C 
HETATM    3  C5  UNL     1      65.099  98.001  50.806  1.00  0.00     0.010 C 
HETATM    4  C6  UNL     1      64.444  97.355  49.621  1.00  0.00     0.061 C 
HETATM    5  C7  UNL     1      64.300  95.881  49.729  1.00  0.00     0.260 C 
HETATM    6  O4  UNL     1      65.306  95.212  50.350  1.00  0.00    -0.332 OA
ENDROOT
BRANCH   1   7
HETATM    7  O2  UNL     1      66.211  95.028  52.471  1.00  0.00    -0.359 OA
BRANCH   7   8
HETATM    8  C2  UNL     1      67.503  94.593  52.553  1.00  0.00     0.197 C 
BRANCH   8   9
HETATM    9  C1  UNL     1      67.832  93.446  51.632  1.00  0.00     0.190 C 
BRANCH   9  10
HETATM   10  O1  UNL     1      68.790  93.917  50.724  1.00  0.00    -0.399 OA
ATOM     11  H1  UNL     1      68.596  93.512  49.886  1.00  0.00     0.209 HD
ENDBRANCH   9  10
ENDBRANCH   8   9
ENDBRANCH   7   8
ENDBRANCH   1   7
BRANCH   5  12
HETATM   12  O3  UNL     1      64.201  95.373  48.412  1.00  0.00    -0.371 OA
ATOM     13  H3  UNL     1      64.336  94.434  48.463  1.00  0.00     0.212 HD
ENDBRANCH   5  12
TORSDOF 5
ENDMDL
MODEL 2
REMARK VINA RESULT: -6.033437593      1.160      1.248
REMARK  5 active torsions:
REMARK  status: ('A' for Active; 'I' for Inactive)
REMARK    1  A    between atoms: O1_1  and  C1_3 
REMARK    2  A    between atoms: C1_3  and  C2_4 
REMARK    3  A    between atoms: C2_4  and  O2_5 
REMARK    4  A    between atoms: O2_5  and  C3_6 
REMARK    5  A    between atoms: C7_10  and  O3_11 
ROOT
HETATM    1  C3  UNL     1      65.378  96.046  50.616  1.00  0.00     0.262 C 
HETATM    2  C4  UNL     1      64.905  97.186  51.530  1.00  0.00     0.061 C 
HETATM    3  C5  UNL     1      65.323  98.443  50.761  1.00  0.00     0.010 C 
HETATM    4  C6  UNL     1      64.528  98.430  49.488  1.00  0.00     0.061 C 
HETATM    5  C7  UNL     1      63.923  97.115  49.158  1.00  0.00     0.260 C 
HETATM    6  O4  UNL     1      64.649  96.012  49.471  1.00  0.00    -0.332 OA
ENDROOT
BRANCH   1   7
HETATM    7  O2  UNL     1      65.395  94.911  51.365  1.00  0.00    -0.359 OA
BRANCH   7   8
HETATM    8  C2  UNL     1      66.416  94.787  52.263  1.00  0.00     0.197 C 
BRANCH   8   9
HETATM    9  C1  UNL     1      67.226  93.524  52.114  1.00  0.00     0.190 C 
BRANCH   9  10
HETATM   10  O1  UNL     1      68.536  93.835  52.504  1.00  0.00    -0.399 OA
ATOM     11  H1  UNL     1      68.756  93.248  53.217  1.00  0.00     0.209 HD
ENDBRANCH   9  10
ENDBRANCH   8   9
ENDBRANCH   7   8
ENDBRANCH   1   7
BRANCH   5  12
HETATM   12  O3  UNL     1      63.702  97.096  47.760  1.00  0.00    -0.371 OA
ATOM     13  H3  UNL     1      63.067  96.412  47.586  1.00  0.00     0.212 HD
ENDBRANCH   5  12
TORSDOF 5
ENDMDL
MODEL 3
REMARK VINA RESULT: -5.538751132      2.870      5.310
REMARK  5 active torsions:
REMARK  status: ('A' for Active; 'I' for Inactive)
REMARK    1  A    between atoms: O1_1  and  C1_3 
REMARK    2  A    between atoms: C1_3  and  C2_4 
REMARK    3  A    between atoms: C2_4  and  O2_5 
REMARK    4  A    between atoms: O2_5  and  C3_6 
REMARK    5  A    between atoms: C7_10  and  O3_11 
ROOT
HETATM    1  C3  UNL     1      64.091  98.682  49.384  1.00  0.00     0.262 C 
HETATM    2  C4  UNL     1      65.383  98.656  50.214  1.00  0.00     0.061 C 
HETATM    3  C5  UNL     1      65.011  97.771  51.408  1.00  0.00     0.010 C 
HETATM    4  C6  UNL     1      64.728  96.411  50.840  1.00  0.00     0.061 C 
HETATM    5  C7  UNL     1      64.497  96.396  49.373  1.00  0.00     0.260 C 
HETATM    6  O4  UNL     1      63.838  97.460  48.848  1.00  0.00    -0.332 OA
ENDROOT
BRANCH   1   7
HETATM    7  O2  UNL     1      64.190  99.723  48.516  1.00  0.00    -0.359 OA
BRANCH   7   8
HETATM    8  C2  UNL     1      63.927  99.453  47.204  1.00  0.00     0.197 C 
BRANCH   8   9
HETATM    9  C1  UNL     1      64.629 100.362  46.228  1.00  0.00     0.190 C 
BRANCH   9  10
HETATM   10  O1  UNL     1      64.779  99.639  45.037  1.00  0.00    -0.399 OA
ATOM     11  H1  UNL     1      63.953  99.701  44.572  1.00  0.00     0.209 HD
ENDBRANCH   9  10
ENDBRANCH   8   9
ENDBRANCH   7   8
ENDBRANCH   1   7
BRANCH   5  12
HETATM   12  O3  UNL     1      63.738  95.239  49.082  1.00  0.00    -0.371 OA
ATOM     13  H3  UNL     1      63.858  95.050  48.159  1.00  0.00     0.212 HD
ENDBRANCH   5  12
TORSDOF 5
ENDMDL
MODEL 4
REMARK VINA RESULT: -5.405882989      1.868      4.434
REMARK  5 active torsions:
REMARK  status: ('A' for Active; 'I' for Inactive)
REMARK    1  A    between atoms: O1_1  and  C1_3 
REMARK    2  A    between atoms: C1_3  and  C2_4 
REMARK    3  A    between atoms: C2_4  and  O2_5 
REMARK    4  A    between atoms: O2_5  and  C3_6 
REMARK    5  A    between atoms: C7_10  and  O3_11 
ROOT
HETATM    1  C3  UNL     1      64.946  95.869  50.737  1.00  0.00     0.262 C 
HETATM    2  C4  UNL     1      65.351  96.821  51.873  1.00  0.00     0.061 C 
HETATM    3  C5  UNL     1      65.398  95.900  53.096  1.00  0.00     0.010 C 
HETATM    4  C6  UNL     1      66.496  94.913  52.826  1.00  0.00     0.061 C 
HETATM    5  C7  UNL     1      66.917  94.839  51.404  1.00  0.00     0.260 C 
HETATM    6  O4  UNL     1      65.942  94.986  50.470  1.00  0.00    -0.332 OA
ENDROOT
BRANCH   1   7
HETATM    7  O2  UNL     1      64.515  96.639  49.702  1.00  0.00    -0.359 OA
BRANCH   7   8
HETATM    8  C2  UNL     1      64.591  97.991  49.873  1.00  0.00     0.197 C 
BRANCH   8   9
HETATM    9  C1  UNL     1      63.971  98.795  48.758  1.00  0.00     0.190 C 
BRANCH   9  10
HETATM   10  O1  UNL     1      64.570 100.061  48.791  1.00  0.00    -0.399 OA
ATOM     11  H1  UNL     1      65.457  99.954  48.470  1.00  0.00     0.209 HD
ENDBRANCH   9  10
ENDBRANCH   8   9
ENDBRANCH   7   8
ENDBRANCH   1   7
BRANCH   5  12
HETATM   12  O3  UNL     1      67.505  93.568  51.207  1.00  0.00    -0.371 OA
ATOM     13  H3  UNL     1      67.679  93.480  50.278  1.00  0.00     0.212 HD
ENDBRANCH   5  12
TORSDOF 5
ENDMDL
MODEL 5
REMARK VINA RESULT: -5.200017028      3.094      5.598
REMARK  5 active torsions:
REMARK  status: ('A' for Active; 'I' for Inactive)
REMARK    1  A    between atoms: O1_1  and  C1_3 
REMARK    2  A    between atoms: C1_3  and  C2_4 
REMARK    3  A    between atoms: C2_4  and  O2_5 
REMARK    4  A    between atoms: O2_5  and  C3_6 
REMARK    5  A    between atoms: C7_10  and  O3_11 
ROOT
HETATM    1  C3  UNL     1      63.654  98.560  48.319  1.00  0.00     0.262 C 
HETATM    2  C4  UNL     1      64.895  99.083  49.056  1.00  0.00     0.061 C 
HETATM    3  C5  UNL     1      64.625  98.690  50.512  1.00  0.00     0.010 C 
HETATM    4  C6  UNL     1      64.599  97.190  50.535  1.00  0.00     0.061 C 
HETATM    5  C7  UNL     1      64.437  96.560  49.200  1.00  0.00     0.260 C 
HETATM    6  O4  UNL     1      63.632  97.202  48.315  1.00  0.00    -0.332 OA
ENDROOT
BRANCH   1   7
HETATM    7  O2  UNL     1      63.615  99.176  47.108  1.00  0.00    -0.359 OA
BRANCH   7   8
HETATM    8  C2  UNL     1      63.871  98.397  46.017  1.00  0.00     0.197 C 
BRANCH   8   9
HETATM    9  C1  UNL     1      64.727  99.058  44.967  1.00  0.00     0.190 C 
BRANCH   9  10
HETATM   10  O1  UNL     1      64.847 100.405  45.331  1.00  0.00    -0.399 OA
ATOM     11  H1  UNL     1      65.773 100.575  45.455  1.00  0.00     0.209 HD
ENDBRANCH   9  10
ENDBRANCH   8   9
ENDBRANCH   7   8
ENDBRANCH   1   7
BRANCH   5  12
HETATM   12  O3  UNL     1      63.895  95.270  49.409  1.00  0.00    -0.371 OA
ATOM     13  H3  UNL     1      64.040  94.772  48.614  1.00  0.00     0.212 HD
ENDBRANCH   5  12
TORSDOF 5
ENDMDL
