MODEL 1
REMARK VINA RESULT: -8.003027337      0.000      0.000
REMARK  4 active torsions:
REMARK  status: ('A' for Active; 'I' for Inactive)
REMARK    1  A    between atoms: C3_3  and  C4_4 
REMARK    2  A    between atoms: C8_9  and  O2_10 
REMARK    3  A    between atoms: N1_14  and  O3_16 
REMARK    4  A    between atoms: C15_23  and  O5_24 
ROOT
HETATM    1  C4  UNL     1       0.678 -10.359  42.542  1.00  0.00     0.208 C 
HETATM    2  O1  UNL     1       0.370 -11.024  43.664  1.00  0.00    -0.359 OA
HETATM    3  C5  UNL     1       0.019 -10.356  44.780  1.00  0.00     0.105 C 
HETATM    4  C6  UNL     1      -1.070 -11.237  45.437  1.00  0.00     0.047 C 
HETATM    5  C7  UNL     1      -0.938 -11.050  46.905  1.00  0.00     0.035 C 
HETATM    6  C8  UNL     1       0.462 -10.567  47.160  1.00  0.00     0.121 C 
HETATM    7  C9  UNL     1       1.065 -10.213  45.842  1.00  0.00     0.076 C 
HETATM    8  C10 UNL     1      -0.692  -9.050  44.559  1.00  0.00     0.054 C 
HETATM    9  N1  UNL     1      -1.498  -8.620  45.458  1.00  0.00    -0.274 N 
ATOM     10  H1  UNL     1      -1.646  -9.165  46.307  1.00  0.00     0.193 HD
HETATM   11  C11 UNL     1      -0.459  -8.306  43.336  1.00  0.00     0.102 C 
HETATM   12  C12 UNL     1      -0.365  -6.832  43.418  1.00  0.00     0.018 C 
HETATM   13  C13 UNL     1       0.560  -6.178  42.437  1.00  0.00     0.027 C 
HETATM   14  C14 UNL     1       1.059  -7.013  41.332  1.00  0.00     0.171 C 
HETATM   15  O4  UNL     1       0.688  -8.328  41.337  1.00  0.00    -0.352 OA
HETATM   16  C15 UNL     1       0.770  -8.870  42.645  1.00  0.00     0.201 C 
ENDROOT
BRANCH   1  17
HETATM   17  C3  UNL     1       1.962 -10.934  41.991  1.00  0.00     0.006 C 
HETATM   18  C2  UNL     1       2.645 -11.820  42.678  1.00  0.00    -0.032 C 
HETATM   19  C1  UNL     1       3.897 -12.381  42.141  1.00  0.00     0.036 C 
ENDBRANCH   1  17
BRANCH   6  20
HETATM   20  O2  UNL     1       0.497  -9.520  48.061  1.00  0.00    -0.395 OA
ATOM     21  H2  UNL     1       1.316  -9.040  48.021  1.00  0.00     0.210 HD
ENDBRANCH   6  20
BRANCH   9  22
HETATM   22  O3  UNL     1      -2.157  -7.445  45.291  1.00  0.00    -0.290 OA
ATOM     23  H3  UNL     1      -2.350  -6.888  46.036  1.00  0.00     0.244 HD
ENDBRANCH   9  22
BRANCH  16  24
HETATM   24  O5  UNL     1       1.965  -8.408  43.166  1.00  0.00    -0.362 OA
ATOM     25  H5  UNL     1       2.089  -7.470  43.086  1.00  0.00     0.213 HD
ENDBRANCH  16  24
TORSDOF 4
ENDMDL
MODEL 2
REMARK VINA RESULT: -7.917815145      3.140      5.983
REMARK  4 active torsions:
REMARK  status: ('A' for Active; 'I' for Inactive)
REMARK    1  A    between atoms: C3_3  and  C4_4 
REMARK    2  A    between atoms: C8_9  and  O2_10 
REMARK    3  A    between atoms: N1_14  and  O3_16 
REMARK    4  A    between atoms: C15_23  and  O5_24 
ROOT
HETATM    1  C4  UNL     1       2.835  -9.470  41.808  1.00  0.00     0.208 C 
HETATM    2  O1  UNL     1       3.550  -9.313  40.686  1.00  0.00    -0.359 OA
HETATM    3  C5  UNL     1       3.064  -8.584  39.662  1.00  0.00     0.105 C 
HETATM    4  C6  UNL     1       4.300  -7.863  39.074  1.00  0.00     0.047 C 
HETATM    5  C7  UNL     1       4.052  -7.720  37.615  1.00  0.00     0.035 C 
HETATM    6  C8  UNL     1       3.040  -8.766  37.239  1.00  0.00     0.121 C 
HETATM    7  C9  UNL     1       2.493  -9.340  38.502  1.00  0.00     0.076 C 
HETATM    8  C10 UNL     1       2.161  -7.446  40.047  1.00  0.00     0.054 C 
HETATM    9  N1  UNL     1       2.080  -6.426  39.273  1.00  0.00    -0.274 N 
ATOM     10  H1  UNL     1       2.625  -6.401  38.412  1.00  0.00     0.193 HD
HETATM   11  C11 UNL     1       1.406  -7.517  41.283  1.00  0.00     0.102 C 
HETATM   12  C12 UNL     1       0.019  -7.002  41.289  1.00  0.00     0.018 C 
HETATM   13  C13 UNL     1      -0.938  -7.706  42.203  1.00  0.00     0.027 C 
HETATM   14  C14 UNL     1      -0.359  -8.635  43.187  1.00  0.00     0.171 C 
HETATM   15  O4  UNL     1       0.993  -8.823  43.136  1.00  0.00    -0.352 OA
HETATM   16  C15 UNL     1       1.435  -8.946  41.794  1.00  0.00     0.201 C 
ENDROOT
BRANCH   1  17
HETATM   17  C3  UNL     1       2.850 -10.936  42.174  1.00  0.00     0.006 C 
HETATM   18  C2  UNL     1       3.890 -11.685  41.887  1.00  0.00    -0.032 C 
HETATM   19  C1  UNL     1       3.905 -13.115  42.244  1.00  0.00     0.036 C 
ENDBRANCH   1  17
BRANCH   6  20
HETATM   20  O2  UNL     1       2.054  -8.263  36.411  1.00  0.00    -0.395 OA
ATOM     21  H2  UNL     1       1.433  -8.932  36.147  1.00  0.00     0.210 HD
ENDBRANCH   6  20
BRANCH   9  22
HETATM   22  O3  UNL     1       1.275  -5.381  39.590  1.00  0.00    -0.290 OA
ATOM     23  H3  UNL     1       1.476  -4.505  39.283  1.00  0.00     0.244 HD
ENDBRANCH   9  22
BRANCH  16  24
HETATM   24  O5  UNL     1       0.521  -9.779  41.176  1.00  0.00    -0.362 OA
ATOM     25  H5  UNL     1      -0.355  -9.418  41.110  1.00  0.00     0.213 HD
ENDBRANCH  16  24
TORSDOF 4
ENDMDL
MODEL 3
REMARK VINA RESULT: -7.728354834      1.215      1.329
REMARK  4 active torsions:
REMARK  status: ('A' for Active; 'I' for Inactive)
REMARK    1  A    between atoms: C3_3  and  C4_4 
REMARK    2  A    between atoms: C8_9  and  O2_10 
REMARK    3  A    between atoms: N1_14  and  O3_16 
REMARK    4  A    between atoms: C15_23  and  O5_24 
ROOT
HETATM    1  C4  UNL     1       1.625 -11.090  42.932  1.00  0.00     0.208 C 
HETATM    2  O1  UNL     1       1.294 -11.617  44.118  1.00  0.00    -0.359 OA
HETATM    3  C5  UNL     1       0.370 -11.021  44.898  1.00  0.00     0.105 C 
HETATM    4  C6  UNL     1      -0.395 -12.190  45.561  1.00  0.00     0.047 C 
HETATM    5  C7  UNL     1      -0.814 -11.712  46.906  1.00  0.00     0.035 C 
HETATM    6  C8  UNL     1       0.104 -10.580  47.272  1.00  0.00     0.121 C 
HETATM    7  C9  UNL     1       0.877 -10.212  46.051  1.00  0.00     0.076 C 
HETATM    8  C10 UNL     1      -0.713 -10.278  44.167  1.00  0.00     0.054 C 
HETATM    9  N1  UNL     1      -1.860 -10.142  44.726  1.00  0.00    -0.274 N 
ATOM     10  H1  UNL     1      -2.020 -10.537  45.652  1.00  0.00     0.193 HD
HETATM   11  C11 UNL     1      -0.448  -9.737  42.849  1.00  0.00     0.102 C 
HETATM   12  C12 UNL     1      -1.008  -8.410  42.508  1.00  0.00     0.018 C 
HETATM   13  C13 UNL     1      -0.188  -7.572  41.575  1.00  0.00     0.027 C 
HETATM   14  C14 UNL     1       0.928  -8.240  40.885  1.00  0.00     0.171 C 
HETATM   15  O4  UNL     1       1.158  -9.547  41.206  1.00  0.00    -0.352 OA
HETATM   16  C15 UNL     1       1.051  -9.748  42.606  1.00  0.00     0.201 C 
ENDROOT
BRANCH   1  17
HETATM   17  C3  UNL     1       3.132 -11.061  42.834  1.00  0.00     0.006 C 
HETATM   18  C2  UNL     1       3.768 -11.914  42.065  1.00  0.00    -0.032 C 
HETATM   19  C1  UNL     1       5.238 -11.886  41.969  1.00  0.00     0.036 C 
ENDBRANCH   1  17
BRANCH   6  20
HETATM   20  O2  UNL     1      -0.581  -9.508  47.813  1.00  0.00    -0.395 OA
ATOM     21  H2  UNL     1      -1.510  -9.684  47.901  1.00  0.00     0.210 HD
ENDBRANCH   6  20
BRANCH   9  22
HETATM   22  O3  UNL     1      -2.861  -9.478  44.095  1.00  0.00    -0.290 OA
ATOM     23  H3  UNL     1      -3.278  -8.730  44.505  1.00  0.00     0.244 HD
ENDBRANCH   9  22
BRANCH  16  24
HETATM   24  O5  UNL     1       1.719  -8.687  43.188  1.00  0.00    -0.362 OA
ATOM     25  H5  UNL     1       2.658  -8.690  43.043  1.00  0.00     0.213 HD
ENDBRANCH  16  24
TORSDOF 4
ENDMDL
MODEL 4
REMARK VINA RESULT: -7.726027354      2.277      4.518
REMARK  4 active torsions:
REMARK  status: ('A' for Active; 'I' for Inactive)
REMARK    1  A    between atoms: C3_3  and  C4_4 
REMARK    2  A    between atoms: C8_9  and  O2_10 
REMARK    3  A    between atoms: N1_14  and  O3_16 
REMARK    4  A    between atoms: C15_23  and  O5_24 
ROOT
HETATM    1  C4  UNL     1       0.246  -9.938  46.317  1.00  0.00     0.208 C 
HETATM    2  O1  UNL     1       0.183 -11.262  46.122  1.00  0.00    -0.359 OA
HETATM    3  C5  UNL     1      -0.315 -11.761  44.973  1.00  0.00     0.105 C 
HETATM    4  C6  UNL     1       0.549 -13.011  44.683  1.00  0.00     0.047 C 
HETATM    5  C7  UNL     1      -0.336 -13.987  43.994  1.00  0.00     0.035 C 
HETATM    6  C8  UNL     1      -1.750 -13.619  44.348  1.00  0.00     0.121 C 
HETATM    7  C9  UNL     1      -1.717 -12.285  45.013  1.00  0.00     0.076 C 
HETATM    8  C10 UNL     1      -0.103 -10.912  43.752  1.00  0.00     0.054 C 
HETATM    9  N1  UNL     1      -0.047 -11.478  42.602  1.00  0.00    -0.274 N 
ATOM     10  H1  UNL     1      -0.148 -12.490  42.532  1.00  0.00     0.193 HD
HETATM   11  C11 UNL     1       0.041  -9.476  43.893  1.00  0.00     0.102 C 
HETATM   12  C12 UNL     1      -0.597  -8.604  42.882  1.00  0.00     0.018 C 
HETATM   13  C13 UNL     1      -1.091  -7.278  43.378  1.00  0.00     0.027 C 
HETATM   14  C14 UNL     1      -0.657  -6.866  44.722  1.00  0.00     0.171 C 
HETATM   15  O4  UNL     1       0.103  -7.756  45.426  1.00  0.00    -0.352 OA
HETATM   16  C15 UNL     1      -0.406  -9.073  45.287  1.00  0.00     0.201 C 
ENDROOT
BRANCH   1  17
HETATM   17  C3  UNL     1      -0.308  -9.639  47.691  1.00  0.00     0.006 C 
HETATM   18  C2  UNL     1      -0.468 -10.600  48.570  1.00  0.00    -0.032 C 
HETATM   19  C1  UNL     1      -1.009 -10.308  49.909  1.00  0.00     0.036 C 
ENDBRANCH   1  17
BRANCH   6  20
HETATM   20  O2  UNL     1      -2.587 -13.646  43.248  1.00  0.00    -0.395 OA
ATOM     21  H2  UNL     1      -2.130 -13.904  42.457  1.00  0.00     0.210 HD
ENDBRANCH   6  20
BRANCH   9  22
HETATM   22  O3  UNL     1       0.143 -10.742  41.478  1.00  0.00    -0.290 OA
ATOM     23  H3  UNL     1      -0.439 -10.022  41.266  1.00  0.00     0.244 HD
ENDBRANCH   9  22
BRANCH  16  24
HETATM   24  O5  UNL     1      -1.776  -8.960  45.423  1.00  0.00    -0.362 OA
ATOM     25  H5  UNL     1      -2.074  -8.093  45.674  1.00  0.00     0.213 HD
ENDBRANCH  16  24
TORSDOF 4
ENDMDL
MODEL 5
REMARK VINA RESULT: -7.701974078      2.699      5.023
REMARK  4 active torsions:
REMARK  status: ('A' for Active; 'I' for Inactive)
REMARK    1  A    between atoms: C3_3  and  C4_4 
REMARK    2  A    between atoms: C8_9  and  O2_10 
REMARK    3  A    between atoms: N1_14  and  O3_16 
REMARK    4  A    between atoms: C15_23  and  O5_24 
ROOT
HETATM    1  C4  UNL     1       1.039 -10.192  41.873  1.00  0.00     0.208 C 
HETATM    2  O1  UNL     1       0.340  -9.112  42.249  1.00  0.00    -0.359 OA
HETATM    3  C5  UNL     1       0.649  -7.894  41.764  1.00  0.00     0.105 C 
HETATM    4  C6  UNL     1      -0.714  -7.182  41.595  1.00  0.00     0.047 C 
HETATM    5  C7  UNL     1      -0.470  -5.736  41.840  1.00  0.00     0.035 C 
HETATM    6  C8  UNL     1       0.788  -5.638  42.655  1.00  0.00     0.121 C 
HETATM    7  C9  UNL     1       1.429  -6.984  42.662  1.00  0.00     0.076 C 
HETATM    8  C10 UNL     1       1.215  -7.874  40.372  1.00  0.00     0.054 C 
HETATM    9  N1  UNL     1       1.052  -6.828  39.648  1.00  0.00    -0.274 N 
ATOM     10  H1  UNL     1       0.543  -6.028  40.024  1.00  0.00     0.193 HD
HETATM   11  C11 UNL     1       1.927  -9.034  39.872  1.00  0.00     0.102 C 
HETATM   12  C12 UNL     1       3.134  -8.814  39.043  1.00  0.00     0.018 C 
HETATM   13  C13 UNL     1       4.214  -9.845  39.170  1.00  0.00     0.027 C 
HETATM   14  C14 UNL     1       3.867 -11.091  39.874  1.00  0.00     0.171 C 
HETATM   15  O4  UNL     1       2.612 -11.169  40.407  1.00  0.00    -0.352 OA
HETATM   16  C15 UNL     1       2.256  -9.949  41.038  1.00  0.00     0.201 C 
ENDROOT
BRANCH   1  17
HETATM   17  C3  UNL     1       1.393 -10.978  43.113  1.00  0.00     0.006 C 
HETATM   18  C2  UNL     1       0.625 -10.930  44.176  1.00  0.00    -0.032 C 
HETATM   19  C1  UNL     1       0.970 -11.698  45.386  1.00  0.00     0.036 C 
ENDBRANCH   1  17
BRANCH   6  20
HETATM   20  O2  UNL     1       1.634  -4.647  42.192  1.00  0.00    -0.395 OA
ATOM     21  H2  UNL     1       2.190  -4.301  42.879  1.00  0.00     0.210 HD
ENDBRANCH   6  20
BRANCH   9  22
HETATM   22  O3  UNL     1       1.549  -6.776  38.387  1.00  0.00    -0.290 OA
ATOM     23  H3  UNL     1       2.485  -6.838  38.233  1.00  0.00     0.244 HD
ENDBRANCH   9  22
BRANCH  16  24
HETATM   24  O5  UNL     1       3.371  -9.561  41.757  1.00  0.00    -0.362 OA
ATOM     25  H5  UNL     1       3.671  -8.680  41.566  1.00  0.00     0.213 HD
ENDBRANCH  16  24
TORSDOF 4
ENDMDL
