MODEL 1
REMARK VINA RESULT: -5.651491100      0.000      0.000
REMARK  16 active torsions:
REMARK  status: ('A' for Active; 'I' for Inactive)
REMARK    1  A    between atoms: C2_2  and  C3_3 
REMARK    2  A    between atoms: C3_3  and  C4_4 
REMARK    3  A    between atoms: C5_5  and  C6_6 
REMARK    4  A    between atoms: C6_6  and  N1_7 
REMARK    5  A    between atoms: C9_13  and  C10_14 
REMARK    6  A    between atoms: C10_14  and  N2_15 
REMARK    7  A    between atoms: C10_14  and  C12_22 
REMARK    8  A    between atoms: N2_15  and  N3_17 
REMARK    9  A    between atoms: N3_17  and  C11_19 
REMARK   10  A    between atoms: C13_27  and  N7_28 
REMARK   11  A    between atoms: N7_28  and  C14_30 
REMARK   12  A    between atoms: C14_30  and  O1_31 
REMARK   13  A    between atoms: C14_30  and  C15_33 
REMARK   14  A    between atoms: C17_43  and  N12_44 
REMARK   15  A    between atoms: N12_44  and  N13_46 
REMARK   16  A    between atoms: N14_49  and  O2_50 
ROOT
HETATM    1  C12 UNL     1       1.838 -26.626  95.799  1.00  0.00     0.125 A 
HETATM    2  N5  UNL     1       1.710 -27.090  97.033  1.00  0.00    -0.281 N 
ATOM      3  H5  UNL     1       2.284 -27.884  97.314  1.00  0.00     0.188 HD
HETATM    4  N6  UNL     1       0.879 -26.579  97.915  1.00  0.00    -0.132 N 
ATOM      5  H6  UNL     1       0.841 -26.995  98.845  1.00  0.00     0.205 HD
HETATM    6  C13 UNL     1       0.077 -25.534  97.647  1.00  0.00     0.696 A 
HETATM    7  N11 UNL     1       0.163 -25.019  96.408  1.00  0.00    -0.172 N 
ATOM      8  H11 UNL     1      -0.425 -24.226  96.153  1.00  0.00     0.186 HD
HETATM    9  C17 UNL     1       1.008 -25.533  95.499  1.00  0.00     0.166 A 
ENDROOT
BRANCH   1  10
HETATM   10  C10 UNL     1       2.705 -27.194  94.735  1.00  0.00     0.109 C 
BRANCH  10  11
HETATM   11  C9  UNL     1       3.971 -26.633  94.317  1.00  0.00     0.093 A 
HETATM   12  C8  UNL     1       4.817 -26.115  95.304  1.00  0.00     0.035 A 
HETATM   13  C7  UNL     1       6.084 -25.631  95.059  1.00  0.00     0.013 A 
HETATM   14  C5  UNL     1       6.568 -25.649  93.758  1.00  0.00    -0.008 A 
HETATM   15  C4  UNL     1       5.743 -26.157  92.792  1.00  0.00     0.049 A 
HETATM   16  N14 UNL     1       4.482 -26.632  93.082  1.00  0.00    -0.226 N 
BRANCH  14  17
HETATM   17  C6  UNL     1       7.885 -25.116  93.423  1.00  0.00     0.270 C 
BRANCH  17  18
HETATM   18  N1  UNL     1       8.870 -25.591  94.409  1.00  0.00    -0.075 N 
ATOM     19  H13 UNL     1       8.722 -25.183  95.331  1.00  0.00     0.274 HD
ATOM     20  H12 UNL     1       8.725 -26.570  94.659  1.00  0.00     0.274 HD
ATOM     21  H11 UNL     1       9.812 -25.418  94.057  1.00  0.00     0.274 HD
ENDBRANCH  17  18
ENDBRANCH  14  17
BRANCH  15  22
HETATM   22  C3  UNL     1       6.208 -26.249  91.389  1.00  0.00     0.060 C 
BRANCH  22  23
HETATM   23  C2  UNL     1       5.879 -25.069  90.538  1.00  0.00     0.002 C 
HETATM   24  C1  UNL     1       5.493 -25.586  89.165  1.00  0.00     0.005 C 
ENDBRANCH  22  23
ENDBRANCH  15  22
BRANCH  16  25
HETATM   25  O2  UNL     1       3.788 -27.178  92.026  1.00  0.00    -0.282 OA
ATOM     26  H2  UNL     1       3.119 -27.814  92.254  1.00  0.00     0.245 HD
ENDBRANCH  16  25
ENDBRANCH  10  11
BRANCH  10  27
HETATM   27  N2  UNL     1       2.256 -28.290  94.262  1.00  0.00    -0.294 N 
ATOM     28  H2  UNL     1       2.552 -29.065  94.856  1.00  0.00     0.187 HD
BRANCH  27  29
HETATM   29  N3  UNL     1       1.536 -28.753  93.258  1.00  0.00    -0.278 N 
ATOM     30  H3  UNL     1       1.710 -29.703  92.930  1.00  0.00     0.189 HD
BRANCH  29  31
HETATM   31  C11 UNL     1       0.520 -27.977  92.612  1.00  0.00     0.199 C 
HETATM   32  N4  UNL     1       0.820 -26.861  91.778  1.00  0.00    -0.068 NA
HETATM   33  S1  UNL     1      -1.034 -28.392  92.842  1.00  0.00    -0.043 SA
ENDBRANCH  29  31
ENDBRANCH  27  29
ENDBRANCH  10  27
ENDBRANCH   1  10
BRANCH   9  34
HETATM   34  N12 UNL     1       1.041 -24.992  94.334  1.00  0.00    -0.290 N 
ATOM     35  H12 UNL     1       1.940 -24.897  93.862  1.00  0.00     0.188 HD
BRANCH  34  36
HETATM   36  N13 UNL     1      -0.106 -24.531  93.691  1.00  0.00    -0.344 N 
ATOM     37 2H13 UNL     1      -0.987 -24.574  94.202  1.00  0.00     0.176 HD
ATOM     38 1H13 UNL     1      -0.089 -24.158  92.741  1.00  0.00     0.176 HD
ENDBRANCH  34  36
ENDBRANCH   9  34
BRANCH   6  39
HETATM   39  N7  UNL     1      -0.733 -25.047  98.525  1.00  0.00    -0.192 N 
ATOM     40  H7  UNL     1      -0.448 -24.265  99.114  1.00  0.00     0.180 HD
BRANCH  39  41
HETATM   41  C14 UNL     1      -2.034 -25.620  98.660  1.00  0.00     0.294 C 
BRANCH  41  42
HETATM   42  O1  UNL     1      -2.240 -26.702  97.807  1.00  0.00    -0.370 OA
ATOM     43  H1  UNL     1      -1.839 -27.503  98.124  1.00  0.00     0.212 HD
ENDBRANCH  41  42
BRANCH  41  44
HETATM   44  C15 UNL     1      -3.074 -24.597  98.259  1.00  0.00     0.119 A 
HETATM   45  N8  UNL     1      -4.382 -24.774  98.125  1.00  0.00    -0.323 N 
HETATM   46  C16 UNL     1      -5.118 -23.766  97.769  1.00  0.00     0.199 A 
ATOM     47  H8  UNL     1      -4.803 -25.687  98.299  1.00  0.00     0.169 HD
HETATM   48  N9  UNL     1      -6.551 -23.872  97.600  1.00  0.00    -0.063 NA
HETATM   49  N10 UNL     1      -4.510 -22.594  97.555  1.00  0.00    -0.299 N 
HETATM   50  S2  UNL     1      -2.893 -22.948  97.865  1.00  0.00     0.006 SA
ATOM     51  H10 UNL     1      -4.923 -21.705  97.274  1.00  0.00     0.177 HD
ENDBRANCH  41  44
ENDBRANCH  39  41
ENDBRANCH   6  39
TORSDOF 16
ENDMDL
MODEL 2
REMARK VINA RESULT: -5.642078817      2.190      2.638
REMARK  16 active torsions:
REMARK  status: ('A' for Active; 'I' for Inactive)
REMARK    1  A    between atoms: C2_2  and  C3_3 
REMARK    2  A    between atoms: C3_3  and  C4_4 
REMARK    3  A    between atoms: C5_5  and  C6_6 
REMARK    4  A    between atoms: C6_6  and  N1_7 
REMARK    5  A    between atoms: C9_13  and  C10_14 
REMARK    6  A    between atoms: C10_14  and  N2_15 
REMARK    7  A    between atoms: C10_14  and  C12_22 
REMARK    8  A    between atoms: N2_15  and  N3_17 
REMARK    9  A    between atoms: N3_17  and  C11_19 
REMARK   10  A    between atoms: C13_27  and  N7_28 
REMARK   11  A    between atoms: N7_28  and  C14_30 
REMARK   12  A    between atoms: C14_30  and  O1_31 
REMARK   13  A    between atoms: C14_30  and  C15_33 
REMARK   14  A    between atoms: C17_43  and  N12_44 
REMARK   15  A    between atoms: N12_44  and  N13_46 
REMARK   16  A    between atoms: N14_49  and  O2_50 
ROOT
HETATM    1  C12 UNL     1      -0.515 -26.572  94.516  1.00  0.00     0.125 A 
HETATM    2  N5  UNL     1      -0.915 -26.931  95.727  1.00  0.00    -0.281 N 
ATOM      3  H5  UNL     1      -0.497 -27.761  96.148  1.00  0.00     0.188 HD
HETATM    4  N6  UNL     1      -1.823 -26.273  96.413  1.00  0.00    -0.132 N 
ATOM      5  H6  UNL     1      -2.074 -26.616  97.340  1.00  0.00     0.205 HD
HETATM    6  C13 UNL     1      -2.435 -25.170  95.950  1.00  0.00     0.696 A 
HETATM    7  N11 UNL     1      -2.071 -24.757  94.724  1.00  0.00    -0.172 N 
ATOM      8  H11 UNL     1      -2.506 -23.925  94.326  1.00  0.00     0.186 HD
HETATM    9  C17 UNL     1      -1.145 -25.421  94.013  1.00  0.00     0.166 A 
ENDROOT
BRANCH   1  10
HETATM   10  C10 UNL     1       0.453 -27.304  93.660  1.00  0.00     0.109 C 
BRANCH  10  11
HETATM   11  C9  UNL     1       1.878 -27.059  93.633  1.00  0.00     0.093 A 
HETATM   12  C8  UNL     1       2.645 -27.530  94.705  1.00  0.00     0.035 A 
HETATM   13  C7  UNL     1       4.019 -27.444  94.768  1.00  0.00     0.013 A 
HETATM   14  C5  UNL     1       4.702 -26.854  93.714  1.00  0.00    -0.008 A 
HETATM   15  C4  UNL     1       3.955 -26.394  92.664  1.00  0.00     0.049 A 
HETATM   16  N14 UNL     1       2.581 -26.503  92.642  1.00  0.00    -0.226 N 
BRANCH  14  17
HETATM   17  C6  UNL     1       6.153 -26.695  93.734  1.00  0.00     0.270 C 
BRANCH  17  18
HETATM   18  N1  UNL     1       6.720 -27.512  94.821  1.00  0.00    -0.075 N 
ATOM     19  H13 UNL     1       6.041 -27.696  95.559  1.00  0.00     0.274 HD
ATOM     20  H12 UNL     1       6.885 -28.477  94.533  1.00  0.00     0.274 HD
ATOM     21  H11 UNL     1       7.565 -27.065  95.175  1.00  0.00     0.274 HD
ENDBRANCH  17  18
ENDBRANCH  14  17
BRANCH  15  22
HETATM   22  C3  UNL     1       4.618 -25.794  91.484  1.00  0.00     0.060 C 
BRANCH  22  23
HETATM   23  C2  UNL     1       4.947 -26.753  90.390  1.00  0.00     0.002 C 
HETATM   24  C1  UNL     1       6.342 -26.420  89.892  1.00  0.00     0.005 C 
ENDBRANCH  22  23
ENDBRANCH  15  22
BRANCH  16  25
HETATM   25  O2  UNL     1       1.962 -26.062  91.493  1.00  0.00    -0.282 OA
ATOM     26  H2  UNL     1       1.887 -25.120  91.399  1.00  0.00     0.245 HD
ENDBRANCH  16  25
ENDBRANCH  10  11
BRANCH  10  27
HETATM   27  N2  UNL     1      -0.089 -28.242  92.986  1.00  0.00    -0.294 N 
ATOM     28  H2  UNL     1       0.553 -28.553  92.256  1.00  0.00     0.187 HD
BRANCH  27  29
HETATM   29  N3  UNL     1      -1.205 -28.943  92.921  1.00  0.00    -0.278 N 
ATOM     30  H3  UNL     1      -1.330 -29.723  93.565  1.00  0.00     0.189 HD
BRANCH  29  31
HETATM   31  C11 UNL     1      -2.247 -28.653  91.982  1.00  0.00     0.199 C 
HETATM   32  N4  UNL     1      -2.431 -27.359  91.414  1.00  0.00    -0.068 NA
HETATM   33  S1  UNL     1      -3.257 -29.852  91.552  1.00  0.00    -0.043 SA
ENDBRANCH  29  31
ENDBRANCH  27  29
ENDBRANCH  10  27
ENDBRANCH   1  10
BRANCH   9  34
HETATM   34  N12 UNL     1      -0.842 -24.971  92.848  1.00  0.00    -0.290 N 
ATOM     35  H12 UNL     1       0.122 -25.053  92.526  1.00  0.00     0.188 HD
BRANCH  34  36
HETATM   36  N13 UNL     1      -1.781 -24.376  92.009  1.00  0.00    -0.344 N 
ATOM     37 2H13 UNL     1      -2.412 -24.988  91.493  1.00  0.00     0.176 HD
ATOM     38 1H13 UNL     1      -1.854 -23.364  91.899  1.00  0.00     0.176 HD
ENDBRANCH  34  36
ENDBRANCH   9  34
BRANCH   6  39
HETATM   39  N7  UNL     1      -3.325 -24.539  96.638  1.00  0.00    -0.192 N 
ATOM     40  H7  UNL     1      -4.317 -24.657  96.432  1.00  0.00     0.180 HD
BRANCH  39  41
HETATM   41  C14 UNL     1      -2.902 -23.673  97.692  1.00  0.00     0.294 C 
BRANCH  41  42
HETATM   42  O1  UNL     1      -1.713 -24.089  98.288  1.00  0.00    -0.370 OA
ATOM     43  H1  UNL     1      -0.943 -23.841  97.788  1.00  0.00     0.212 HD
ENDBRANCH  41  42
BRANCH  41  44
HETATM   44  C15 UNL     1      -3.930 -23.698  98.801  1.00  0.00     0.119 A 
HETATM   45  N8  UNL     1      -4.133 -24.650  99.703  1.00  0.00    -0.323 N 
HETATM   46  C16 UNL     1      -5.072 -24.488 100.584  1.00  0.00     0.199 A 
ATOM     47  H8  UNL     1      -3.561 -25.494  99.705  1.00  0.00     0.169 HD
HETATM   48  N9  UNL     1      -5.360 -25.475 101.602  1.00  0.00    -0.063 NA
HETATM   49  N10 UNL     1      -5.789 -23.360 100.532  1.00  0.00    -0.299 N 
HETATM   50  S2  UNL     1      -5.112 -22.545  99.224  1.00  0.00     0.006 SA
ATOM     51  H10 UNL     1      -6.557 -23.066 101.136  1.00  0.00     0.177 HD
ENDBRANCH  41  44
ENDBRANCH  39  41
ENDBRANCH   6  39
TORSDOF 16
ENDMDL
MODEL 3
REMARK VINA RESULT: -5.579757964      4.485      6.671
REMARK  16 active torsions:
REMARK  status: ('A' for Active; 'I' for Inactive)
REMARK    1  A    between atoms: C2_2  and  C3_3 
REMARK    2  A    between atoms: C3_3  and  C4_4 
REMARK    3  A    between atoms: C5_5  and  C6_6 
REMARK    4  A    between atoms: C6_6  and  N1_7 
REMARK    5  A    between atoms: C9_13  and  C10_14 
REMARK    6  A    between atoms: C10_14  and  N2_15 
REMARK    7  A    between atoms: C10_14  and  C12_22 
REMARK    8  A    between atoms: N2_15  and  N3_17 
REMARK    9  A    between atoms: N3_17  and  C11_19 
REMARK   10  A    between atoms: C13_27  and  N7_28 
REMARK   11  A    between atoms: N7_28  and  C14_30 
REMARK   12  A    between atoms: C14_30  and  O1_31 
REMARK   13  A    between atoms: C14_30  and  C15_33 
REMARK   14  A    between atoms: C17_43  and  N12_44 
REMARK   15  A    between atoms: N12_44  and  N13_46 
REMARK   16  A    between atoms: N14_49  and  O2_50 
ROOT
HETATM    1  C12 UNL     1      -0.719 -24.075  93.667  1.00  0.00     0.125 A 
HETATM    2  N5  UNL     1      -0.283 -24.042  94.918  1.00  0.00    -0.281 N 
ATOM      3  H5  UNL     1       0.463 -23.388  95.152  1.00  0.00     0.188 HD
HETATM    4  N6  UNL     1      -0.762 -24.810  95.871  1.00  0.00    -0.132 N 
ATOM      5  H6  UNL     1      -0.371 -24.722  96.809  1.00  0.00     0.205 HD
HETATM    6  C13 UNL     1      -1.744 -25.706  95.668  1.00  0.00     0.696 A 
HETATM    7  N11 UNL     1      -2.227 -25.785  94.416  1.00  0.00    -0.172 N 
ATOM      8  H11 UNL     1      -2.973 -26.449  94.208  1.00  0.00     0.186 HD
HETATM    9  C17 UNL     1      -1.745 -25.006  93.434  1.00  0.00     0.166 A 
ENDROOT
BRANCH   1  10
HETATM   10  C10 UNL     1      -0.180 -23.287  92.530  1.00  0.00     0.109 C 
BRANCH  10  11
HETATM   11  C9  UNL     1      -0.594 -21.944  92.188  1.00  0.00     0.093 A 
HETATM   12  C8  UNL     1      -0.688 -21.611  90.832  1.00  0.00     0.035 A 
HETATM   13  C7  UNL     1      -1.151 -20.400  90.365  1.00  0.00     0.013 A 
HETATM   14  C5  UNL     1      -1.552 -19.438  91.280  1.00  0.00    -0.008 A 
HETATM   15  C4  UNL     1      -1.463 -19.762  92.607  1.00  0.00     0.049 A 
HETATM   16  N14 UNL     1      -0.994 -20.986  93.030  1.00  0.00    -0.226 N 
BRANCH  14  17
HETATM   17  C6  UNL     1      -2.016 -18.121  90.854  1.00  0.00     0.270 C 
BRANCH  17  18
HETATM   18  N1  UNL     1      -1.916 -18.017  89.389  1.00  0.00    -0.075 N 
ATOM     19  H13 UNL     1      -1.459 -18.829  88.975  1.00  0.00     0.274 HD
ATOM     20  H12 UNL     1      -2.823 -18.114  88.932  1.00  0.00     0.274 HD
ATOM     21  H11 UNL     1      -1.450 -17.144  89.141  1.00  0.00     0.274 HD
ENDBRANCH  17  18
ENDBRANCH  14  17
BRANCH  15  22
HETATM   22  C3  UNL     1      -1.914 -18.801  93.640  1.00  0.00     0.060 C 
BRANCH  22  23
HETATM   23  C2  UNL     1      -3.331 -18.963  94.074  1.00  0.00     0.002 C 
HETATM   24  C1  UNL     1      -3.855 -17.589  94.453  1.00  0.00     0.005 C 
ENDBRANCH  22  23
ENDBRANCH  15  22
BRANCH  16  25
HETATM   25  O2  UNL     1      -1.024 -21.203  94.390  1.00  0.00    -0.282 OA
ATOM     26  H2  UNL     1      -1.381 -22.039  94.668  1.00  0.00     0.245 HD
ENDBRANCH  16  25
ENDBRANCH  10  11
BRANCH  10  27
HETATM   27  N2  UNL     1       0.758 -23.889  91.908  1.00  0.00    -0.294 N 
ATOM     28  H2  UNL     1       0.781 -23.574  90.938  1.00  0.00     0.187 HD
BRANCH  27  29
HETATM   29  N3  UNL     1       1.707 -24.783  92.105  1.00  0.00    -0.278 N 
ATOM     30  H3  UNL     1       2.552 -24.498  92.599  1.00  0.00     0.189 HD
BRANCH  29  31
HETATM   31  C11 UNL     1       1.599 -26.139  91.654  1.00  0.00     0.199 C 
HETATM   32  N4  UNL     1       0.441 -26.936  91.889  1.00  0.00    -0.068 NA
HETATM   33  S1  UNL     1       2.848 -26.787  90.843  1.00  0.00    -0.043 SA
ENDBRANCH  29  31
ENDBRANCH  27  29
ENDBRANCH  10  27
ENDBRANCH   1  10
BRANCH   9  34
HETATM   34  N12 UNL     1      -2.254 -25.132  92.260  1.00  0.00    -0.290 N 
ATOM     35  H12 UNL     1      -2.237 -24.331  91.630  1.00  0.00     0.188 HD
BRANCH  34  36
HETATM   36  N13 UNL     1      -2.828 -26.322  91.818  1.00  0.00    -0.344 N 
ATOM     37 2H13 UNL     1      -3.793 -26.513  92.088  1.00  0.00     0.176 HD
ATOM     38 1H13 UNL     1      -2.320 -26.994  91.243  1.00  0.00     0.176 HD
ENDBRANCH  34  36
ENDBRANCH   9  34
BRANCH   6  39
HETATM   39  N7  UNL     1      -2.200 -26.451  96.616  1.00  0.00    -0.192 N 
ATOM     40  H7  UNL     1      -2.425 -27.431  96.440  1.00  0.00     0.180 HD
BRANCH  39  41
HETATM   41  C14 UNL     1      -2.384 -25.887  97.914  1.00  0.00     0.294 C 
BRANCH  41  42
HETATM   42  O1  UNL     1      -2.902 -26.800  98.831  1.00  0.00    -0.370 OA
ATOM     43  H1  UNL     1      -2.852 -27.698  98.526  1.00  0.00     0.212 HD
ENDBRANCH  41  42
BRANCH  41  44
HETATM   44  C15 UNL     1      -3.411 -24.779  97.836  1.00  0.00     0.119 A 
HETATM   45  N8  UNL     1      -4.725 -24.895  97.687  1.00  0.00    -0.323 N 
HETATM   46  C16 UNL     1      -5.448 -23.818  97.641  1.00  0.00     0.199 A 
ATOM     47  H8  UNL     1      -5.160 -25.814  97.609  1.00  0.00     0.169 HD
HETATM   48  N9  UNL     1      -6.885 -23.853  97.480  1.00  0.00    -0.063 NA
HETATM   49  N10 UNL     1      -4.821 -22.640  97.747  1.00  0.00    -0.299 N 
HETATM   50  S2  UNL     1      -3.207 -23.089  97.911  1.00  0.00     0.006 SA
ATOM     51  H10 UNL     1      -5.223 -21.703  97.733  1.00  0.00     0.177 HD
ENDBRANCH  41  44
ENDBRANCH  39  41
ENDBRANCH   6  39
TORSDOF 16
ENDMDL
MODEL 4
REMARK VINA RESULT: -5.561546851      2.631      8.799
REMARK  16 active torsions:
REMARK  status: ('A' for Active; 'I' for Inactive)
REMARK    1  A    between atoms: C2_2  and  C3_3 
REMARK    2  A    between atoms: C3_3  and  C4_4 
REMARK    3  A    between atoms: C5_5  and  C6_6 
REMARK    4  A    between atoms: C6_6  and  N1_7 
REMARK    5  A    between atoms: C9_13  and  C10_14 
REMARK    6  A    between atoms: C10_14  and  N2_15 
REMARK    7  A    between atoms: C10_14  and  C12_22 
REMARK    8  A    between atoms: N2_15  and  N3_17 
REMARK    9  A    between atoms: N3_17  and  C11_19 
REMARK   10  A    between atoms: C13_27  and  N7_28 
REMARK   11  A    between atoms: N7_28  and  C14_30 
REMARK   12  A    between atoms: C14_30  and  O1_31 
REMARK   13  A    between atoms: C14_30  and  C15_33 
REMARK   14  A    between atoms: C17_43  and  N12_44 
REMARK   15  A    between atoms: N12_44  and  N13_46 
REMARK   16  A    between atoms: N14_49  and  O2_50 
ROOT
HETATM    1  C12 UNL     1       0.211 -25.983  95.804  1.00  0.00     0.125 A 
HETATM    2  N5  UNL     1       1.011 -25.181  95.117  1.00  0.00    -0.281 N 
ATOM      3  H5  UNL     1       0.602 -24.370  94.653  1.00  0.00     0.188 HD
HETATM    4  N6  UNL     1       2.306 -25.376  95.002  1.00  0.00    -0.132 N 
ATOM      5  H6  UNL     1       2.852 -24.711  94.456  1.00  0.00     0.205 HD
HETATM    6  C13 UNL     1       2.944 -26.413  95.573  1.00  0.00     0.696 A 
HETATM    7  N11 UNL     1       2.183 -27.263  96.283  1.00  0.00    -0.172 N 
ATOM      8  H11 UNL     1       2.618 -28.067  96.736  1.00  0.00     0.186 HD
HETATM    9  C17 UNL     1       0.859 -27.073  96.407  1.00  0.00     0.166 A 
ENDROOT
BRANCH   1  10
HETATM   10  C10 UNL     1      -1.264 -25.859  95.919  1.00  0.00     0.109 C 
BRANCH  10  11
HETATM   11  C9  UNL     1      -1.949 -25.031  96.887  1.00  0.00     0.093 A 
HETATM   12  C8  UNL     1      -1.917 -23.644  96.704  1.00  0.00     0.035 A 
HETATM   13  C7  UNL     1      -2.596 -22.745  97.497  1.00  0.00     0.013 A 
HETATM   14  C5  UNL     1      -3.362 -23.225  98.550  1.00  0.00    -0.008 A 
HETATM   15  C4  UNL     1      -3.396 -24.581  98.730  1.00  0.00     0.049 A 
HETATM   16  N14 UNL     1      -2.702 -25.445  97.911  1.00  0.00    -0.226 N 
BRANCH  14  17
HETATM   17  C6  UNL     1      -4.074 -22.325  99.452  1.00  0.00     0.270 C 
BRANCH  17  18
HETATM   18  N1  UNL     1      -3.105 -21.639 100.324  1.00  0.00    -0.075 N 
ATOM     19  H13 UNL     1      -3.548 -20.935 100.914  1.00  0.00     0.274 HD
ATOM     20  H12 UNL     1      -2.753 -22.247 101.064  1.00  0.00     0.274 HD
ATOM     21  H11 UNL     1      -2.354 -21.248  99.755  1.00  0.00     0.274 HD
ENDBRANCH  17  18
ENDBRANCH  14  17
BRANCH  15  22
HETATM   22  C3  UNL     1      -4.227 -25.168  99.806  1.00  0.00     0.060 C 
BRANCH  22  23
HETATM   23  C2  UNL     1      -3.601 -25.162 101.159  1.00  0.00     0.002 C 
HETATM   24  C1  UNL     1      -4.620 -25.716 102.139  1.00  0.00     0.005 C 
ENDBRANCH  22  23
ENDBRANCH  15  22
BRANCH  16  25
HETATM   25  O2  UNL     1      -2.881 -26.786  98.164  1.00  0.00    -0.282 OA
ATOM     26  H2  UNL     1      -3.395 -27.264  97.523  1.00  0.00     0.245 HD
ENDBRANCH  16  25
ENDBRANCH  10  11
BRANCH  10  27
HETATM   27  N2  UNL     1      -1.890 -26.509  95.016  1.00  0.00    -0.294 N 
ATOM     28  H2  UNL     1      -1.765 -27.511  95.169  1.00  0.00     0.187 HD
BRANCH  27  29
HETATM   29  N3  UNL     1      -2.643 -26.315  93.951  1.00  0.00    -0.278 N 
ATOM     30  H3  UNL     1      -3.612 -26.028  94.085  1.00  0.00     0.189 HD
BRANCH  29  31
HETATM   31  C11 UNL     1      -2.156 -26.491  92.616  1.00  0.00     0.199 C 
HETATM   32  N4  UNL     1      -2.837 -25.972  91.476  1.00  0.00    -0.068 NA
HETATM   33  S1  UNL     1      -0.772 -27.315  92.398  1.00  0.00    -0.043 SA
ENDBRANCH  29  31
ENDBRANCH  27  29
ENDBRANCH  10  27
ENDBRANCH   1  10
BRANCH   9  34
HETATM   34  N12 UNL     1       0.191 -27.923  97.102  1.00  0.00    -0.290 N 
ATOM     35  H12 UNL     1      -0.215 -28.731  96.630  1.00  0.00     0.188 HD
BRANCH  34  36
HETATM   36  N13 UNL     1      -0.000 -27.782  98.474  1.00  0.00    -0.344 N 
ATOM     37 2H13 UNL     1      -0.777 -27.201  98.788  1.00  0.00     0.176 HD
ATOM     38 1H13 UNL     1       0.603 -28.235  99.161  1.00  0.00     0.176 HD
ENDBRANCH  34  36
ENDBRANCH   9  34
BRANCH   6  39
HETATM   39  N7  UNL     1       4.216 -26.589  95.447  1.00  0.00    -0.192 N 
ATOM     40  H7  UNL     1       4.871 -26.026  95.989  1.00  0.00     0.180 HD
BRANCH  39  41
HETATM   41  C14 UNL     1       4.692 -27.584  94.541  1.00  0.00     0.294 C 
BRANCH  41  42
HETATM   42  O1  UNL     1       6.069 -27.780  94.629  1.00  0.00    -0.370 OA
ATOM     43  H1  UNL     1       6.511 -27.677  93.795  1.00  0.00     0.212 HD
ENDBRANCH  41  42
BRANCH  41  44
HETATM   44  C15 UNL     1       4.449 -27.123  93.121  1.00  0.00     0.119 A 
HETATM   45  N8  UNL     1       3.403 -27.386  92.347  1.00  0.00    -0.323 N 
HETATM   46  C16 UNL     1       3.374 -26.896  91.146  1.00  0.00     0.199 A 
ATOM     47  H8  UNL     1       2.635 -27.962  92.690  1.00  0.00     0.169 HD
HETATM   48  N9  UNL     1       2.273 -27.133  90.237  1.00  0.00    -0.063 NA
HETATM   49  N10 UNL     1       4.410 -26.147  90.751  1.00  0.00    -0.299 N 
HETATM   50  S2  UNL     1       5.413 -26.154  92.104  1.00  0.00     0.006 SA
ATOM     51  H10 UNL     1       4.556 -25.686  89.853  1.00  0.00     0.177 HD
ENDBRANCH  41  44
ENDBRANCH  39  41
ENDBRANCH   6  39
TORSDOF 16
ENDMDL
MODEL 5
REMARK VINA RESULT: -5.554252967      2.944      8.083
REMARK  16 active torsions:
REMARK  status: ('A' for Active; 'I' for Inactive)
REMARK    1  A    between atoms: C2_2  and  C3_3 
REMARK    2  A    between atoms: C3_3  and  C4_4 
REMARK    3  A    between atoms: C5_5  and  C6_6 
REMARK    4  A    between atoms: C6_6  and  N1_7 
REMARK    5  A    between atoms: C9_13  and  C10_14 
REMARK    6  A    between atoms: C10_14  and  N2_15 
REMARK    7  A    between atoms: C10_14  and  C12_22 
REMARK    8  A    between atoms: N2_15  and  N3_17 
REMARK    9  A    between atoms: N3_17  and  C11_19 
REMARK   10  A    between atoms: C13_27  and  N7_28 
REMARK   11  A    between atoms: N7_28  and  C14_30 
REMARK   12  A    between atoms: C14_30  and  O1_31 
REMARK   13  A    between atoms: C14_30  and  C15_33 
REMARK   14  A    between atoms: C17_43  and  N12_44 
REMARK   15  A    between atoms: N12_44  and  N13_46 
REMARK   16  A    between atoms: N14_49  and  O2_50 
ROOT
HETATM    1  C12 UNL     1      -1.947 -25.370  96.067  1.00  0.00     0.125 A 
HETATM    2  N5  UNL     1      -2.046 -26.670  95.829  1.00  0.00    -0.281 N 
ATOM      3  H5  UNL     1      -2.240 -27.292  96.614  1.00  0.00     0.188 HD
HETATM    4  N6  UNL     1      -1.908 -27.199  94.634  1.00  0.00    -0.132 N 
ATOM      5  H6  UNL     1      -2.001 -28.209  94.536  1.00  0.00     0.205 HD
HETATM    6  C13 UNL     1      -1.651 -26.469  93.535  1.00  0.00     0.696 A 
HETATM    7  N11 UNL     1      -1.538 -25.141  93.714  1.00  0.00    -0.172 N 
ATOM      8  H11 UNL     1      -1.343 -24.543  92.912  1.00  0.00     0.186 HD
HETATM    9  C17 UNL     1      -1.677 -24.590  94.931  1.00  0.00     0.166 A 
ENDROOT
BRANCH   1  10
HETATM   10  C10 UNL     1      -2.025 -24.715  97.398  1.00  0.00     0.109 C 
BRANCH  10  11
HETATM   11  C9  UNL     1      -0.919 -24.593  98.322  1.00  0.00     0.093 A 
HETATM   12  C8  UNL     1      -0.469 -23.306  98.641  1.00  0.00     0.035 A 
HETATM   13  C7  UNL     1       0.513 -23.040  99.569  1.00  0.00     0.013 A 
HETATM   14  C5  UNL     1       1.108 -24.101 100.239  1.00  0.00    -0.008 A 
HETATM   15  C4  UNL     1       0.668 -25.359  99.930  1.00  0.00     0.049 A 
HETATM   16  N14 UNL     1      -0.319 -25.579  98.995  1.00  0.00    -0.226 N 
BRANCH  14  17
HETATM   17  C6  UNL     1       2.182 -23.892 101.205  1.00  0.00     0.270 C 
BRANCH  17  18
HETATM   18  N1  UNL     1       1.677 -23.089 102.332  1.00  0.00    -0.075 N 
ATOM     19  H13 UNL     1       2.248 -22.262 102.503  1.00  0.00     0.274 HD
ATOM     20  H12 UNL     1       0.801 -22.617 102.108  1.00  0.00     0.274 HD
ATOM     21  H11 UNL     1       1.596 -23.680 103.160  1.00  0.00     0.274 HD
ENDBRANCH  17  18
ENDBRANCH  14  17
BRANCH  15  22
HETATM   22  C3  UNL     1       1.225 -26.536 100.635  1.00  0.00     0.060 C 
BRANCH  22  23
HETATM   23  C2  UNL     1       0.600 -26.831 101.957  1.00  0.00     0.002 C 
HETATM   24  C1  UNL     1       0.980 -28.251 102.338  1.00  0.00     0.005 C 
ENDBRANCH  22  23
ENDBRANCH  15  22
BRANCH  16  25
HETATM   25  O2  UNL     1      -0.713 -26.889  98.834  1.00  0.00    -0.282 OA
ATOM     26  H2  UNL     1      -1.397 -27.040  98.192  1.00  0.00     0.245 HD
ENDBRANCH  16  25
ENDBRANCH  10  11
BRANCH  10  27
HETATM   27  N2  UNL     1      -3.165 -24.191  97.627  1.00  0.00    -0.294 N 
ATOM     28  H2  UNL     1      -3.144 -23.708  98.526  1.00  0.00     0.187 HD
BRANCH  27  29
HETATM   29  N3  UNL     1      -4.362 -24.067  97.088  1.00  0.00    -0.278 N 
ATOM     30  H3  UNL     1      -4.473 -24.267  96.094  1.00  0.00     0.189 HD
BRANCH  29  31
HETATM   31  C11 UNL     1      -5.513 -23.664  97.840  1.00  0.00     0.199 C 
HETATM   32  N4  UNL     1      -6.844 -23.965  97.428  1.00  0.00    -0.068 NA
HETATM   33  S1  UNL     1      -5.285 -22.832  99.217  1.00  0.00    -0.043 SA
ENDBRANCH  29  31
ENDBRANCH  27  29
ENDBRANCH  10  27
ENDBRANCH   1  10
BRANCH   9  34
HETATM   34  N12 UNL     1      -1.559 -23.315  95.031  1.00  0.00    -0.290 N 
ATOM     35  H12 UNL     1      -1.575 -22.892  95.959  1.00  0.00     0.188 HD
BRANCH  34  36
HETATM   36  N13 UNL     1      -1.409 -22.487  93.920  1.00  0.00    -0.344 N 
ATOM     37 2H13 UNL     1      -1.467 -21.480  94.068  1.00  0.00     0.176 HD
ATOM     38 1H13 UNL     1      -1.247 -22.854  92.982  1.00  0.00     0.176 HD
ENDBRANCH  34  36
ENDBRANCH   9  34
BRANCH   6  39
HETATM   39  N7  UNL     1      -1.517 -27.006  92.370  1.00  0.00    -0.192 N 
ATOM     40  H7  UNL     1      -2.107 -26.710  91.593  1.00  0.00     0.180 HD
BRANCH  39  41
HETATM   41  C14 UNL     1      -0.530 -28.022  92.184  1.00  0.00     0.294 C 
BRANCH  41  42
HETATM   42  O1  UNL     1      -0.719 -29.118  93.024  1.00  0.00    -0.370 OA
ATOM     43  H1  UNL     1      -0.424 -29.934  92.636  1.00  0.00     0.212 HD
ENDBRANCH  41  42
BRANCH  41  44
HETATM   44  C15 UNL     1       0.829 -27.470  92.552  1.00  0.00     0.119 A 
HETATM   45  N8  UNL     1       1.683 -27.942  93.452  1.00  0.00    -0.323 N 
HETATM   46  C16 UNL     1       2.812 -27.326  93.627  1.00  0.00     0.199 A 
ATOM     47  H8  UNL     1       1.457 -28.774  93.996  1.00  0.00     0.169 HD
HETATM   48  N9  UNL     1       3.799 -27.771  94.587  1.00  0.00    -0.063 NA
HETATM   49  N10 UNL     1       3.053 -26.240  92.884  1.00  0.00    -0.299 N 
HETATM   50  S2  UNL     1       1.662 -26.114  91.944  1.00  0.00     0.006 SA
ATOM     51  H10 UNL     1       3.876 -25.637  92.886  1.00  0.00     0.177 HD
ENDBRANCH  41  44
ENDBRANCH  39  41
ENDBRANCH   6  39
TORSDOF 16
ENDMDL
