MODEL 1
REMARK VINA RESULT: -9.332247191      0.000      0.000
REMARK  3 active torsions:
REMARK  status: ('A' for Active; 'I' for Inactive)
REMARK    1  A    between atoms: C2_2  and  C4_4 
REMARK    2  A    between atoms: C21_22  and  O2_23 
REMARK    3  A    between atoms: O2_23  and  O3_24 
ROOT
HETATM    1  C4  UNL     1      14.230  -8.391  33.524  1.00  0.00     0.072 C 
HETATM    2  C5  UNL     1      15.127  -7.694  34.473  1.00  0.00     0.020 C 
HETATM    3  C6  UNL     1      16.148  -6.769  33.900  1.00  0.00     0.005 C 
HETATM    4  C7  UNL     1      16.934  -7.444  32.816  1.00  0.00     0.040 C 
HETATM    5  C8  UNL     1      16.124  -6.655  31.847  1.00  0.00    -0.077 C 
HETATM    6  C9  UNL     1      15.975  -6.842  30.544  1.00  0.00     0.015 C 
HETATM    7  C10 UNL     1      15.674  -5.734  32.940  1.00  0.00     0.013 C 
HETATM    8  C11 UNL     1      16.570  -4.542  32.947  1.00  0.00     0.017 C 
HETATM    9  C12 UNL     1      16.654  -3.700  34.135  1.00  0.00     0.002 C 
HETATM   10  C13 UNL     1      15.621  -3.764  35.188  1.00  0.00     0.005 C 
HETATM   11  C14 UNL     1      14.315  -3.108  34.869  1.00  0.00    -0.014 C 
HETATM   12  C15 UNL     1      13.188  -3.725  35.660  1.00  0.00     0.010 C 
HETATM   13  C16 UNL     1      14.017  -2.997  33.410  1.00  0.00    -0.009 C 
HETATM   14  C17 UNL     1      12.829  -2.011  33.321  1.00  0.00     0.011 C 
HETATM   15  C18 UNL     1      13.601  -4.225  32.721  1.00  0.00     0.016 C 
HETATM   16  C19 UNL     1      13.496  -3.883  31.225  1.00  0.00     0.013 C 
HETATM   17  C20 UNL     1      14.237  -5.506  33.017  1.00  0.00     0.142 C 
HETATM   18  O1  UNL     1      13.627  -6.473  32.193  1.00  0.00    -0.351 OA
HETATM   19  C21 UNL     1      13.157  -7.571  32.908  1.00  0.00     0.305 C 
ENDROOT
BRANCH   1  20
HETATM   20  C2  UNL     1      13.607  -9.552  34.216  1.00  0.00    -0.084 C 
HETATM   21  C1  UNL     1      12.852  -9.441  35.318  1.00  0.00     0.014 C 
HETATM   22  C3  UNL     1      13.808 -10.969  33.731  1.00  0.00     0.043 C 
ENDBRANCH   1  20
BRANCH  19  23
HETATM   23  O2  UNL     1      12.426  -8.305  31.986  1.00  0.00    -0.210 OA
BRANCH  23  24
HETATM   24  O3  UNL     1      12.819  -8.058  30.734  1.00  0.00    -0.248 OA
ATOM     25  H3  UNL     1      12.852  -8.851  30.213  1.00  0.00     0.253 HD
ENDBRANCH  23  24
ENDBRANCH  19  23
TORSDOF 3
ENDMDL
MODEL 2
REMARK VINA RESULT: -8.747185486      2.023      4.112
REMARK  3 active torsions:
REMARK  status: ('A' for Active; 'I' for Inactive)
REMARK    1  A    between atoms: C2_2  and  C4_4 
REMARK    2  A    between atoms: C21_22  and  O2_23 
REMARK    3  A    between atoms: O2_23  and  O3_24 
ROOT
HETATM    1  C4  UNL     1      15.365  -7.013  30.501  1.00  0.00     0.072 C 
HETATM    2  C5  UNL     1      13.935  -7.152  30.856  1.00  0.00     0.020 C 
HETATM    3  C6  UNL     1      13.602  -7.357  32.296  1.00  0.00     0.005 C 
HETATM    4  C7  UNL     1      14.411  -8.477  32.879  1.00  0.00     0.040 C 
HETATM    5  C8  UNL     1      15.239  -7.430  33.538  1.00  0.00    -0.077 C 
HETATM    6  C9  UNL     1      16.436  -7.546  34.092  1.00  0.00     0.015 C 
HETATM    7  C10 UNL     1      14.182  -6.399  33.278  1.00  0.00     0.013 C 
HETATM    8  C11 UNL     1      13.326  -6.288  34.494  1.00  0.00     0.017 C 
HETATM    9  C12 UNL     1      11.994  -5.703  34.396  1.00  0.00     0.002 C 
HETATM   10  C13 UNL     1      11.606  -4.885  33.230  1.00  0.00     0.005 C 
HETATM   11  C14 UNL     1      12.170  -3.501  33.180  1.00  0.00    -0.014 C 
HETATM   12  C15 UNL     1      12.251  -2.996  31.760  1.00  0.00     0.010 C 
HETATM   13  C16 UNL     1      13.442  -3.322  33.941  1.00  0.00    -0.009 C 
HETATM   14  C17 UNL     1      13.640  -1.792  34.031  1.00  0.00     0.011 C 
HETATM   15  C18 UNL     1      14.662  -3.872  33.335  1.00  0.00     0.016 C 
HETATM   16  C19 UNL     1      15.791  -3.689  34.363  1.00  0.00     0.013 C 
HETATM   17  C20 UNL     1      14.648  -5.166  32.658  1.00  0.00     0.142 C 
HETATM   18  O1  UNL     1      15.959  -5.409  32.201  1.00  0.00    -0.351 OA
HETATM   19  C21 UNL     1      16.007  -5.720  30.845  1.00  0.00     0.305 C 
ENDROOT
BRANCH   1  20
HETATM   20  C2  UNL     1      15.523  -7.252  29.040  1.00  0.00    -0.084 C 
HETATM   21  C1  UNL     1      14.806  -6.616  28.103  1.00  0.00     0.014 C 
HETATM   22  C3  UNL     1      16.502  -8.269  28.502  1.00  0.00     0.043 C 
ENDBRANCH   1  20
BRANCH  19  23
HETATM   23  O2  UNL     1      17.359  -5.728  30.534  1.00  0.00    -0.210 OA
BRANCH  23  24
HETATM   24  O3  UNL     1      18.004  -4.710  31.106  1.00  0.00    -0.248 OA
ATOM     25  H3  UNL     1      17.455  -3.937  31.172  1.00  0.00     0.253 HD
ENDBRANCH  23  24
ENDBRANCH  19  23
TORSDOF 3
ENDMDL
MODEL 3
REMARK VINA RESULT: -8.709674177      1.597      2.086
REMARK  3 active torsions:
REMARK  status: ('A' for Active; 'I' for Inactive)
REMARK    1  A    between atoms: C2_2  and  C4_4 
REMARK    2  A    between atoms: C21_22  and  O2_23 
REMARK    3  A    between atoms: O2_23  and  O3_24 
ROOT
HETATM    1  C4  UNL     1      15.187  -8.746  33.762  1.00  0.00     0.072 C 
HETATM    2  C5  UNL     1      16.355  -7.866  33.535  1.00  0.00     0.020 C 
HETATM    3  C6  UNL     1      16.346  -7.018  32.307  1.00  0.00     0.005 C 
HETATM    4  C7  UNL     1      16.049  -7.842  31.089  1.00  0.00     0.040 C 
HETATM    5  C8  UNL     1      14.679  -7.259  31.127  1.00  0.00    -0.077 C 
HETATM    6  C9  UNL     1      13.585  -7.672  30.505  1.00  0.00     0.015 C 
HETATM    7  C10 UNL     1      15.140  -6.180  32.060  1.00  0.00     0.013 C 
HETATM    8  C11 UNL     1      15.478  -4.974  31.251  1.00  0.00     0.017 C 
HETATM    9  C12 UNL     1      16.339  -3.938  31.811  1.00  0.00     0.002 C 
HETATM   10  C13 UNL     1      16.584  -3.856  33.265  1.00  0.00     0.005 C 
HETATM   11  C14 UNL     1      15.463  -3.312  34.092  1.00  0.00    -0.014 C 
HETATM   12  C15 UNL     1      15.534  -3.823  35.509  1.00  0.00     0.010 C 
HETATM   13  C16 UNL     1      14.110  -3.463  33.479  1.00  0.00    -0.009 C 
HETATM   14  C17 UNL     1      13.189  -2.550  34.319  1.00  0.00     0.011 C 
HETATM   15  C18 UNL     1      13.515  -4.806  33.505  1.00  0.00     0.016 C 
HETATM   16  C19 UNL     1      12.208  -4.729  32.698  1.00  0.00     0.013 C 
HETATM   17  C20 UNL     1      14.326  -5.993  33.254  1.00  0.00     0.142 C 
HETATM   18  O1  UNL     1      13.468  -7.108  33.340  1.00  0.00    -0.351 OA
HETATM   19  C21 UNL     1      13.939  -8.083  34.216  1.00  0.00     0.305 C 
ENDROOT
BRANCH   1  20
HETATM   20  C2  UNL     1      15.560  -9.793  34.753  1.00  0.00    -0.084 C 
HETATM   21  C1  UNL     1      16.348  -9.563  35.812  1.00  0.00     0.014 C 
HETATM   22  C3  UNL     1      15.088 -11.222  34.616  1.00  0.00     0.043 C 
ENDBRANCH   1  20
BRANCH  19  23
HETATM   23  O2  UNL     1      12.896  -8.990  34.327  1.00  0.00    -0.210 OA
BRANCH  23  24
HETATM   24  O3  UNL     1      12.465  -9.096  35.585  1.00  0.00    -0.248 OA
ATOM     25  H3  UNL     1      11.974  -9.898  35.722  1.00  0.00     0.253 HD
ENDBRANCH  23  24
ENDBRANCH  19  23
TORSDOF 3
ENDMDL
MODEL 4
REMARK VINA RESULT: -8.643652314      2.352      4.770
REMARK  3 active torsions:
REMARK  status: ('A' for Active; 'I' for Inactive)
REMARK    1  A    between atoms: C2_2  and  C4_4 
REMARK    2  A    between atoms: C21_22  and  O2_23 
REMARK    3  A    between atoms: O2_23  and  O3_24 
ROOT
HETATM    1  C4  UNL     1      13.851  -4.075  30.226  1.00  0.00     0.072 C 
HETATM    2  C5  UNL     1      13.623  -5.463  30.688  1.00  0.00     0.020 C 
HETATM    3  C6  UNL     1      14.732  -6.129  31.431  1.00  0.00     0.005 C 
HETATM    4  C7  UNL     1      16.024  -6.020  30.678  1.00  0.00     0.040 C 
HETATM    5  C8  UNL     1      16.414  -4.968  31.657  1.00  0.00    -0.077 C 
HETATM    6  C9  UNL     1      17.389  -4.076  31.572  1.00  0.00     0.015 C 
HETATM    7  C10 UNL     1      15.320  -5.398  32.587  1.00  0.00     0.013 C 
HETATM    8  C11 UNL     1      15.898  -6.343  33.585  1.00  0.00     0.017 C 
HETATM    9  C12 UNL     1      15.024  -7.241  34.331  1.00  0.00     0.002 C 
HETATM   10  C13 UNL     1      13.570  -6.996  34.409  1.00  0.00     0.005 C 
HETATM   11  C14 UNL     1      13.136  -5.890  35.317  1.00  0.00    -0.014 C 
HETATM   12  C15 UNL     1      11.808  -5.319  34.884  1.00  0.00     0.010 C 
HETATM   13  C16 UNL     1      14.174  -4.844  35.560  1.00  0.00    -0.009 C 
HETATM   14  C17 UNL     1      13.639  -4.025  36.757  1.00  0.00     0.011 C 
HETATM   15  C18 UNL     1      14.426  -3.892  34.472  1.00  0.00     0.016 C 
HETATM   16  C19 UNL     1      15.618  -3.023  34.908  1.00  0.00     0.013 C 
HETATM   17  C20 UNL     1      14.459  -4.331  33.080  1.00  0.00     0.142 C 
HETATM   18  O1  UNL     1      14.729  -3.194  32.292  1.00  0.00    -0.351 OA
HETATM   19  C21 UNL     1      13.805  -3.017  31.266  1.00  0.00     0.305 C 
ENDROOT
BRANCH   1  20
HETATM   20  C2  UNL     1      12.854  -3.750  29.168  1.00  0.00    -0.084 C 
HETATM   21  C1  UNL     1      12.917  -4.230  27.919  1.00  0.00     0.014 C 
HETATM   22  C3  UNL     1      11.696  -2.816  29.428  1.00  0.00     0.043 C 
ENDBRANCH   1  20
BRANCH  19  23
HETATM   23  O2  UNL     1      14.102  -1.772  30.735  1.00  0.00    -0.210 OA
BRANCH  23  24
HETATM   24  O3  UNL     1      15.028  -1.135  31.455  1.00  0.00    -0.248 OA
ATOM     25  H3  UNL     1      15.777  -0.887  30.926  1.00  0.00     0.253 HD
ENDBRANCH  23  24
ENDBRANCH  19  23
TORSDOF 3
ENDMDL
MODEL 5
REMARK VINA RESULT: -8.612417318      1.990      4.046
REMARK  3 active torsions:
REMARK  status: ('A' for Active; 'I' for Inactive)
REMARK    1  A    between atoms: C2_2  and  C4_4 
REMARK    2  A    between atoms: C21_22  and  O2_23 
REMARK    3  A    between atoms: O2_23  and  O3_24 
ROOT
HETATM    1  C4  UNL     1      13.556  -7.533  34.450  1.00  0.00     0.072 C 
HETATM    2  C5  UNL     1      12.892  -6.903  33.287  1.00  0.00     0.020 C 
HETATM    3  C6  UNL     1      12.504  -5.468  33.412  1.00  0.00     0.005 C 
HETATM    4  C7  UNL     1      11.720  -5.233  34.669  1.00  0.00     0.040 C 
HETATM    5  C8  UNL     1      12.958  -4.627  35.233  1.00  0.00    -0.077 C 
HETATM    6  C9  UNL     1      13.251  -4.364  36.497  1.00  0.00     0.015 C 
HETATM    7  C10 UNL     1      13.551  -4.510  33.862  1.00  0.00     0.013 C 
HETATM    8  C11 UNL     1      13.281  -3.136  33.350  1.00  0.00     0.017 C 
HETATM    9  C12 UNL     1      13.351  -2.864  31.918  1.00  0.00     0.002 C 
HETATM   10  C13 UNL     1      14.037  -3.795  31.000  1.00  0.00     0.005 C 
HETATM   11  C14 UNL     1      15.531  -3.772  31.034  1.00  0.00    -0.014 C 
HETATM   12  C15 UNL     1      16.107  -5.092  30.584  1.00  0.00     0.010 C 
HETATM   13  C16 UNL     1      16.115  -3.284  32.319  1.00  0.00    -0.009 C 
HETATM   14  C17 UNL     1      17.607  -3.026  32.005  1.00  0.00     0.011 C 
HETATM   15  C18 UNL     1      16.074  -4.206  33.461  1.00  0.00     0.016 C 
HETATM   16  C19 UNL     1      16.596  -3.428  34.680  1.00  0.00     0.013 C 
HETATM   17  C20 UNL     1      14.901  -5.038  33.714  1.00  0.00     0.142 C 
HETATM   18  O1  UNL     1      15.171  -5.794  34.873  1.00  0.00    -0.351 OA
HETATM   19  C21 UNL     1      14.973  -7.158  34.684  1.00  0.00     0.305 C 
ENDROOT
BRANCH   1  20
HETATM   20  C2  UNL     1      13.469  -9.013  34.310  1.00  0.00    -0.084 C 
HETATM   21  C1  UNL     1      13.938  -9.685  33.251  1.00  0.00     0.014 C 
HETATM   22  C3  UNL     1      12.808  -9.873  35.362  1.00  0.00     0.043 C 
ENDBRANCH   1  20
BRANCH  19  23
HETATM   23  O2  UNL     1      15.469  -7.749  35.837  1.00  0.00    -0.210 OA
BRANCH  23  24
HETATM   24  O3  UNL     1      16.446  -8.616  35.567  1.00  0.00    -0.248 OA
ATOM     25  H3  UNL     1      17.277  -8.336  35.933  1.00  0.00     0.253 HD
ENDBRANCH  23  24
ENDBRANCH  19  23
TORSDOF 3
ENDMDL
