MODEL 1
REMARK VINA RESULT: -8.512229443      0.000      0.000
REMARK  18 active torsions:
REMARK  status: ('A' for Active; 'I' for Inactive)
REMARK    1  A    between atoms: C2_2  and  C3_3 
REMARK    2  A    between atoms: C2_2  and  C4_10 
REMARK    3  A    between atoms: N5_12  and  C6_13 
REMARK    4  A    between atoms: C7_14  and  O1_15 
REMARK    5  A    between atoms: C8_17  and  O2_18 
REMARK    6  A    between atoms: C9_20  and  O3_21 
REMARK    7  A    between atoms: O3_21  and  C10_22 
REMARK    8  A    between atoms: C10_22  and  C11_23 
REMARK    9  A    between atoms: C11_23  and  O4_24 
REMARK   10  A    between atoms: C11_23  and  C12_26 
REMARK   11  A    between atoms: C12_26  and  N6_27 
REMARK   12  A    between atoms: C13_31  and  O5_32 
REMARK   13  A    between atoms: C15_36  and  O6_37 
REMARK   14  A    between atoms: C16_39  and  O7_40 
REMARK   15  A    between atoms: C17_44  and  C18_45 
REMARK   16  A    between atoms: C18_45  and  O8_46 
REMARK   17  A    between atoms: O8_46  and  C19_47 
REMARK   18  A    between atoms: C19_47  and  N11_52 
ROOT
HETATM    1  C6  UNL     1      56.477  42.390  54.943  1.00  0.00     0.170 C 
HETATM    2  C7  UNL     1      56.993  43.750  55.326  1.00  0.00     0.177 C 
HETATM    3  C8  UNL     1      58.330  44.068  54.764  1.00  0.00     0.182 C 
HETATM    4  C9  UNL     1      58.281  44.860  53.460  1.00  0.00     0.204 C 
HETATM    5  C13 UNL     1      57.495  44.185  52.398  1.00  0.00     0.203 C 
HETATM    6  C14 UNL     1      56.207  44.853  52.135  1.00  0.00     0.103 C 
HETATM    7  N7  UNL     1      55.190  45.410  51.915  1.00  0.00    -0.194 NA
HETATM    8  C15 UNL     1      57.262  42.727  52.554  1.00  0.00     0.200 C 
HETATM    9  C16 UNL     1      56.194  42.271  53.465  1.00  0.00     0.178 C 
ENDROOT
BRANCH   5  10
HETATM   10  O5  UNL     1      58.190  44.317  51.150  1.00  0.00    -0.371 OA
ATOM     11  H5  UNL     1      58.313  43.453  50.774  1.00  0.00     0.212 HD
ENDBRANCH   5  10
BRANCH   4  12
HETATM   12  O3  UNL     1      57.855  46.140  53.653  1.00  0.00    -0.376 OA
BRANCH  12  13
HETATM   13  C10 UNL     1      58.600  47.158  53.174  1.00  0.00     0.201 C 
BRANCH  13  14
HETATM   14  C11 UNL     1      59.190  48.150  54.098  1.00  0.00     0.167 C 
BRANCH  14  15
HETATM   15  O4  UNL     1      60.406  47.554  54.566  1.00  0.00    -0.392 OA
ATOM     16  H4  UNL     1      61.034  48.266  54.607  1.00  0.00     0.210 HD
ENDBRANCH  14  15
BRANCH  14  17
HETATM   17  C12 UNL     1      58.402  48.367  55.381  1.00  0.00     0.263 C 
BRANCH  17  18
HETATM   18  N6  UNL     1      56.968  48.427  55.080  1.00  0.00    -0.077 N 
ATOM     19  H63 UNL     1      56.692  49.336  54.709  1.00  0.00     0.274 HD
ATOM     20  H62 UNL     1      56.722  47.855  54.272  1.00  0.00     0.274 HD
ATOM     21  H61 UNL     1      56.430  48.171  55.908  1.00  0.00     0.274 HD
ENDBRANCH  17  18
ENDBRANCH  14  17
ENDBRANCH  13  14
ENDBRANCH  12  13
ENDBRANCH   4  12
BRANCH   8  22
HETATM   22  O6  UNL     1      56.891  42.255  51.263  1.00  0.00    -0.389 OA
ATOM     23  H6  UNL     1      57.692  42.238  50.754  1.00  0.00     0.210 HD
ENDBRANCH   8  22
BRANCH   3  24
HETATM   24  O2  UNL     1      58.981  44.933  55.678  1.00  0.00    -0.390 OA
ATOM     25  H2  UNL     1      59.353  44.394  56.366  1.00  0.00     0.210 HD
ENDBRANCH   3  24
BRANCH   9  26
HETATM   26  O7  UNL     1      54.953  42.772  53.201  1.00  0.00    -0.391 OA
ATOM     27  H7  UNL     1      54.754  42.649  52.280  1.00  0.00     0.210 HD
ENDBRANCH   9  26
BRANCH   2  28
HETATM   28  O1  UNL     1      57.057  43.830  56.712  1.00  0.00    -0.391 OA
ATOM     29  H1  UNL     1      56.987  42.954  57.073  1.00  0.00     0.210 HD
ENDBRANCH   2  28
BRANCH   1  30
HETATM   30  N5  UNL     1      57.321  41.314  55.417  1.00  0.00    -0.292 N 
HETATM   31  C5  UNL     1      57.232  39.998  55.195  1.00  0.00     0.125 A 
HETATM   32  C4  UNL     1      58.276  39.324  55.861  1.00  0.00     0.020 A 
HETATM   33  C17 UNL     1      58.975  40.310  56.478  1.00  0.00     0.062 A 
HETATM   34  N8  UNL     1      58.369  41.476  56.185  1.00  0.00    -0.299 N 
ATOM     35  H8  UNL     1      58.691  42.384  56.522  1.00  0.00     0.187 HD
BRANCH  32  36
HETATM   36  C2  UNL     1      58.536  37.900  55.813  1.00  0.00     0.014 C 
HETATM   37  C1  UNL     1      57.595  36.991  55.923  1.00  0.00     0.028 C 
BRANCH  36  38
HETATM   38  C3  UNL     1      59.924  37.446  55.656  1.00  0.00     0.141 C 
HETATM   39  N1  UNL     1      60.345  36.263  56.012  1.00  0.00    -0.270 N 
HETATM   40  N2  UNL     1      61.696  36.191  55.716  1.00  0.00    -0.007 NA
ATOM     41  H1  UNL     1      59.780  35.525  56.432  1.00  0.00     0.185 HD
HETATM   42  N3  UNL     1      61.980  37.185  54.775  1.00  0.00    -0.007 NA
HETATM   43  N4  UNL     1      61.017  38.169  55.148  1.00  0.00    -0.270 N 
ATOM     44  H4  UNL     1      61.103  39.182  55.063  1.00  0.00     0.185 HD
ENDBRANCH  36  38
ENDBRANCH  32  36
BRANCH  33  45
HETATM   45  C18 UNL     1      60.188  40.207  57.345  1.00  0.00     0.238 C 
BRANCH  45  46
HETATM   46  O8  UNL     1      60.690  41.506  57.540  1.00  0.00    -0.316 OA
BRANCH  46  47
HETATM   47  C19 UNL     1      61.533  42.158  56.701  1.00  0.00     0.228 C 
HETATM   48  N9  UNL     1      61.762  43.379  56.741  1.00  0.00    -0.259 N 
HETATM   49  C20 UNL     1      61.338  44.404  57.511  1.00  0.00     0.185 C 
ATOM     50  H9  UNL     1      62.426  43.677  56.025  1.00  0.00     0.181 HD
HETATM   51  N10 UNL     1      60.993  45.299  58.151  1.00  0.00    -0.172 NA
BRANCH  47  52
HETATM   52  N11 UNL     1      62.186  41.320  55.702  1.00  0.00    -0.360 N 
HETATM   53  C21 UNL     1      63.526  40.844  55.925  1.00  0.00     0.150 C 
ATOM     54  H11 UNL     1      61.693  41.071  54.845  1.00  0.00     0.162 HD
ENDBRANCH  47  52
ENDBRANCH  46  47
ENDBRANCH  45  46
ENDBRANCH  33  45
ENDBRANCH   1  30
TORSDOF 18
ENDMDL
MODEL 2
REMARK VINA RESULT: -8.507100370      2.870      7.579
REMARK  18 active torsions:
REMARK  status: ('A' for Active; 'I' for Inactive)
REMARK    1  A    between atoms: C2_2  and  C3_3 
REMARK    2  A    between atoms: C2_2  and  C4_10 
REMARK    3  A    between atoms: N5_12  and  C6_13 
REMARK    4  A    between atoms: C7_14  and  O1_15 
REMARK    5  A    between atoms: C8_17  and  O2_18 
REMARK    6  A    between atoms: C9_20  and  O3_21 
REMARK    7  A    between atoms: O3_21  and  C10_22 
REMARK    8  A    between atoms: C10_22  and  C11_23 
REMARK    9  A    between atoms: C11_23  and  O4_24 
REMARK   10  A    between atoms: C11_23  and  C12_26 
REMARK   11  A    between atoms: C12_26  and  N6_27 
REMARK   12  A    between atoms: C13_31  and  O5_32 
REMARK   13  A    between atoms: C15_36  and  O6_37 
REMARK   14  A    between atoms: C16_39  and  O7_40 
REMARK   15  A    between atoms: C17_44  and  C18_45 
REMARK   16  A    between atoms: C18_45  and  O8_46 
REMARK   17  A    between atoms: O8_46  and  C19_47 
REMARK   18  A    between atoms: C19_47  and  N11_52 
ROOT
HETATM    1  C6  UNL     1      59.449  42.718  55.655  1.00  0.00     0.170 C 
HETATM    2  C7  UNL     1      60.443  41.622  55.926  1.00  0.00     0.177 C 
HETATM    3  C8  UNL     1      60.190  40.876  57.185  1.00  0.00     0.182 C 
HETATM    4  C9  UNL     1      59.383  39.594  56.993  1.00  0.00     0.204 C 
HETATM    5  C13 UNL     1      58.075  39.822  56.333  1.00  0.00     0.203 C 
HETATM    6  C14 UNL     1      58.043  39.320  54.948  1.00  0.00     0.103 C 
HETATM    7  N7  UNL     1      58.021  38.891  53.848  1.00  0.00    -0.194 NA
HETATM    8  C15 UNL     1      57.538  41.206  56.359  1.00  0.00     0.200 C 
HETATM    9  C16 UNL     1      58.060  42.190  55.392  1.00  0.00     0.178 C 
ENDROOT
BRANCH   5  10
HETATM   10  O5  UNL     1      57.078  39.026  56.990  1.00  0.00    -0.371 OA
ATOM     11  H5  UNL     1      56.279  39.049  56.476  1.00  0.00     0.212 HD
ENDBRANCH   5  10
BRANCH   4  12
HETATM   12  O3  UNL     1      60.100  38.629  56.350  1.00  0.00    -0.376 OA
BRANCH  12  13
HETATM   13  C10 UNL     1      60.421  37.499  57.015  1.00  0.00     0.201 C 
BRANCH  13  14
HETATM   14  C11 UNL     1      60.740  36.262  56.271  1.00  0.00     0.167 C 
BRANCH  14  15
HETATM   15  O4  UNL     1      61.499  36.688  55.133  1.00  0.00    -0.392 OA
ATOM     16  H4  UNL     1      60.884  36.690  54.409  1.00  0.00     0.210 HD
ENDBRANCH  14  15
BRANCH  14  17
HETATM   17  C12 UNL     1      59.539  35.574  55.641  1.00  0.00     0.263 C 
BRANCH  17  18
HETATM   18  N6  UNL     1      58.302  36.222  56.089  1.00  0.00    -0.077 N 
ATOM     19  H63 UNL     1      58.415  37.230  56.197  1.00  0.00     0.274 HD
ATOM     20  H62 UNL     1      57.587  36.230  55.361  1.00  0.00     0.274 HD
ATOM     21  H61 UNL     1      57.970  35.780  56.946  1.00  0.00     0.274 HD
ENDBRANCH  17  18
ENDBRANCH  14  17
ENDBRANCH  13  14
ENDBRANCH  12  13
ENDBRANCH   4  12
BRANCH   8  22
HETATM   22  O6  UNL     1      56.148  41.087  56.072  1.00  0.00    -0.389 OA
ATOM     23  H6  UNL     1      55.712  41.706  56.644  1.00  0.00     0.210 HD
ENDBRANCH   8  22
BRANCH   3  24
HETATM   24  O2  UNL     1      61.443  40.435  57.677  1.00  0.00    -0.390 OA
ATOM     25  H2  UNL     1      61.860  41.176  58.101  1.00  0.00     0.210 HD
ENDBRANCH   3  24
BRANCH   9  26
HETATM   26  O7  UNL     1      57.956  41.826  54.081  1.00  0.00    -0.391 OA
ATOM     27  H7  UNL     1      57.046  41.643  53.877  1.00  0.00     0.210 HD
ENDBRANCH   9  26
BRANCH   2  28
HETATM   28  O1  UNL     1      61.717  42.176  55.981  1.00  0.00    -0.391 OA
ATOM     29  H1  UNL     1      62.324  41.518  56.298  1.00  0.00     0.210 HD
ENDBRANCH   2  28
BRANCH   1  30
HETATM   30  N5  UNL     1      59.450  43.744  56.676  1.00  0.00    -0.292 N 
HETATM   31  C5  UNL     1      59.899  43.696  57.934  1.00  0.00     0.125 A 
HETATM   32  C4  UNL     1      59.693  44.938  58.569  1.00  0.00     0.020 A 
HETATM   33  C17 UNL     1      59.104  45.708  57.620  1.00  0.00     0.062 A 
HETATM   34  N8  UNL     1      58.980  44.955  56.511  1.00  0.00    -0.299 N 
ATOM     35  H8  UNL     1      58.568  45.290  55.640  1.00  0.00     0.187 HD
BRANCH  32  36
HETATM   36  C2  UNL     1      60.096  45.281  59.917  1.00  0.00     0.014 C 
HETATM   37  C1  UNL     1      61.137  46.034  60.188  1.00  0.00     0.028 C 
BRANCH  36  38
HETATM   38  C3  UNL     1      59.317  44.744  61.040  1.00  0.00     0.141 C 
HETATM   39  N1  UNL     1      58.402  43.822  60.912  1.00  0.00    -0.270 N 
HETATM   40  N2  UNL     1      57.883  43.567  62.171  1.00  0.00    -0.007 NA
ATOM     41  H1  UNL     1      58.120  43.370  60.042  1.00  0.00     0.185 HD
HETATM   42  N3  UNL     1      58.805  44.030  63.113  1.00  0.00    -0.007 NA
HETATM   43  N4  UNL     1      59.379  45.120  62.393  1.00  0.00    -0.270 N 
ATOM     44  H4  UNL     1      59.754  45.987  62.778  1.00  0.00     0.185 HD
ENDBRANCH  36  38
ENDBRANCH  32  36
BRANCH  33  45
HETATM   45  C18 UNL     1      58.639  47.126  57.710  1.00  0.00     0.238 C 
BRANCH  45  46
HETATM   46  O8  UNL     1      58.830  47.722  56.451  1.00  0.00    -0.316 OA
BRANCH  46  47
HETATM   47  C19 UNL     1      60.023  47.872  55.823  1.00  0.00     0.228 C 
HETATM   48  N9  UNL     1      60.167  47.947  54.590  1.00  0.00    -0.259 N 
HETATM   49  C20 UNL     1      59.331  47.914  53.529  1.00  0.00     0.185 C 
ATOM     50  H9  UNL     1      61.143  48.059  54.316  1.00  0.00     0.181 HD
HETATM   51  N10 UNL     1      58.644  47.889  52.604  1.00  0.00    -0.172 NA
BRANCH  47  52
HETATM   52  N11 UNL     1      61.183  47.945  56.703  1.00  0.00    -0.360 N 
HETATM   53  C21 UNL     1      62.198  46.927  56.646  1.00  0.00     0.150 C 
ATOM     54  H11 UNL     1      61.275  48.720  57.361  1.00  0.00     0.162 HD
ENDBRANCH  47  52
ENDBRANCH  46  47
ENDBRANCH  45  46
ENDBRANCH  33  45
ENDBRANCH   1  30
TORSDOF 18
ENDMDL
MODEL 3
REMARK VINA RESULT: -8.502185077      3.067      7.143
REMARK  18 active torsions:
REMARK  status: ('A' for Active; 'I' for Inactive)
REMARK    1  A    between atoms: C2_2  and  C3_3 
REMARK    2  A    between atoms: C2_2  and  C4_10 
REMARK    3  A    between atoms: N5_12  and  C6_13 
REMARK    4  A    between atoms: C7_14  and  O1_15 
REMARK    5  A    between atoms: C8_17  and  O2_18 
REMARK    6  A    between atoms: C9_20  and  O3_21 
REMARK    7  A    between atoms: O3_21  and  C10_22 
REMARK    8  A    between atoms: C10_22  and  C11_23 
REMARK    9  A    between atoms: C11_23  and  O4_24 
REMARK   10  A    between atoms: C11_23  and  C12_26 
REMARK   11  A    between atoms: C12_26  and  N6_27 
REMARK   12  A    between atoms: C13_31  and  O5_32 
REMARK   13  A    between atoms: C15_36  and  O6_37 
REMARK   14  A    between atoms: C16_39  and  O7_40 
REMARK   15  A    between atoms: C17_44  and  C18_45 
REMARK   16  A    between atoms: C18_45  and  O8_46 
REMARK   17  A    between atoms: O8_46  and  C19_47 
REMARK   18  A    between atoms: C19_47  and  N11_52 
ROOT
HETATM    1  C6  UNL     1      58.041  42.616  57.440  1.00  0.00     0.170 C 
HETATM    2  C7  UNL     1      56.652  42.462  56.881  1.00  0.00     0.177 C 
HETATM    3  C8  UNL     1      56.473  43.066  55.537  1.00  0.00     0.182 C 
HETATM    4  C9  UNL     1      56.649  42.079  54.386  1.00  0.00     0.204 C 
HETATM    5  C13 UNL     1      57.965  41.395  54.401  1.00  0.00     0.203 C 
HETATM    6  C14 UNL     1      57.863  39.977  54.790  1.00  0.00     0.103 C 
HETATM    7  N7  UNL     1      57.766  38.836  55.077  1.00  0.00    -0.194 NA
HETATM    8  C15 UNL     1      59.050  42.035  55.186  1.00  0.00     0.200 C 
HETATM    9  C16 UNL     1      59.074  41.850  56.650  1.00  0.00     0.178 C 
ENDROOT
BRANCH   5  10
HETATM   10  O5  UNL     1      58.470  41.328  53.059  1.00  0.00    -0.371 OA
ATOM     11  H5  UNL     1      58.889  42.154  52.847  1.00  0.00     0.212 HD
ENDBRANCH   5  10
BRANCH   4  12
HETATM   12  O3  UNL     1      55.626  41.181  54.320  1.00  0.00    -0.376 OA
BRANCH  12  13
HETATM   13  C10 UNL     1      54.809  41.195  53.246  1.00  0.00     0.201 C 
BRANCH  13  14
HETATM   14  C11 UNL     1      55.144  42.019  52.065  1.00  0.00     0.167 C 
BRANCH  14  15
HETATM   15  O4  UNL     1      53.896  42.560  51.614  1.00  0.00    -0.392 OA
ATOM     16  H4  UNL     1      53.347  41.806  51.431  1.00  0.00     0.210 HD
ENDBRANCH  14  15
BRANCH  14  17
HETATM   17  C12 UNL     1      55.627  41.228  50.858  1.00  0.00     0.263 C 
BRANCH  17  18
HETATM   18  N6  UNL     1      56.447  40.095  51.301  1.00  0.00    -0.077 N 
ATOM     19  H63 UNL     1      57.310  40.400  51.751  1.00  0.00     0.274 HD
ATOM     20  H62 UNL     1      56.030  39.607  52.094  1.00  0.00     0.274 HD
ATOM     21  H61 UNL     1      56.624  39.469  50.516  1.00  0.00     0.274 HD
ENDBRANCH  17  18
ENDBRANCH  14  17
ENDBRANCH  13  14
ENDBRANCH  12  13
ENDBRANCH   4  12
BRANCH   8  22
HETATM   22  O6  UNL     1      60.263  41.463  54.709  1.00  0.00    -0.389 OA
ATOM     23  H6  UNL     1      60.073  40.546  54.555  1.00  0.00     0.210 HD
ENDBRANCH   8  22
BRANCH   3  24
HETATM   24  O2  UNL     1      55.125  43.489  55.437  1.00  0.00    -0.390 OA
ATOM     25  H2  UNL     1      54.606  42.733  55.189  1.00  0.00     0.210 HD
ENDBRANCH   3  24
BRANCH   9  26
HETATM   26  O7  UNL     1      59.092  40.551  57.070  1.00  0.00    -0.391 OA
ATOM     27  H7  UNL     1      59.350  39.991  56.347  1.00  0.00     0.210 HD
ENDBRANCH   9  26
BRANCH   2  28
HETATM   28  O1  UNL     1      55.748  43.046  57.761  1.00  0.00    -0.391 OA
ATOM     29  H1  UNL     1      55.039  43.432  57.259  1.00  0.00     0.210 HD
ENDBRANCH   2  28
BRANCH   1  30
HETATM   30  N5  UNL     1      58.423  44.000  57.625  1.00  0.00    -0.292 N 
HETATM   31  C5  UNL     1      59.208  44.776  56.871  1.00  0.00     0.125 A 
HETATM   32  C4  UNL     1      59.301  46.064  57.438  1.00  0.00     0.020 A 
HETATM   33  C17 UNL     1      58.533  45.998  58.553  1.00  0.00     0.062 A 
HETATM   34  N8  UNL     1      58.031  44.751  58.623  1.00  0.00    -0.299 N 
ATOM     35  H8  UNL     1      57.415  44.428  59.369  1.00  0.00     0.187 HD
BRANCH  32  36
HETATM   36  C2  UNL     1      60.021  47.190  56.877  1.00  0.00     0.014 C 
HETATM   37  C1  UNL     1      61.156  47.635  57.366  1.00  0.00     0.028 C 
BRANCH  36  38
HETATM   38  C3  UNL     1      59.444  47.884  55.719  1.00  0.00     0.141 C 
HETATM   39  N1  UNL     1      59.962  47.851  54.522  1.00  0.00    -0.270 N 
HETATM   40  N2  UNL     1      59.155  48.613  53.693  1.00  0.00    -0.007 NA
ATOM     41  H1  UNL     1      60.809  47.353  54.246  1.00  0.00     0.185 HD
HETATM   42  N3  UNL     1      57.907  48.739  54.312  1.00  0.00    -0.007 NA
HETATM   43  N4  UNL     1      58.300  48.700  55.683  1.00  0.00    -0.270 N 
ATOM     44  H4  UNL     1      57.846  49.165  56.470  1.00  0.00     0.185 HD
ENDBRANCH  36  38
ENDBRANCH  32  36
BRANCH  33  45
HETATM   45  C18 UNL     1      58.254  47.057  59.572  1.00  0.00     0.238 C 
BRANCH  45  46
HETATM   46  O8  UNL     1      58.181  46.435  60.831  1.00  0.00    -0.316 OA
BRANCH  46  47
HETATM   47  C19 UNL     1      59.219  45.854  61.483  1.00  0.00     0.228 C 
HETATM   48  N9  UNL     1      59.190  44.715  61.982  1.00  0.00    -0.259 N 
HETATM   49  C20 UNL     1      58.262  43.737  62.070  1.00  0.00     0.185 C 
ATOM     50  H9  UNL     1      60.070  44.460  62.428  1.00  0.00     0.181 HD
HETATM   51  N10 UNL     1      57.492  42.884  62.162  1.00  0.00    -0.172 NA
BRANCH  47  52
HETATM   52  N11 UNL     1      60.426  46.666  61.577  1.00  0.00    -0.360 N 
HETATM   53  C21 UNL     1      61.578  46.342  60.776  1.00  0.00     0.150 C 
ATOM     54  H11 UNL     1      60.454  47.464  62.211  1.00  0.00     0.162 HD
ENDBRANCH  47  52
ENDBRANCH  46  47
ENDBRANCH  45  46
ENDBRANCH  33  45
ENDBRANCH   1  30
TORSDOF 18
ENDMDL
MODEL 4
REMARK VINA RESULT: -8.469979335      3.211      5.842
REMARK  18 active torsions:
REMARK  status: ('A' for Active; 'I' for Inactive)
REMARK    1  A    between atoms: C2_2  and  C3_3 
REMARK    2  A    between atoms: C2_2  and  C4_10 
REMARK    3  A    between atoms: N5_12  and  C6_13 
REMARK    4  A    between atoms: C7_14  and  O1_15 
REMARK    5  A    between atoms: C8_17  and  O2_18 
REMARK    6  A    between atoms: C9_20  and  O3_21 
REMARK    7  A    between atoms: O3_21  and  C10_22 
REMARK    8  A    between atoms: C10_22  and  C11_23 
REMARK    9  A    between atoms: C11_23  and  O4_24 
REMARK   10  A    between atoms: C11_23  and  C12_26 
REMARK   11  A    between atoms: C12_26  and  N6_27 
REMARK   12  A    between atoms: C13_31  and  O5_32 
REMARK   13  A    between atoms: C15_36  and  O6_37 
REMARK   14  A    between atoms: C16_39  and  O7_40 
REMARK   15  A    between atoms: C17_44  and  C18_45 
REMARK   16  A    between atoms: C18_45  and  O8_46 
REMARK   17  A    between atoms: O8_46  and  C19_47 
REMARK   18  A    between atoms: C19_47  and  N11_52 
ROOT
HETATM    1  C6  UNL     1      57.105  43.732  56.632  1.00  0.00     0.170 C 
HETATM    2  C7  UNL     1      56.773  43.466  58.075  1.00  0.00     0.177 C 
HETATM    3  C8  UNL     1      57.856  42.783  58.827  1.00  0.00     0.182 C 
HETATM    4  C9  UNL     1      58.770  43.734  59.596  1.00  0.00     0.204 C 
HETATM    5  C13 UNL     1      59.399  44.763  58.732  1.00  0.00     0.203 C 
HETATM    6  C14 UNL     1      58.838  46.108  58.951  1.00  0.00     0.103 C 
HETATM    7  N7  UNL     1      58.399  47.185  59.153  1.00  0.00    -0.194 NA
HETATM    8  C15 UNL     1      59.441  44.486  57.274  1.00  0.00     0.200 C 
HETATM    9  C16 UNL     1      58.228  44.728  56.469  1.00  0.00     0.178 C 
ENDROOT
BRANCH   5  10
HETATM   10  O5  UNL     1      60.773  44.917  59.118  1.00  0.00    -0.371 OA
ATOM     11  H5  UNL     1      61.237  45.375  58.427  1.00  0.00     0.212 HD
ENDBRANCH   5  10
BRANCH   4  12
HETATM   12  O3  UNL     1      58.138  44.303  60.661  1.00  0.00    -0.376 OA
BRANCH  12  13
HETATM   13  C10 UNL     1      58.766  44.334  61.856  1.00  0.00     0.201 C 
BRANCH  13  14
HETATM   14  C11 UNL     1      58.961  45.618  62.563  1.00  0.00     0.167 C 
BRANCH  14  15
HETATM   15  O4  UNL     1      57.876  46.452  62.137  1.00  0.00    -0.392 OA
ATOM     16  H4  UNL     1      57.888  47.198  62.726  1.00  0.00     0.210 HD
ENDBRANCH  14  15
BRANCH  14  17
HETATM   17  C12 UNL     1      60.187  46.404  62.123  1.00  0.00     0.263 C 
BRANCH  17  18
HETATM   18  N6  UNL     1      61.324  45.495  61.948  1.00  0.00    -0.077 N 
ATOM     19  H63 UNL     1      62.212  45.996  61.909  1.00  0.00     0.274 HD
ATOM     20  H62 UNL     1      61.504  44.939  62.785  1.00  0.00     0.274 HD
ATOM     21  H61 UNL     1      61.178  44.910  61.125  1.00  0.00     0.274 HD
ENDBRANCH  17  18
ENDBRANCH  14  17
ENDBRANCH  13  14
ENDBRANCH  12  13
ENDBRANCH   4  12
BRANCH   8  22
HETATM   22  O6  UNL     1      60.432  45.359  56.743  1.00  0.00    -0.389 OA
ATOM     23  H6  UNL     1      61.184  44.811  56.552  1.00  0.00     0.210 HD
ENDBRANCH   8  22
BRANCH   3  24
HETATM   24  O2  UNL     1      57.244  41.992  59.831  1.00  0.00    -0.390 OA
ATOM     25  H2  UNL     1      56.787  41.283  59.396  1.00  0.00     0.210 HD
ENDBRANCH   3  24
BRANCH   9  26
HETATM   26  O7  UNL     1      57.724  45.994  56.546  1.00  0.00    -0.391 OA
ATOM     27  H7  UNL     1      57.458  46.279  55.679  1.00  0.00     0.210 HD
ENDBRANCH   9  26
BRANCH   2  28
HETATM   28  O1  UNL     1      55.624  42.684  58.133  1.00  0.00    -0.391 OA
ATOM     29  H1  UNL     1      55.236  42.774  58.995  1.00  0.00     0.210 HD
ENDBRANCH   2  28
BRANCH   1  30
HETATM   30  N5  UNL     1      57.347  42.521  55.877  1.00  0.00    -0.292 N 
HETATM   31  C5  UNL     1      57.801  42.370  54.629  1.00  0.00     0.125 A 
HETATM   32  C4  UNL     1      57.878  41.000  54.305  1.00  0.00     0.020 A 
HETATM   33  C17 UNL     1      57.449  40.364  55.424  1.00  0.00     0.062 A 
HETATM   34  N8  UNL     1      57.144  41.310  56.332  1.00  0.00    -0.299 N 
ATOM     35  H8  UNL     1      56.795  41.107  57.269  1.00  0.00     0.187 HD
BRANCH  32  36
HETATM   36  C2  UNL     1      58.374  40.447  53.061  1.00  0.00     0.014 C 
HETATM   37  C1  UNL     1      59.522  39.818  52.959  1.00  0.00     0.028 C 
BRANCH  36  38
HETATM   38  C3  UNL     1      57.564  40.615  51.849  1.00  0.00     0.141 C 
HETATM   39  N1  UNL     1      57.681  41.627  51.032  1.00  0.00    -0.270 N 
HETATM   40  N2  UNL     1      56.764  41.451  50.009  1.00  0.00    -0.007 NA
ATOM     41  H1  UNL     1      58.331  42.407  51.131  1.00  0.00     0.185 HD
HETATM   42  N3  UNL     1      56.404  40.100  49.988  1.00  0.00    -0.007 NA
HETATM   43  N4  UNL     1      56.539  39.780  51.371  1.00  0.00    -0.270 N 
ATOM     44  H4  UNL     1      56.004  39.091  51.902  1.00  0.00     0.185 HD
ENDBRANCH  36  38
ENDBRANCH  32  36
BRANCH  33  45
HETATM   45  C18 UNL     1      57.301  38.899  55.679  1.00  0.00     0.238 C 
BRANCH  45  46
HETATM   46  O8  UNL     1      58.201  38.546  56.699  1.00  0.00    -0.316 OA
BRANCH  46  47
HETATM   47  C19 UNL     1      59.491  38.168  56.515  1.00  0.00     0.228 C 
HETATM   48  N9  UNL     1      60.476  38.897  56.723  1.00  0.00    -0.259 N 
HETATM   49  C20 UNL     1      60.649  40.167  57.150  1.00  0.00     0.185 C 
ATOM     50  H9  UNL     1      61.360  38.427  56.525  1.00  0.00     0.181 HD
HETATM   51  N10 UNL     1      60.828  41.247  57.510  1.00  0.00    -0.172 NA
BRANCH  47  52
HETATM   52  N11 UNL     1      59.676  36.802  56.039  1.00  0.00    -0.360 N 
HETATM   53  C21 UNL     1      60.980  36.194  56.077  1.00  0.00     0.150 C 
ATOM     54  H11 UNL     1      58.879  36.277  55.679  1.00  0.00     0.162 HD
ENDBRANCH  47  52
ENDBRANCH  46  47
ENDBRANCH  45  46
ENDBRANCH  33  45
ENDBRANCH   1  30
TORSDOF 18
ENDMDL
MODEL 5
REMARK VINA RESULT: -8.413550535      2.800      7.071
REMARK  18 active torsions:
REMARK  status: ('A' for Active; 'I' for Inactive)
REMARK    1  A    between atoms: C2_2  and  C3_3 
REMARK    2  A    between atoms: C2_2  and  C4_10 
REMARK    3  A    between atoms: N5_12  and  C6_13 
REMARK    4  A    between atoms: C7_14  and  O1_15 
REMARK    5  A    between atoms: C8_17  and  O2_18 
REMARK    6  A    between atoms: C9_20  and  O3_21 
REMARK    7  A    between atoms: O3_21  and  C10_22 
REMARK    8  A    between atoms: C10_22  and  C11_23 
REMARK    9  A    between atoms: C11_23  and  O4_24 
REMARK   10  A    between atoms: C11_23  and  C12_26 
REMARK   11  A    between atoms: C12_26  and  N6_27 
REMARK   12  A    between atoms: C13_31  and  O5_32 
REMARK   13  A    between atoms: C15_36  and  O6_37 
REMARK   14  A    between atoms: C16_39  and  O7_40 
REMARK   15  A    between atoms: C17_44  and  C18_45 
REMARK   16  A    between atoms: C18_45  and  O8_46 
REMARK   17  A    between atoms: O8_46  and  C19_47 
REMARK   18  A    between atoms: C19_47  and  N11_52 
ROOT
HETATM    1  C6  UNL     1      57.588  41.881  57.004  1.00  0.00     0.170 C 
HETATM    2  C7  UNL     1      56.878  41.980  55.682  1.00  0.00     0.177 C 
HETATM    3  C8  UNL     1      57.747  42.421  54.561  1.00  0.00     0.182 C 
HETATM    4  C9  UNL     1      58.333  41.274  53.744  1.00  0.00     0.204 C 
HETATM    5  C13 UNL     1      59.108  40.310  54.563  1.00  0.00     0.203 C 
HETATM    6  C14 UNL     1      58.413  39.021  54.732  1.00  0.00     0.103 C 
HETATM    7  N7  UNL     1      57.860  37.984  54.838  1.00  0.00    -0.194 NA
HETATM    8  C15 UNL     1      59.583  40.781  55.888  1.00  0.00     0.200 C 
HETATM    9  C16 UNL     1      58.637  40.796  57.020  1.00  0.00     0.178 C 
ENDROOT
BRANCH   5  10
HETATM   10  O5  UNL     1      60.299  39.947  53.850  1.00  0.00    -0.371 OA
ATOM     11  H5  UNL     1      60.591  39.095  54.154  1.00  0.00     0.212 HD
ENDBRANCH   5  10
BRANCH   4  12
HETATM   12  O3  UNL     1      57.384  40.638  52.999  1.00  0.00    -0.376 OA
BRANCH  12  13
HETATM   13  C10 UNL     1      57.409  40.768  51.656  1.00  0.00     0.201 C 
BRANCH  13  14
HETATM   14  C11 UNL     1      56.172  40.593  50.866  1.00  0.00     0.167 C 
BRANCH  14  15
HETATM   15  O4  UNL     1      56.489  41.074  49.554  1.00  0.00    -0.392 OA
ATOM     16  H4  UNL     1      55.995  40.523  48.959  1.00  0.00     0.210 HD
ENDBRANCH  14  15
BRANCH  14  17
HETATM   17  C12 UNL     1      55.019  41.491  51.288  1.00  0.00     0.263 C 
BRANCH  17  18
HETATM   18  N6  UNL     1      54.655  41.213  52.681  1.00  0.00    -0.077 N 
ATOM     19  H63 UNL     1      54.094  40.365  52.769  1.00  0.00     0.274 HD
ATOM     20  H62 UNL     1      55.459  40.917  53.236  1.00  0.00     0.274 HD
ATOM     21  H61 UNL     1      54.189  42.024  53.086  1.00  0.00     0.274 HD
ENDBRANCH  17  18
ENDBRANCH  14  17
ENDBRANCH  13  14
ENDBRANCH  12  13
ENDBRANCH   4  12
BRANCH   8  22
HETATM   22  O6  UNL     1      60.621  39.883  56.269  1.00  0.00    -0.389 OA
ATOM     23  H6  UNL     1      60.218  39.023  56.302  1.00  0.00     0.210 HD
ENDBRANCH   8  22
BRANCH   3  24
HETATM   24  O2  UNL     1      56.932  43.129  53.644  1.00  0.00    -0.390 OA
ATOM     25  H2  UNL     1      57.457  43.832  53.279  1.00  0.00     0.210 HD
ENDBRANCH   3  24
BRANCH   9  26
HETATM   26  O7  UNL     1      58.043  39.598  57.295  1.00  0.00    -0.391 OA
ATOM     27  H7  UNL     1      58.545  39.144  57.961  1.00  0.00     0.210 HD
ENDBRANCH   9  26
BRANCH   2  28
HETATM   28  O1  UNL     1      55.819  42.873  55.808  1.00  0.00    -0.391 OA
ATOM     29  H1  UNL     1      55.658  43.278  54.964  1.00  0.00     0.210 HD
ENDBRANCH   2  28
BRANCH   1  30
HETATM   30  N5  UNL     1      58.121  43.150  57.453  1.00  0.00    -0.292 N 
HETATM   31  C5  UNL     1      58.716  43.464  58.608  1.00  0.00     0.125 A 
HETATM   32  C4  UNL     1      59.076  44.828  58.611  1.00  0.00     0.020 A 
HETATM   33  C17 UNL     1      58.661  45.288  57.404  1.00  0.00     0.062 A 
HETATM   34  N8  UNL     1      58.100  44.254  56.750  1.00  0.00    -0.299 N 
ATOM     35  H8  UNL     1      57.703  44.323  55.813  1.00  0.00     0.187 HD
BRANCH  32  36
HETATM   36  C2  UNL     1      59.785  45.519  59.668  1.00  0.00     0.014 C 
HETATM   37  C1  UNL     1      60.890  46.199  59.470  1.00  0.00     0.028 C 
BRANCH  36  38
HETATM   38  C3  UNL     1      59.255  45.438  61.035  1.00  0.00     0.141 C 
HETATM   39  N1  UNL     1      59.702  44.608  61.938  1.00  0.00    -0.270 N 
HETATM   40  N2  UNL     1      58.972  44.814  63.097  1.00  0.00    -0.007 NA
ATOM     41  H1  UNL     1      60.455  43.930  61.813  1.00  0.00     0.185 HD
HETATM   42  N3  UNL     1      58.382  46.078  63.010  1.00  0.00    -0.007 NA
HETATM   43  N4  UNL     1      58.200  46.176  61.598  1.00  0.00    -0.270 N 
ATOM     44  H4  UNL     1      57.461  46.676  61.103  1.00  0.00     0.185 HD
ENDBRANCH  36  38
ENDBRANCH  32  36
BRANCH  33  45
HETATM   45  C18 UNL     1      58.759  46.667  56.835  1.00  0.00     0.238 C 
BRANCH  45  46
HETATM   46  O8  UNL     1      59.046  46.548  55.464  1.00  0.00    -0.316 OA
BRANCH  46  47
HETATM   47  C19 UNL     1      58.505  47.306  54.477  1.00  0.00     0.228 C 
HETATM   48  N9  UNL     1      57.351  47.170  54.036  1.00  0.00    -0.259 N 
HETATM   49  C20 UNL     1      56.317  46.345  54.310  1.00  0.00     0.185 C 
ATOM     50  H9  UNL     1      57.133  47.837  53.296  1.00  0.00     0.181 HD
HETATM   51  N10 UNL     1      55.418  45.655  54.521  1.00  0.00    -0.172 NA
BRANCH  47  52
HETATM   52  N11 UNL     1      59.383  48.334  53.931  1.00  0.00    -0.360 N 
HETATM   53  C21 UNL     1      59.077  48.948  52.666  1.00  0.00     0.150 C 
ATOM     54  H11 UNL     1      60.216  48.618  54.447  1.00  0.00     0.162 HD
ENDBRANCH  47  52
ENDBRANCH  46  47
ENDBRANCH  45  46
ENDBRANCH  33  45
ENDBRANCH   1  30
TORSDOF 18
ENDMDL
