MODEL 1
REMARK VINA RESULT: -9.130531883      0.000      0.000
REMARK  7 active torsions:
REMARK  status: ('A' for Active; 'I' for Inactive)
REMARK    1  A    between atoms: C2_2  and  C4_4 
REMARK    2  A    between atoms: C4_4  and  C5_5 
REMARK       I    between atoms: C5_5  and  N1_7 
REMARK    3  A    between atoms: N1_7  and  C6_9 
REMARK    4  A    between atoms: C6_9  and  C8_11 
REMARK    5  A    between atoms: C8_11  and  N2_12 
REMARK    6  A    between atoms: N4_19  and  C11_20 
REMARK    7  A    between atoms: C11_20  and  C12_21 
ROOT
HETATM    1  N2  UNL     1      44.815  24.201  20.533  1.00  0.00    -0.249 N 
HETATM    2  C9  UNL     1      43.764  24.336  21.354  1.00  0.00     0.332 A 
HETATM    3  O2  UNL     1      43.672  25.324  22.160  1.00  0.00    -0.246 OA
HETATM    4  N3  UNL     1      42.763  23.449  21.369  1.00  0.00    -0.284 N 
ATOM      5  H3  UNL     1      41.978  23.581  22.006  1.00  0.00     0.173 HD
HETATM    6  C10 UNL     1      42.786  22.388  20.553  1.00  0.00     0.186 A 
HETATM    7  S1  UNL     1      41.561  21.270  20.658  1.00  0.00    -0.040 SA
HETATM    8  N4  UNL     1      43.818  22.219  19.716  1.00  0.00    -0.275 N 
HETATM    9  C21 UNL     1      44.825  23.139  19.723  1.00  0.00     0.335 A 
HETATM   10  O3  UNL     1      45.782  22.968  18.938  1.00  0.00    -0.246 OA
ENDROOT
BRANCH   1  11
HETATM   11  C8  UNL     1      45.850  25.194  20.580  1.00  0.00     0.163 C 
BRANCH  11  12
HETATM   12  C6  UNL     1      45.810  26.210  19.477  1.00  0.00     0.099 C 
HETATM   13  C7  UNL     1      44.714  25.989  18.470  1.00  0.00     0.034 C 
BRANCH  12  14
HETATM   14  N1  UNL     1      47.034  26.393  18.768  1.00  0.00    -0.355 N 
HETATM   15  C5  UNL     1      47.374  27.634  18.195  1.00  0.00     0.218 C 
HETATM   16  O1  UNL     1      46.584  28.606  18.305  1.00  0.00    -0.274 OA
ATOM     17  H1  UNL     1      47.678  25.608  18.674  1.00  0.00     0.162 HD
BRANCH  15  18
HETATM   18  C4  UNL     1      48.646  27.858  17.449  1.00  0.00     0.106 C 
BRANCH  18  19
HETATM   19  C2  UNL     1      48.855  29.325  17.156  1.00  0.00    -0.014 C 
HETATM   20  C1  UNL     1      49.527  29.473  15.791  1.00  0.00     0.010 C 
HETATM   21  C3  UNL     1      49.719  29.919  18.229  1.00  0.00     0.010 C 
ENDBRANCH  18  19
ENDBRANCH  15  18
ENDBRANCH  12  14
ENDBRANCH  11  12
ENDBRANCH   1  11
BRANCH   8  22
HETATM   22  C11 UNL     1      43.873  21.125  18.760  1.00  0.00     0.142 C 
BRANCH  22  23
HETATM   23  C12 UNL     1      44.451  19.878  19.298  1.00  0.00     0.027 C 
HETATM   24  C13 UNL     1      45.883  19.747  19.556  1.00  0.00     0.009 C 
HETATM   25  C14 UNL     1      46.682  19.331  18.390  1.00  0.00     0.009 C 
HETATM   26  C15 UNL     1      46.037  18.695  17.239  1.00  0.00    -0.046 C 
HETATM   27  C16 UNL     1      46.191  19.645  16.036  1.00  0.00     0.015 C 
HETATM   28  C17 UNL     1      46.879  17.471  16.827  1.00  0.00     0.015 C 
HETATM   29  C18 UNL     1      44.618  18.305  17.340  1.00  0.00     0.034 C 
HETATM   30  C19 UNL     1      43.926  18.633  18.616  1.00  0.00     0.039 C 
HETATM   31  C20 UNL     1      44.056  17.501  19.615  1.00  0.00     0.033 C 
HETATM   32 CL1  UNL     1      42.186  18.898  18.349  1.00  0.00    -0.119 Cl
ENDBRANCH  22  23
ENDBRANCH   8  22
TORSDOF 7
ENDMDL
MODEL 2
REMARK VINA RESULT: -9.079284750      1.970      3.185
REMARK  7 active torsions:
REMARK  status: ('A' for Active; 'I' for Inactive)
REMARK    1  A    between atoms: C2_2  and  C4_4 
REMARK    2  A    between atoms: C4_4  and  C5_5 
REMARK       I    between atoms: C5_5  and  N1_7 
REMARK    3  A    between atoms: N1_7  and  C6_9 
REMARK    4  A    between atoms: C6_9  and  C8_11 
REMARK    5  A    between atoms: C8_11  and  N2_12 
REMARK    6  A    between atoms: N4_19  and  C11_20 
REMARK    7  A    between atoms: C11_20  and  C12_21 
ROOT
HETATM    1  N2  UNL     1      46.166  25.992  19.899  1.00  0.00    -0.249 N 
HETATM    2  C9  UNL     1      45.134  26.634  20.465  1.00  0.00     0.332 A 
HETATM    3  O2  UNL     1      45.087  27.911  20.509  1.00  0.00    -0.246 OA
HETATM    4  N3  UNL     1      44.105  25.973  21.006  1.00  0.00    -0.284 N 
ATOM      5  H3  UNL     1      43.335  26.491  21.428  1.00  0.00     0.173 HD
HETATM    6  C10 UNL     1      44.080  24.635  20.999  1.00  0.00     0.186 A 
HETATM    7  S1  UNL     1      42.821  23.853  21.749  1.00  0.00    -0.040 SA
HETATM    8  N4  UNL     1      45.092  23.957  20.441  1.00  0.00    -0.275 N 
HETATM    9  C21 UNL     1      46.128  24.658  19.897  1.00  0.00     0.335 A 
HETATM   10  O3  UNL     1      47.067  24.013  19.381  1.00  0.00    -0.246 OA
ENDROOT
BRANCH   1  11
HETATM   11  C8  UNL     1      47.234  26.774  19.343  1.00  0.00     0.163 C 
BRANCH  11  12
HETATM   12  C6  UNL     1      46.971  27.333  17.977  1.00  0.00     0.099 C 
HETATM   13  C7  UNL     1      46.228  26.401  17.058  1.00  0.00     0.034 C 
BRANCH  12  14
HETATM   14  N1  UNL     1      48.116  27.821  17.283  1.00  0.00    -0.355 N 
HETATM   15  C5  UNL     1      48.509  29.172  17.369  1.00  0.00     0.218 C 
HETATM   16  O1  UNL     1      47.837  29.970  18.069  1.00  0.00    -0.274 OA
ATOM     17  H1  UNL     1      48.665  27.179  16.711  1.00  0.00     0.162 HD
BRANCH  15  18
HETATM   18  C4  UNL     1      49.702  29.713  16.656  1.00  0.00     0.106 C 
BRANCH  18  19
HETATM   19  C2  UNL     1      50.104  31.060  17.210  1.00  0.00    -0.014 C 
HETATM   20  C1  UNL     1      51.042  31.750  16.220  1.00  0.00     0.010 C 
HETATM   21  C3  UNL     1      50.792  30.860  18.528  1.00  0.00     0.010 C 
ENDBRANCH  18  19
ENDBRANCH  15  18
ENDBRANCH  12  14
ENDBRANCH  11  12
ENDBRANCH   1  11
BRANCH   8  22
HETATM   22  C11 UNL     1      45.096  22.507  20.341  1.00  0.00     0.142 C 
BRANCH  22  23
HETATM   23  C12 UNL     1      44.705  21.988  19.016  1.00  0.00     0.027 C 
HETATM   24  C13 UNL     1      43.466  22.407  18.366  1.00  0.00     0.009 C 
HETATM   25  C14 UNL     1      42.275  21.631  18.753  1.00  0.00     0.009 C 
HETATM   26  C15 UNL     1      42.420  20.313  19.376  1.00  0.00    -0.046 C 
HETATM   27  C16 UNL     1      41.874  20.414  20.812  1.00  0.00     0.015 C 
HETATM   28  C17 UNL     1      41.434  19.343  18.694  1.00  0.00     0.015 C 
HETATM   29  C18 UNL     1      43.759  19.694  19.434  1.00  0.00     0.034 C 
HETATM   30  C19 UNL     1      44.886  20.492  18.882  1.00  0.00     0.039 C 
HETATM   31  C20 UNL     1      45.087  20.207  17.407  1.00  0.00     0.033 C 
HETATM   32 CL1  UNL     1      46.415  20.092  19.704  1.00  0.00    -0.119 Cl
ENDBRANCH  22  23
ENDBRANCH   8  22
TORSDOF 7
ENDMDL
MODEL 3
REMARK VINA RESULT: -8.486052227      2.740      3.996
REMARK  7 active torsions:
REMARK  status: ('A' for Active; 'I' for Inactive)
REMARK    1  A    between atoms: C2_2  and  C4_4 
REMARK    2  A    between atoms: C4_4  and  C5_5 
REMARK       I    between atoms: C5_5  and  N1_7 
REMARK    3  A    between atoms: N1_7  and  C6_9 
REMARK    4  A    between atoms: C6_9  and  C8_11 
REMARK    5  A    between atoms: C8_11  and  N2_12 
REMARK    6  A    between atoms: N4_19  and  C11_20 
REMARK    7  A    between atoms: C11_20  and  C12_21 
ROOT
HETATM    1  N2  UNL     1      44.867  25.611  19.321  1.00  0.00    -0.249 N 
HETATM    2  C9  UNL     1      44.682  26.392  20.395  1.00  0.00     0.332 A 
HETATM    3  O2  UNL     1      44.961  27.639  20.367  1.00  0.00    -0.246 OA
HETATM    4  N3  UNL     1      44.196  25.907  21.543  1.00  0.00    -0.284 N 
ATOM      5  H3  UNL     1      44.067  26.528  22.342  1.00  0.00     0.173 HD
HETATM    6  C10 UNL     1      43.879  24.611  21.651  1.00  0.00     0.186 A 
HETATM    7  S1  UNL     1      43.351  24.035  23.117  1.00  0.00    -0.040 SA
HETATM    8  N4  UNL     1      44.047  23.799  20.599  1.00  0.00    -0.275 N 
HETATM    9  C21 UNL     1      44.545  24.321  19.442  1.00  0.00     0.335 A 
HETATM   10  O3  UNL     1      44.699  23.551  18.469  1.00  0.00    -0.246 OA
ENDROOT
BRANCH   1  11
HETATM   11  C8  UNL     1      45.396  26.207  18.127  1.00  0.00     0.163 C 
BRANCH  11  12
HETATM   12  C6  UNL     1      46.878  26.431  18.129  1.00  0.00     0.099 C 
HETATM   13  C7  UNL     1      47.645  25.503  19.032  1.00  0.00     0.034 C 
BRANCH  12  14
HETATM   14  N1  UNL     1      47.296  27.766  18.407  1.00  0.00    -0.355 N 
HETATM   15  C5  UNL     1      48.149  28.468  17.532  1.00  0.00     0.218 C 
HETATM   16  O1  UNL     1      48.557  27.910  16.483  1.00  0.00    -0.274 OA
ATOM     17  H1  UNL     1      46.970  28.224  19.258  1.00  0.00     0.162 HD
BRANCH  15  18
HETATM   18  C4  UNL     1      48.602  29.864  17.794  1.00  0.00     0.106 C 
BRANCH  18  19
HETATM   19  C2  UNL     1      50.079  30.020  17.513  1.00  0.00    -0.014 C 
HETATM   20  C1  UNL     1      50.719  30.839  18.633  1.00  0.00     0.010 C 
HETATM   21  C3  UNL     1      50.254  30.713  16.194  1.00  0.00     0.010 C 
ENDBRANCH  18  19
ENDBRANCH  15  18
ENDBRANCH  12  14
ENDBRANCH  11  12
ENDBRANCH   1  11
BRANCH   8  22
HETATM   22  C11 UNL     1      43.662  22.397  20.629  1.00  0.00     0.142 C 
BRANCH  22  23
HETATM   23  C12 UNL     1      42.568  22.048  19.703  1.00  0.00     0.027 C 
HETATM   24  C13 UNL     1      41.296  22.766  19.717  1.00  0.00     0.009 C 
HETATM   25  C14 UNL     1      40.312  22.255  20.688  1.00  0.00     0.009 C 
HETATM   26  C15 UNL     1      40.452  20.907  21.244  1.00  0.00    -0.046 C 
HETATM   27  C16 UNL     1      40.719  21.052  22.754  1.00  0.00     0.015 C 
HETATM   28  C17 UNL     1      39.074  20.218  21.198  1.00  0.00     0.015 C 
HETATM   29  C18 UNL     1      41.474  20.004  20.680  1.00  0.00     0.034 C 
HETATM   30  C19 UNL     1      42.327  20.558  19.595  1.00  0.00     0.039 C 
HETATM   31  C20 UNL     1      41.710  20.313  18.233  1.00  0.00     0.033 C 
HETATM   32 CL1  UNL     1      43.932  19.786  19.587  1.00  0.00    -0.119 Cl
ENDBRANCH  22  23
ENDBRANCH   8  22
TORSDOF 7
ENDMDL
MODEL 4
REMARK VINA RESULT: -8.226444393      1.921      2.682
REMARK  7 active torsions:
REMARK  status: ('A' for Active; 'I' for Inactive)
REMARK    1  A    between atoms: C2_2  and  C4_4 
REMARK    2  A    between atoms: C4_4  and  C5_5 
REMARK       I    between atoms: C5_5  and  N1_7 
REMARK    3  A    between atoms: N1_7  and  C6_9 
REMARK    4  A    between atoms: C6_9  and  C8_11 
REMARK    5  A    between atoms: C8_11  and  N2_12 
REMARK    6  A    between atoms: N4_19  and  C11_20 
REMARK    7  A    between atoms: C11_20  and  C12_21 
ROOT
HETATM    1  N2  UNL     1      43.438  21.989  20.320  1.00  0.00    -0.249 N 
HETATM    2  C9  UNL     1      42.238  21.601  20.774  1.00  0.00     0.332 A 
HETATM    3  O2  UNL     1      41.607  22.281  21.654  1.00  0.00    -0.246 OA
HETATM    4  N3  UNL     1      41.642  20.490  20.327  1.00  0.00    -0.284 N 
ATOM      5  H3  UNL     1      40.728  20.223  20.693  1.00  0.00     0.173 HD
HETATM    6  C10 UNL     1      42.237  19.726  19.404  1.00  0.00     0.186 A 
HETATM    7  S1  UNL     1      41.497  18.315  18.934  1.00  0.00    -0.040 SA
HETATM    8  N4  UNL     1      43.436  20.081  18.924  1.00  0.00    -0.275 N 
HETATM    9  C21 UNL     1      44.021  21.218  19.398  1.00  0.00     0.335 A 
HETATM   10  O3  UNL     1      45.141  21.537  18.943  1.00  0.00    -0.246 OA
ENDROOT
BRANCH   1  11
HETATM   11  C8  UNL     1      44.013  23.192  20.852  1.00  0.00     0.163 C 
BRANCH  11  12
HETATM   12  C6  UNL     1      43.898  24.398  19.969  1.00  0.00     0.099 C 
HETATM   13  C7  UNL     1      42.704  24.386  19.053  1.00  0.00     0.034 C 
BRANCH  12  14
HETATM   14  N1  UNL     1      45.053  24.698  19.188  1.00  0.00    -0.355 N 
HETATM   15  C5  UNL     1      46.073  25.539  19.675  1.00  0.00     0.218 C 
HETATM   16  O1  UNL     1      45.969  26.040  20.822  1.00  0.00    -0.274 OA
ATOM     17  H1  UNL     1      45.143  24.295  18.255  1.00  0.00     0.162 HD
BRANCH  15  18
HETATM   18  C4  UNL     1      47.293  25.870  18.883  1.00  0.00     0.106 C 
BRANCH  18  19
HETATM   19  C2  UNL     1      46.995  26.920  17.839  1.00  0.00    -0.014 C 
HETATM   20  C1  UNL     1      48.039  26.830  16.725  1.00  0.00     0.010 C 
HETATM   21  C3  UNL     1      47.037  28.276  18.483  1.00  0.00     0.010 C 
ENDBRANCH  18  19
ENDBRANCH  15  18
ENDBRANCH  12  14
ENDBRANCH  11  12
ENDBRANCH   1  11
BRANCH   8  22
HETATM   22  C11 UNL     1      44.108  19.331  17.875  1.00  0.00     0.142 C 
BRANCH  22  23
HETATM   23  C12 UNL     1      45.449  18.838  18.245  1.00  0.00     0.027 C 
HETATM   24  C13 UNL     1      46.656  19.351  17.603  1.00  0.00     0.009 C 
HETATM   25  C14 UNL     1      47.019  18.675  16.345  1.00  0.00     0.009 C 
HETATM   26  C15 UNL     1      46.472  17.354  16.030  1.00  0.00    -0.046 C 
HETATM   27  C16 UNL     1      45.571  17.507  14.790  1.00  0.00     0.015 C 
HETATM   28  C17 UNL     1      47.622  16.463  15.519  1.00  0.00     0.015 C 
HETATM   29  C18 UNL     1      45.711  16.630  17.067  1.00  0.00     0.034 C 
HETATM   30  C19 UNL     1      45.520  17.331  18.365  1.00  0.00     0.039 C 
HETATM   31  C20 UNL     1      46.651  17.022  19.325  1.00  0.00     0.033 C 
HETATM   32 CL1  UNL     1      44.009  16.814  19.153  1.00  0.00    -0.119 Cl
ENDBRANCH  22  23
ENDBRANCH   8  22
TORSDOF 7
ENDMDL
MODEL 5
REMARK VINA RESULT: -7.956341845      3.783      8.377
REMARK  7 active torsions:
REMARK  status: ('A' for Active; 'I' for Inactive)
REMARK    1  A    between atoms: C2_2  and  C4_4 
REMARK    2  A    between atoms: C4_4  and  C5_5 
REMARK       I    between atoms: C5_5  and  N1_7 
REMARK    3  A    between atoms: N1_7  and  C6_9 
REMARK    4  A    between atoms: C6_9  and  C8_11 
REMARK    5  A    between atoms: C8_11  and  N2_12 
REMARK    6  A    between atoms: N4_19  and  C11_20 
REMARK    7  A    between atoms: C11_20  and  C12_21 
ROOT
HETATM    1  N2  UNL     1      45.584  18.301  18.189  1.00  0.00    -0.249 N 
HETATM    2  C9  UNL     1      44.574  17.440  18.000  1.00  0.00     0.332 A 
HETATM    3  O2  UNL     1      44.753  16.323  17.405  1.00  0.00    -0.246 OA
HETATM    4  N3  UNL     1      43.333  17.706  18.424  1.00  0.00    -0.284 N 
ATOM      5  H3  UNL     1      42.587  17.030  18.264  1.00  0.00     0.173 HD
HETATM    6  C10 UNL     1      43.065  18.855  19.057  1.00  0.00     0.186 A 
HETATM    7  S1  UNL     1      41.497  19.179  19.499  1.00  0.00    -0.040 SA
HETATM    8  N4  UNL     1      44.049  19.739  19.268  1.00  0.00    -0.275 N 
HETATM    9  C21 UNL     1      45.304  19.442  18.823  1.00  0.00     0.335 A 
HETATM   10  O3  UNL     1      46.211  20.277  19.025  1.00  0.00    -0.246 OA
ENDROOT
BRANCH   1  11
HETATM   11  C8  UNL     1      46.886  17.943  17.701  1.00  0.00     0.163 C 
BRANCH  11  12
HETATM   12  C6  UNL     1      47.115  18.209  16.243  1.00  0.00     0.099 C 
HETATM   13  C7  UNL     1      46.617  19.547  15.770  1.00  0.00     0.034 C 
BRANCH  12  14
HETATM   14  N1  UNL     1      46.619  17.211  15.353  1.00  0.00    -0.355 N 
HETATM   15  C5  UNL     1      47.377  16.761  14.255  1.00  0.00     0.218 C 
HETATM   16  O1  UNL     1      48.517  17.247  14.047  1.00  0.00    -0.274 OA
ATOM     17  H1  UNL     1      45.693  16.813  15.516  1.00  0.00     0.162 HD
BRANCH  15  18
HETATM   18  C4  UNL     1      46.887  15.719  13.307  1.00  0.00     0.106 C 
BRANCH  18  19
HETATM   19  C2  UNL     1      45.377  15.678  13.276  1.00  0.00    -0.014 C 
HETATM   20  C1  UNL     1      44.908  14.245  13.527  1.00  0.00     0.010 C 
HETATM   21  C3  UNL     1      44.903  16.154  11.933  1.00  0.00     0.010 C 
ENDBRANCH  18  19
ENDBRANCH  15  18
ENDBRANCH  12  14
ENDBRANCH  11  12
ENDBRANCH   1  11
BRANCH   8  22
HETATM   22  C11 UNL     1      43.839  20.975  20.005  1.00  0.00     0.142 C 
BRANCH  22  23
HETATM   23  C12 UNL     1      43.103  22.011  19.254  1.00  0.00     0.027 C 
HETATM   24  C13 UNL     1      43.636  22.588  18.023  1.00  0.00     0.009 C 
HETATM   25  C14 UNL     1      44.551  23.726  18.224  1.00  0.00     0.009 C 
HETATM   26  C15 UNL     1      44.557  24.457  19.493  1.00  0.00    -0.046 C 
HETATM   27  C16 UNL     1      45.929  24.230  20.155  1.00  0.00     0.015 C 
HETATM   28  C17 UNL     1      44.565  25.967  19.182  1.00  0.00     0.015 C 
HETATM   29  C18 UNL     1      43.510  24.165  20.491  1.00  0.00     0.034 C 
HETATM   30  C19 UNL     1      42.533  23.099  20.139  1.00  0.00     0.039 C 
HETATM   31  C20 UNL     1      41.336  23.673  19.409  1.00  0.00     0.033 C 
HETATM   32 CL1  UNL     1      41.916  22.291  21.601  1.00  0.00    -0.119 Cl
ENDBRANCH  22  23
ENDBRANCH   8  22
TORSDOF 7
ENDMDL
