MODEL 1
REMARK VINA RESULT: -5.896881846      0.000      0.000
REMARK  2 active torsions:
REMARK  status: ('A' for Active; 'I' for Inactive)
REMARK    1  A    between atoms: N1_2  and  C2_4 
REMARK    2  A    between atoms: N2_7  and  N3_9 
ROOT
HETATM    1  C2  UNL     1     -29.131  87.084 -12.114  1.00  0.00     0.082 C 
HETATM    2  C3  UNL     1     -29.815  88.354 -12.517  1.00  0.00     0.079 C 
HETATM    3  C4  UNL     1     -30.488  88.894 -11.309  1.00  0.00     0.011 C 
HETATM    4  N2  UNL     1     -31.374  89.795 -11.239  1.00  0.00    -0.295 N 
ATOM      5  H2  UNL     1     -31.701  90.012 -10.297  1.00  0.00     0.187 HD
HETATM    6  C5  UNL     1     -29.926  88.176 -10.131  1.00  0.00     0.031 C 
HETATM    7  C6  UNL     1     -30.971  87.984  -9.046  1.00  0.00     0.016 C 
HETATM    8  C7  UNL     1     -29.581  86.836 -10.685  1.00  0.00     0.035 C 
ENDROOT
BRANCH   4   9
HETATM    9  N3  UNL     1     -31.958  90.522 -12.243  1.00  0.00    -0.249 N 
HETATM   10  N4  UNL     1     -33.089  90.276 -12.756  1.00  0.00    -0.331 N 
ATOM     11  H42 UNL     1     -33.592  89.470 -12.381  1.00  0.00     0.178 HD
ATOM     12  H41 UNL     1     -33.524  90.816 -13.503  1.00  0.00     0.178 HD
ATOM     13  H3  UNL     1     -31.442  91.323 -12.604  1.00  0.00     0.207 HD
ENDBRANCH   4   9
BRANCH   1  14
HETATM   14  N1  UNL     1     -27.709  87.134 -12.115  1.00  0.00    -0.421 N 
HETATM   15  C1  UNL     1     -27.024  86.046 -11.511  1.00  0.00     0.140 C 
ATOM     16  H1  UNL     1     -27.204  87.916 -12.531  1.00  0.00     0.153 HD
ENDBRANCH   1  14
TORSDOF 2
ENDMDL
MODEL 2
REMARK VINA RESULT: -5.880531786      1.508      2.572
REMARK  2 active torsions:
REMARK  status: ('A' for Active; 'I' for Inactive)
REMARK    1  A    between atoms: N1_2  and  C2_4 
REMARK    2  A    between atoms: N2_7  and  N3_9 
ROOT
HETATM    1  C2  UNL     1     -28.408  86.683 -10.599  1.00  0.00     0.082 C 
HETATM    2  C3  UNL     1     -29.586  87.608 -10.607  1.00  0.00     0.079 C 
HETATM    3  C4  UNL     1     -29.907  87.901 -12.026  1.00  0.00     0.011 C 
HETATM    4  N2  UNL     1     -30.649  88.814 -12.492  1.00  0.00    -0.295 N 
ATOM      5  H2  UNL     1     -30.730  88.833 -13.508  1.00  0.00     0.187 HD
HETATM    6  C5  UNL     1     -29.186  86.898 -12.859  1.00  0.00     0.031 C 
HETATM    7  C6  UNL     1     -28.740  87.494 -14.182  1.00  0.00     0.016 C 
HETATM    8  C7  UNL     1     -27.970  86.600 -12.051  1.00  0.00     0.035 C 
ENDROOT
BRANCH   4   9
HETATM    9  N3  UNL     1     -31.360  89.780 -11.830  1.00  0.00    -0.249 N 
HETATM   10  N4  UNL     1     -32.030  90.700 -12.386  1.00  0.00    -0.331 N 
ATOM     11  H42 UNL     1     -32.029  90.708 -13.406  1.00  0.00     0.178 HD
ATOM     12  H41 UNL     1     -32.559  91.419 -11.894  1.00  0.00     0.178 HD
ATOM     13  H3  UNL     1     -31.349  89.757 -10.811  1.00  0.00     0.207 HD
ENDBRANCH   4   9
BRANCH   1  14
HETATM   14  N1  UNL     1     -28.679  85.359 -10.156  1.00  0.00    -0.421 N 
HETATM   15  C1  UNL     1     -28.007  84.302 -10.826  1.00  0.00     0.140 C 
ATOM     16  H1  UNL     1     -29.326  85.176  -9.390  1.00  0.00     0.153 HD
ENDBRANCH   1  14
TORSDOF 2
ENDMDL
MODEL 3
REMARK VINA RESULT: -5.429608820      1.362      1.541
REMARK  2 active torsions:
REMARK  status: ('A' for Active; 'I' for Inactive)
REMARK    1  A    between atoms: N1_2  and  C2_4 
REMARK    2  A    between atoms: N2_7  and  N3_9 
ROOT
HETATM    1  C2  UNL     1     -28.725  86.761 -12.777  1.00  0.00     0.082 C 
HETATM    2  C3  UNL     1     -29.473  88.057 -12.730  1.00  0.00     0.079 C 
HETATM    3  C4  UNL     1     -29.759  88.349 -11.303  1.00  0.00     0.011 C 
HETATM    4  N2  UNL     1     -30.571  89.192 -10.820  1.00  0.00    -0.295 N 
ATOM      5  H2  UNL     1     -30.608  89.227  -9.801  1.00  0.00     0.187 HD
HETATM    6  C5  UNL     1     -28.894  87.454 -10.486  1.00  0.00     0.031 C 
HETATM    7  C6  UNL     1     -29.585  87.036  -9.200  1.00  0.00     0.016 C 
HETATM    8  C7  UNL     1     -28.747  86.247 -11.348  1.00  0.00     0.035 C 
ENDROOT
BRANCH   4   9
HETATM    9  N3  UNL     1     -31.407  90.065 -11.466  1.00  0.00    -0.249 N 
HETATM   10  N4  UNL     1     -32.337  90.725 -10.915  1.00  0.00    -0.331 N 
ATOM     11  H42 UNL     1     -32.459  90.585  -9.912  1.00  0.00     0.178 HD
ATOM     12  H41 UNL     1     -32.959  91.374 -11.395  1.00  0.00     0.178 HD
ATOM     13  H3  UNL     1     -31.270  90.192 -12.468  1.00  0.00     0.207 HD
ENDBRANCH   4   9
BRANCH   1  14
HETATM   14  N1  UNL     1     -27.363  86.860 -13.176  1.00  0.00    -0.421 N 
HETATM   15  C1  UNL     1     -27.092  87.559 -14.382  1.00  0.00     0.140 C 
ATOM     16  H1  UNL     1     -26.614  86.447 -12.621  1.00  0.00     0.153 HD
ENDBRANCH   1  14
TORSDOF 2
ENDMDL
MODEL 4
REMARK VINA RESULT: -5.194882469      2.012      2.890
REMARK  2 active torsions:
REMARK  status: ('A' for Active; 'I' for Inactive)
REMARK    1  A    between atoms: N1_2  and  C2_4 
REMARK    2  A    between atoms: N2_7  and  N3_9 
ROOT
HETATM    1  C2  UNL     1     -28.357  87.094 -10.812  1.00  0.00     0.082 C 
HETATM    2  C3  UNL     1     -29.456  87.014  -9.798  1.00  0.00     0.079 C 
HETATM    3  C4  UNL     1     -30.572  87.861 -10.290  1.00  0.00     0.011 C 
HETATM    4  N2  UNL     1     -31.581  88.281  -9.651  1.00  0.00    -0.295 N 
ATOM      5  H2  UNL     1     -32.229  88.854 -10.190  1.00  0.00     0.187 HD
HETATM    6  C5  UNL     1     -30.308  88.149 -11.727  1.00  0.00     0.031 C 
HETATM    7  C6  UNL     1     -30.800  89.532 -12.115  1.00  0.00     0.016 C 
HETATM    8  C7  UNL     1     -28.820  88.146 -11.805  1.00  0.00     0.035 C 
ENDROOT
BRANCH   4   9
HETATM    9  N3  UNL     1     -31.928  88.079  -8.341  1.00  0.00    -0.249 N 
HETATM   10  N4  UNL     1     -32.823  88.722  -7.718  1.00  0.00    -0.331 N 
ATOM     11  H42 UNL     1     -33.313  89.444  -8.246  1.00  0.00     0.178 HD
ATOM     12  H41 UNL     1     -33.081  88.572  -6.743  1.00  0.00     0.178 HD
ATOM     13  H3  UNL     1     -31.427  87.353  -7.829  1.00  0.00     0.207 HD
ENDBRANCH   4   9
BRANCH   1  14
HETATM   14  N1  UNL     1     -28.112  85.896 -11.539  1.00  0.00    -0.421 N 
HETATM   15  C1  UNL     1     -28.384  84.670 -10.875  1.00  0.00     0.140 C 
ATOM     16  H1  UNL     1     -27.757  85.916 -12.494  1.00  0.00     0.153 HD
ENDBRANCH   1  14
TORSDOF 2
ENDMDL
MODEL 5
REMARK VINA RESULT: -5.165872263      1.805      2.822
REMARK  2 active torsions:
REMARK  status: ('A' for Active; 'I' for Inactive)
REMARK    1  A    between atoms: N1_2  and  C2_4 
REMARK    2  A    between atoms: N2_7  and  N3_9 
ROOT
HETATM    1  C2  UNL     1     -27.499  86.555 -10.898  1.00  0.00     0.082 C 
HETATM    2  C3  UNL     1     -28.711  87.332 -10.489  1.00  0.00     0.079 C 
HETATM    3  C4  UNL     1     -29.451  87.678 -11.728  1.00  0.00     0.011 C 
HETATM    4  N2  UNL     1     -30.380  88.525 -11.880  1.00  0.00    -0.295 N 
ATOM      5  H2  UNL     1     -30.749  88.601 -12.827  1.00  0.00     0.187 HD
HETATM    6  C5  UNL     1     -28.907  86.824 -12.821  1.00  0.00     0.031 C 
HETATM    7  C6  UNL     1     -28.917  87.554 -14.153  1.00  0.00     0.016 C 
HETATM    8  C7  UNL     1     -27.488  86.620 -12.415  1.00  0.00     0.035 C 
ENDROOT
BRANCH   4   9
HETATM    9  N3  UNL     1     -30.960  89.354 -10.957  1.00  0.00    -0.249 N 
HETATM   10  N4  UNL     1     -31.939  89.046 -10.215  1.00  0.00    -0.331 N 
ATOM     11  H42 UNL     1     -32.311  88.102 -10.325  1.00  0.00     0.178 HD
ATOM     12  H41 UNL     1     -32.371  89.663  -9.528  1.00  0.00     0.178 HD
ATOM     13  H3  UNL     1     -30.575  90.293 -10.861  1.00  0.00     0.207 HD
ENDBRANCH   4   9
BRANCH   1  14
HETATM   14  N1  UNL     1     -27.503  85.182 -10.526  1.00  0.00    -0.421 N 
HETATM   15  C1  UNL     1     -26.448  84.373 -11.026  1.00  0.00     0.140 C 
ATOM     16  H1  UNL     1     -28.233  84.794  -9.928  1.00  0.00     0.153 HD
ENDBRANCH   1  14
TORSDOF 2
ENDMDL
