MODEL 1
REMARK VINA RESULT: -6.107291696      0.000      0.000
REMARK  5 active torsions:
REMARK  status: ('A' for Active; 'I' for Inactive)
REMARK    1  A    between atoms: C2_2  and  N2_6 
REMARK    2  A    between atoms: N3_8  and  C4_9 
REMARK    3  A    between atoms: C4_9  and  C5_10 
REMARK    4  A    between atoms: C5_10  and  N4_11 
REMARK    5  A    between atoms: C5_10  and  C6_15 
ROOT
HETATM    1  N2  UNL     1       2.774  41.148  40.082  1.00  0.00    -0.343 N 
HETATM    2  C3  UNL     1       1.567  40.725  39.347  1.00  0.00     0.363 C 
HETATM    3  N3  UNL     1       0.662  40.225  40.323  1.00  0.00    -0.049 N 
HETATM    4  C7  UNL     1       0.677  41.167  41.451  1.00  0.00     0.241 C 
HETATM    5  C8  UNL     1       1.906  40.945  42.306  1.00  0.00     0.053 C 
HETATM    6  C9  UNL     1       2.992  40.469  41.341  1.00  0.00     0.090 C 
HETATM    7  C10 UNL     1       2.665  38.996  41.077  1.00  0.00     0.053 C 
HETATM    8  C11 UNL     1       1.202  38.931  40.776  1.00  0.00     0.241 C 
ENDROOT
BRANCH   3   9
HETATM    9  C4  UNL     1      -0.681  40.051  39.926  1.00  0.00     0.272 C 
BRANCH   9  10
HETATM   10  C5  UNL     1      -1.126  40.694  38.670  1.00  0.00     0.219 C 
BRANCH  10  11
HETATM   11  N4  UNL     1      -1.991  41.836  38.903  1.00  0.00    -0.073 N 
ATOM     12  H43 UNL     1      -1.450  42.700  38.953  1.00  0.00     0.274 HD
ATOM     13  H42 UNL     1      -2.554  42.042  38.078  1.00  0.00     0.274 HD
ATOM     14  H41 UNL     1      -2.579  41.722  39.728  1.00  0.00     0.274 HD
ENDBRANCH  10  11
BRANCH  10  15
HETATM   15  C6  UNL     1      -1.931  39.716  37.825  1.00  0.00     0.120 C 
HETATM   16  S1  UNL     1      -1.104  38.117  37.686  1.00  0.00    -0.096 SA
ENDBRANCH  10  15
ENDBRANCH   9  10
ENDBRANCH   3   9
BRANCH   1  17
HETATM   17  C2  UNL     1       3.632  42.153  39.559  1.00  0.00     0.070 C 
HETATM   18  C1  UNL     1       3.220  43.560  39.358  1.00  0.00     0.088 C 
HETATM   19  N1  UNL     1       4.845  41.841  39.236  1.00  0.00    -0.389 N 
ATOM     20  H12 UNL     1       5.461  42.562  38.861  1.00  0.00     0.157 HD
ATOM     21  H11 UNL     1       5.129  40.870  39.375  1.00  0.00     0.157 HD
ENDBRANCH   1  17
TORSDOF 5
ENDMDL
MODEL 2
REMARK VINA RESULT: -6.053534506      1.228      1.413
REMARK  5 active torsions:
REMARK  status: ('A' for Active; 'I' for Inactive)
REMARK    1  A    between atoms: C2_2  and  N2_6 
REMARK    2  A    between atoms: N3_8  and  C4_9 
REMARK    3  A    between atoms: C4_9  and  C5_10 
REMARK    4  A    between atoms: C5_10  and  N4_11 
REMARK    5  A    between atoms: C5_10  and  C6_15 
ROOT
HETATM    1  N2  UNL     1       2.758  40.650  39.236  1.00  0.00    -0.343 N 
HETATM    2  C3  UNL     1       1.291  40.799  39.215  1.00  0.00     0.363 C 
HETATM    3  N3  UNL     1       0.783  39.875  40.169  1.00  0.00    -0.049 N 
HETATM    4  C7  UNL     1       1.627  39.983  41.368  1.00  0.00     0.241 C 
HETATM    5  C8  UNL     1       2.929  39.238  41.165  1.00  0.00     0.053 C 
HETATM    6  C9  UNL     1       3.234  39.355  39.671  1.00  0.00     0.090 C 
HETATM    7  C10 UNL     1       2.314  38.331  39.001  1.00  0.00     0.053 C 
HETATM    8  C11 UNL     1       0.953  38.532  39.587  1.00  0.00     0.241 C 
ENDROOT
BRANCH   3   9
HETATM    9  C4  UNL     1      -0.560  40.037  40.572  1.00  0.00     0.272 C 
BRANCH   9  10
HETATM   10  C5  UNL     1      -1.593  40.164  39.520  1.00  0.00     0.219 C 
BRANCH  10  11
HETATM   11  N4  UNL     1      -2.261  41.452  39.545  1.00  0.00    -0.073 N 
ATOM     12  H43 UNL     1      -1.995  41.987  40.373  1.00  0.00     0.274 HD
ATOM     13  H42 UNL     1      -1.890  42.070  38.824  1.00  0.00     0.274 HD
ATOM     14  H41 UNL     1      -3.275  41.371  39.471  1.00  0.00     0.274 HD
ENDBRANCH  10  11
BRANCH  10  15
HETATM   15  C6  UNL     1      -2.681  39.116  39.711  1.00  0.00     0.120 C 
HETATM   16  S1  UNL     1      -2.682  37.904  38.373  1.00  0.00    -0.096 SA
ENDBRANCH  10  15
ENDBRANCH   9  10
ENDBRANCH   3   9
BRANCH   1  17
HETATM   17  C2  UNL     1       3.606  41.723  38.852  1.00  0.00     0.070 C 
HETATM   18  C1  UNL     1       3.143  42.903  38.087  1.00  0.00     0.088 C 
HETATM   19  N1  UNL     1       4.857  41.687  39.181  1.00  0.00    -0.389 N 
ATOM     20  H12 UNL     1       5.466  42.457  38.905  1.00  0.00     0.157 HD
ATOM     21  H11 UNL     1       5.177  40.874  39.708  1.00  0.00     0.157 HD
ENDBRANCH   1  17
TORSDOF 5
ENDMDL
MODEL 3
REMARK VINA RESULT: -6.001283536      2.437      4.411
REMARK  5 active torsions:
REMARK  status: ('A' for Active; 'I' for Inactive)
REMARK    1  A    between atoms: C2_2  and  N2_6 
REMARK    2  A    between atoms: N3_8  and  C4_9 
REMARK    3  A    between atoms: C4_9  and  C5_10 
REMARK    4  A    between atoms: C5_10  and  N4_11 
REMARK    5  A    between atoms: C5_10  and  C6_15 
ROOT
HETATM    1  N2  UNL     1      -0.224  40.409  39.317  1.00  0.00    -0.343 N 
HETATM    2  C3  UNL     1       0.301  39.146  38.767  1.00  0.00     0.363 C 
HETATM    3  N3  UNL     1       1.482  38.852  39.502  1.00  0.00    -0.049 N 
HETATM    4  C7  UNL     1       1.180  39.095  40.921  1.00  0.00     0.241 C 
HETATM    5  C8  UNL     1       1.221  40.579  41.221  1.00  0.00     0.053 C 
HETATM    6  C9  UNL     1       0.766  41.266  39.933  1.00  0.00     0.090 C 
HETATM    7  C10 UNL     1       1.986  41.217  39.009  1.00  0.00     0.053 C 
HETATM    8  C11 UNL     1       2.505  39.816  39.061  1.00  0.00     0.241 C 
ENDROOT
BRANCH   3   9
HETATM    9  C4  UNL     1       2.001  37.544  39.392  1.00  0.00     0.272 C 
BRANCH   9  10
HETATM   10  C5  UNL     1       1.051  36.434  39.159  1.00  0.00     0.219 C 
BRANCH  10  11
HETATM   11  N4  UNL     1       0.979  35.515  40.279  1.00  0.00    -0.073 N 
ATOM     12  H43 UNL     1       1.207  34.564  39.987  1.00  0.00     0.274 HD
ATOM     13  H42 UNL     1       1.745  35.674  40.933  1.00  0.00     0.274 HD
ATOM     14  H41 UNL     1       0.078  35.546  40.756  1.00  0.00     0.274 HD
ENDBRANCH  10  11
BRANCH  10  15
HETATM   15  C6  UNL     1       1.481  35.607  37.955  1.00  0.00     0.120 C 
HETATM   16  S1  UNL     1       3.188  35.955  37.482  1.00  0.00    -0.096 SA
ENDBRANCH  10  15
ENDBRANCH   9  10
ENDBRANCH   3   9
BRANCH   1  17
HETATM   17  C2  UNL     1      -1.607  40.724  39.230  1.00  0.00     0.070 C 
HETATM   18  C1  UNL     1      -2.683  39.846  39.743  1.00  0.00     0.088 C 
HETATM   19  N1  UNL     1      -1.967  41.836  38.676  1.00  0.00    -0.389 N 
ATOM     20  H12 UNL     1      -2.960  42.062  38.614  1.00  0.00     0.157 HD
ATOM     21  H11 UNL     1      -1.226  42.442  38.323  1.00  0.00     0.157 HD
ENDBRANCH   1  17
TORSDOF 5
ENDMDL
MODEL 4
REMARK VINA RESULT: -5.953474740      6.370      7.840
REMARK  5 active torsions:
REMARK  status: ('A' for Active; 'I' for Inactive)
REMARK    1  A    between atoms: C2_2  and  N2_6 
REMARK    2  A    between atoms: N3_8  and  C4_9 
REMARK    3  A    between atoms: C4_9  and  C5_10 
REMARK    4  A    between atoms: C5_10  and  N4_11 
REMARK    5  A    between atoms: C5_10  and  C6_15 
ROOT
HETATM    1  N2  UNL     1      -2.426  36.665  35.432  1.00  0.00    -0.343 N 
HETATM    2  C3  UNL     1      -1.713  35.913  36.481  1.00  0.00     0.363 C 
HETATM    3  N3  UNL     1      -2.665  35.658  37.505  1.00  0.00    -0.049 N 
HETATM    4  C7  UNL     1      -3.904  35.220  36.845  1.00  0.00     0.241 C 
HETATM    5  C8  UNL     1      -4.650  36.411  36.284  1.00  0.00     0.053 C 
HETATM    6  C9  UNL     1      -3.571  37.420  35.893  1.00  0.00     0.090 C 
HETATM    7  C10 UNL     1      -3.136  38.063  37.213  1.00  0.00     0.053 C 
HETATM    8  C11 UNL     1      -2.914  36.944  38.180  1.00  0.00     0.241 C 
ENDROOT
BRANCH   3   9
HETATM    9  C4  UNL     1      -2.327  34.687  38.472  1.00  0.00     0.272 C 
BRANCH   9  10
HETATM   10  C5  UNL     1      -1.878  35.154  39.802  1.00  0.00     0.219 C 
BRANCH  10  11
HETATM   11  N4  UNL     1      -0.450  34.984  40.002  1.00  0.00    -0.073 N 
ATOM     12  H43 UNL     1      -0.039  34.431  39.250  1.00  0.00     0.274 HD
ATOM     13  H42 UNL     1       0.047  35.861  39.852  1.00  0.00     0.274 HD
ATOM     14  H41 UNL     1      -0.226  34.587  40.914  1.00  0.00     0.274 HD
ENDBRANCH  10  11
BRANCH  10  15
HETATM   15  C6  UNL     1      -2.560  34.359  40.907  1.00  0.00     0.120 C 
HETATM   16  S1  UNL     1      -4.356  34.362  40.720  1.00  0.00    -0.096 SA
ENDBRANCH  10  15
ENDBRANCH   9  10
ENDBRANCH   3   9
BRANCH   1  17
HETATM   17  C2  UNL     1      -1.990  36.623  34.080  1.00  0.00     0.070 C 
HETATM   18  C1  UNL     1      -0.905  37.474  33.541  1.00  0.00     0.088 C 
HETATM   19  N1  UNL     1      -2.560  35.802  33.259  1.00  0.00    -0.389 N 
ATOM     20  H12 UNL     1      -2.247  35.772  32.288  1.00  0.00     0.157 HD
ATOM     21  H11 UNL     1      -3.308  35.216  33.631  1.00  0.00     0.157 HD
ENDBRANCH   1  17
TORSDOF 5
ENDMDL
MODEL 5
REMARK VINA RESULT: -5.892069492      2.221      2.999
REMARK  5 active torsions:
REMARK  status: ('A' for Active; 'I' for Inactive)
REMARK    1  A    between atoms: C2_2  and  N2_6 
REMARK    2  A    between atoms: N3_8  and  C4_9 
REMARK    3  A    between atoms: C4_9  and  C5_10 
REMARK    4  A    between atoms: C5_10  and  N4_11 
REMARK    5  A    between atoms: C5_10  and  C6_15 
ROOT
HETATM    1  N2  UNL     1       1.807  41.503  40.016  1.00  0.00    -0.343 N 
HETATM    2  C3  UNL     1       1.599  40.252  39.264  1.00  0.00     0.363 C 
HETATM    3  N3  UNL     1       0.961  39.351  40.159  1.00  0.00    -0.049 N 
HETATM    4  C7  UNL     1      -0.093  40.105  40.855  1.00  0.00     0.241 C 
HETATM    5  C8  UNL     1       0.507  40.956  41.953  1.00  0.00     0.053 C 
HETATM    6  C9  UNL     1       1.898  41.345  41.452  1.00  0.00     0.090 C 
HETATM    7  C10 UNL     1       2.759  40.099  41.675  1.00  0.00     0.053 C 
HETATM    8  C11 UNL     1       1.979  38.940  41.141  1.00  0.00     0.241 C 
ENDROOT
BRANCH   3   9
HETATM    9  C4  UNL     1       0.367  38.199  39.600  1.00  0.00     0.272 C 
BRANCH   9  10
HETATM   10  C5  UNL     1       1.222  37.012  39.378  1.00  0.00     0.219 C 
BRANCH  10  11
HETATM   11  N4  UNL     1       1.568  36.826  37.981  1.00  0.00    -0.073 N 
ATOM     12  H43 UNL     1       0.974  36.119  37.547  1.00  0.00     0.274 HD
ATOM     13  H42 UNL     1       1.294  37.635  37.425  1.00  0.00     0.274 HD
ATOM     14  H41 UNL     1       2.555  36.607  37.847  1.00  0.00     0.274 HD
ENDBRANCH  10  11
BRANCH  10  15
HETATM   15  C6  UNL     1       0.498  35.744  39.810  1.00  0.00     0.120 C 
HETATM   16  S1  UNL     1       1.398  34.260  39.312  1.00  0.00    -0.096 SA
ENDBRANCH  10  15
ENDBRANCH   9  10
ENDBRANCH   3   9
BRANCH   1  17
HETATM   17  C2  UNL     1       1.905  42.752  39.344  1.00  0.00     0.070 C 
HETATM   18  C1  UNL     1       3.102  43.622  39.398  1.00  0.00     0.088 C 
HETATM   19  N1  UNL     1       0.903  43.168  38.640  1.00  0.00    -0.389 N 
ATOM     20  H12 UNL     1       0.973  44.065  38.157  1.00  0.00     0.157 HD
ATOM     21  H11 UNL     1       0.079  42.569  38.602  1.00  0.00     0.157 HD
ENDBRANCH   1  17
TORSDOF 5
ENDMDL
