MODEL 1
REMARK VINA RESULT: -6.907806637      0.000      0.000
REMARK  6 active torsions:
REMARK  status: ('A' for Active; 'I' for Inactive)
REMARK    1  A    between atoms: C1_2  and  C2_3 
REMARK       I    between atoms: C1_2  and  N1_7 
REMARK    2  A    between atoms: C2_3  and  C3_4 
REMARK    3  A    between atoms: N1_7  and  C5_9 
REMARK    4  A    between atoms: C5_9  and  C6_10 
REMARK       I    between atoms: C6_10  and  N2_12 
REMARK    5  A    between atoms: N2_12  and  C7_14 
REMARK    6  A    between atoms: C7_14  and  C8_15 
ROOT
HETATM    1  C6  UNL     1      22.400  10.000  23.905  1.00  0.00     0.238 C 
HETATM    2  O2  UNL     1      23.289  10.564  24.552  1.00  0.00    -0.271 OA
HETATM    3  N2  UNL     1      22.563   9.579  22.587  1.00  0.00    -0.339 N 
ATOM      4  H2  UNL     1      21.747   9.139  22.162  1.00  0.00     0.167 HD
ENDROOT
BRANCH   1   5
HETATM    5  C5  UNL     1      21.101   9.773  24.592  1.00  0.00     0.225 C 
BRANCH   5   6
HETATM    6  N1  UNL     1      21.174  10.086  25.987  1.00  0.00    -0.352 N 
HETATM    7  C1  UNL     1      20.125  10.748  26.664  1.00  0.00     0.221 C 
HETATM    8  O1  UNL     1      19.088  11.075  26.054  1.00  0.00    -0.273 OA
ATOM      9  H1  UNL     1      22.010   9.823  26.510  1.00  0.00     0.162 HD
BRANCH   7  10
HETATM   10  C2  UNL     1      20.252  11.056  28.098  1.00  0.00     0.130 C 
BRANCH  10  11
HETATM   11  C3  UNL     1      21.140  12.214  28.353  1.00  0.00    -0.006 C 
HETATM   12  C4  UNL     1      20.905  13.046  29.359  1.00  0.00     0.081 C 
HETATM   13 CL1  UNL     1      19.529  12.802  30.429  1.00  0.00    -0.097 Cl
ENDBRANCH  10  11
ENDBRANCH   7  10
ENDBRANCH   5   6
ENDBRANCH   1   5
BRANCH   3  14
HETATM   14  C7  UNL     1      23.692   9.674  21.767  1.00  0.00     0.068 C 
BRANCH  14  15
HETATM   15  C8  UNL     1      23.821  10.680  20.707  1.00  0.00     0.024 C 
HETATM   16  C9  UNL     1      24.609  10.421  19.484  1.00  0.00     0.010 C 
HETATM   17  C10 UNL     1      24.773  11.720  18.679  1.00  0.00     0.001 C 
HETATM   18  C11 UNL     1      24.062  12.855  19.362  1.00  0.00     0.000 C 
HETATM   19  C12 UNL     1      22.658  12.615  19.760  1.00  0.00     0.001 C 
HETATM   20  C13 UNL     1      22.453  11.215  20.243  1.00  0.00     0.010 C 
ENDBRANCH  14  15
ENDBRANCH   3  14
TORSDOF 6
ENDMDL
MODEL 2
REMARK VINA RESULT: -6.580296796      1.783      2.058
REMARK  6 active torsions:
REMARK  status: ('A' for Active; 'I' for Inactive)
REMARK    1  A    between atoms: C1_2  and  C2_3 
REMARK       I    between atoms: C1_2  and  N1_7 
REMARK    2  A    between atoms: C2_3  and  C3_4 
REMARK    3  A    between atoms: N1_7  and  C5_9 
REMARK    4  A    between atoms: C5_9  and  C6_10 
REMARK       I    between atoms: C6_10  and  N2_12 
REMARK    5  A    between atoms: N2_12  and  C7_14 
REMARK    6  A    between atoms: C7_14  and  C8_15 
ROOT
HETATM    1  C6  UNL     1      22.983  11.681  24.248  1.00  0.00     0.238 C 
HETATM    2  O2  UNL     1      23.324  10.598  24.737  1.00  0.00    -0.271 OA
HETATM    3  N2  UNL     1      22.992  11.939  22.880  1.00  0.00    -0.339 N 
ATOM      4  H2  UNL     1      22.701  12.878  22.608  1.00  0.00     0.167 HD
ENDROOT
BRANCH   1   5
HETATM    5  C5  UNL     1      22.545  12.743  25.193  1.00  0.00     0.225 C 
BRANCH   5   6
HETATM    6  N1  UNL     1      21.922  12.195  26.359  1.00  0.00    -0.352 N 
HETATM    7  C1  UNL     1      22.166  12.709  27.652  1.00  0.00     0.221 C 
HETATM    8  O1  UNL     1      22.939  13.674  27.813  1.00  0.00    -0.273 OA
ATOM      9  H1  UNL     1      21.280  11.409  26.254  1.00  0.00     0.162 HD
BRANCH   7  10
HETATM   10  C2  UNL     1      21.506  12.104  28.822  1.00  0.00     0.130 C 
BRANCH  10  11
HETATM   11  C3  UNL     1      20.035  12.038  28.671  1.00  0.00    -0.006 C 
HETATM   12  C4  UNL     1      19.230  12.309  29.691  1.00  0.00     0.081 C 
HETATM   13 CL1  UNL     1      19.886  12.757  31.261  1.00  0.00    -0.097 Cl
ENDBRANCH  10  11
ENDBRANCH   7  10
ENDBRANCH   5   6
ENDBRANCH   1   5
BRANCH   3  14
HETATM   14  C7  UNL     1      23.345  11.089  21.827  1.00  0.00     0.068 C 
BRANCH  14  15
HETATM   15  C8  UNL     1      23.804  11.584  20.525  1.00  0.00     0.024 C 
HETATM   16  C9  UNL     1      24.363  10.676  19.503  1.00  0.00     0.010 C 
HETATM   17  C10 UNL     1      24.983  11.492  18.356  1.00  0.00     0.001 C 
HETATM   18  C11 UNL     1      24.812  12.965  18.607  1.00  0.00     0.000 C 
HETATM   19  C12 UNL     1      23.449  13.426  18.951  1.00  0.00     0.001 C 
HETATM   20  C13 UNL     1      22.735  12.439  19.818  1.00  0.00     0.010 C 
ENDBRANCH  14  15
ENDBRANCH   3  14
TORSDOF 6
ENDMDL
MODEL 3
REMARK VINA RESULT: -6.564505686      0.749      1.347
REMARK  6 active torsions:
REMARK  status: ('A' for Active; 'I' for Inactive)
REMARK    1  A    between atoms: C1_2  and  C2_3 
REMARK       I    between atoms: C1_2  and  N1_7 
REMARK    2  A    between atoms: C2_3  and  C3_4 
REMARK    3  A    between atoms: N1_7  and  C5_9 
REMARK    4  A    between atoms: C5_9  and  C6_10 
REMARK       I    between atoms: C6_10  and  N2_12 
REMARK    5  A    between atoms: N2_12  and  C7_14 
REMARK    6  A    between atoms: C7_14  and  C8_15 
ROOT
HETATM    1  C6  UNL     1      22.522  10.111  23.880  1.00  0.00     0.238 C 
HETATM    2  O2  UNL     1      23.284  10.839  24.523  1.00  0.00    -0.271 OA
HETATM    3  N2  UNL     1      22.717   9.796  22.537  1.00  0.00    -0.339 N 
ATOM      4  H2  UNL     1      22.006   9.195  22.119  1.00  0.00     0.167 HD
ENDROOT
BRANCH   1   5
HETATM    5  C5  UNL     1      21.346   9.556  24.600  1.00  0.00     0.225 C 
BRANCH   5   6
HETATM    6  N1  UNL     1      21.301   9.991  25.963  1.00  0.00    -0.352 N 
HETATM    7  C1  UNL     1      20.237  10.772  26.467  1.00  0.00     0.221 C 
HETATM    8  O1  UNL     1      19.290  11.103  25.727  1.00  0.00    -0.273 OA
ATOM      9  H1  UNL     1      22.061   9.729  26.591  1.00  0.00     0.162 HD
BRANCH   7  10
HETATM   10  C2  UNL     1      20.242  11.203  27.876  1.00  0.00     0.130 C 
BRANCH  10  11
HETATM   11  C3  UNL     1      21.166  12.334  28.119  1.00  0.00    -0.006 C 
HETATM   12  C4  UNL     1      21.047  13.093  29.201  1.00  0.00     0.081 C 
HETATM   13 CL1  UNL     1      19.786  12.778  30.388  1.00  0.00    -0.097 Cl
ENDBRANCH  10  11
ENDBRANCH   7  10
ENDBRANCH   5   6
ENDBRANCH   1   5
BRANCH   3  14
HETATM   14  C7  UNL     1      23.752  10.189  21.683  1.00  0.00     0.068 C 
BRANCH  14  15
HETATM   15  C8  UNL     1      23.704  11.422  20.892  1.00  0.00     0.024 C 
HETATM   16  C9  UNL     1      22.426  12.092  20.576  1.00  0.00     0.010 C 
HETATM   17  C10 UNL     1      22.655  13.204  19.540  1.00  0.00     0.001 C 
HETATM   18  C11 UNL     1      24.112  13.292  19.178  1.00  0.00     0.000 C 
HETATM   19  C12 UNL     1      25.071  13.366  20.302  1.00  0.00     0.001 C 
HETATM   20  C13 UNL     1      24.643  12.508  21.449  1.00  0.00     0.010 C 
ENDBRANCH  14  15
ENDBRANCH   3  14
TORSDOF 6
ENDMDL
MODEL 4
REMARK VINA RESULT: -6.483196243      1.369      1.456
REMARK  6 active torsions:
REMARK  status: ('A' for Active; 'I' for Inactive)
REMARK    1  A    between atoms: C1_2  and  C2_3 
REMARK       I    between atoms: C1_2  and  N1_7 
REMARK    2  A    between atoms: C2_3  and  C3_4 
REMARK    3  A    between atoms: N1_7  and  C5_9 
REMARK    4  A    between atoms: C5_9  and  C6_10 
REMARK       I    between atoms: C6_10  and  N2_12 
REMARK    5  A    between atoms: N2_12  and  C7_14 
REMARK    6  A    between atoms: C7_14  and  C8_15 
ROOT
HETATM    1  C6  UNL     1      22.630  10.088  23.025  1.00  0.00     0.238 C 
HETATM    2  O2  UNL     1      21.499  10.406  22.642  1.00  0.00    -0.271 OA
HETATM    3  N2  UNL     1      23.694   9.857  22.156  1.00  0.00    -0.339 N 
ATOM      4  H2  UNL     1      24.572   9.586  22.599  1.00  0.00     0.167 HD
ENDROOT
BRANCH   1   5
HETATM    5  C5  UNL     1      22.836   9.952  24.491  1.00  0.00     0.225 C 
BRANCH   5   6
HETATM    6  N1  UNL     1      22.612  11.188  25.178  1.00  0.00    -0.352 N 
HETATM    7  C1  UNL     1      21.431  11.436  25.911  1.00  0.00     0.221 C 
HETATM    8  O1  UNL     1      20.540  10.566  25.987  1.00  0.00    -0.273 OA
ATOM      9  H1  UNL     1      23.329  11.913  25.136  1.00  0.00     0.162 HD
BRANCH   7  10
HETATM   10  C2  UNL     1      21.245  12.727  26.593  1.00  0.00     0.130 C 
BRANCH  10  11
HETATM   11  C3  UNL     1      21.869  12.755  27.936  1.00  0.00    -0.006 C 
HETATM   12  C4  UNL     1      21.167  12.459  29.022  1.00  0.00     0.081 C 
HETATM   13 CL1  UNL     1      19.466  12.022  28.905  1.00  0.00    -0.097 Cl
ENDBRANCH  10  11
ENDBRANCH   7  10
ENDBRANCH   5   6
ENDBRANCH   1   5
BRANCH   3  14
HETATM   14  C7  UNL     1      23.725   9.945  20.760  1.00  0.00     0.068 C 
BRANCH  14  15
HETATM   15  C8  UNL     1      23.883  11.217  20.048  1.00  0.00     0.024 C 
HETATM   16  C9  UNL     1      24.715  11.328  18.833  1.00  0.00     0.010 C 
HETATM   17  C10 UNL     1      24.897  12.806  18.452  1.00  0.00     0.001 C 
HETATM   18  C11 UNL     1      24.154  13.692  19.413  1.00  0.00     0.000 C 
HETATM   19  C12 UNL     1      22.738  13.349  19.672  1.00  0.00     0.001 C 
HETATM   20  C13 UNL     1      22.528  11.869  19.715  1.00  0.00     0.010 C 
ENDBRANCH  14  15
ENDBRANCH   3  14
TORSDOF 6
ENDMDL
MODEL 5
REMARK VINA RESULT: -6.478956714      6.393      7.915
REMARK  6 active torsions:
REMARK  status: ('A' for Active; 'I' for Inactive)
REMARK    1  A    between atoms: C1_2  and  C2_3 
REMARK       I    between atoms: C1_2  and  N1_7 
REMARK    2  A    between atoms: C2_3  and  C3_4 
REMARK    3  A    between atoms: N1_7  and  C5_9 
REMARK    4  A    between atoms: C5_9  and  C6_10 
REMARK       I    between atoms: C6_10  and  N2_12 
REMARK    5  A    between atoms: N2_12  and  C7_14 
REMARK    6  A    between atoms: C7_14  and  C8_15 
ROOT
HETATM    1  C6  UNL     1      28.413  10.229  20.724  1.00  0.00     0.238 C 
HETATM    2  O2  UNL     1      28.558   9.222  20.024  1.00  0.00    -0.271 OA
HETATM    3  N2  UNL     1      27.199  10.898  20.859  1.00  0.00    -0.339 N 
ATOM      4  H2  UNL     1      27.217  11.725  21.456  1.00  0.00     0.167 HD
ENDROOT
BRANCH   1   5
HETATM    5  C5  UNL     1      29.611  10.729  21.448  1.00  0.00     0.225 C 
BRANCH   5   6
HETATM    6  N1  UNL     1      29.778  12.143  21.292  1.00  0.00    -0.352 N 
HETATM    7  C1  UNL     1      29.275  13.067  22.234  1.00  0.00     0.221 C 
HETATM    8  O1  UNL     1      28.668  12.668  23.248  1.00  0.00    -0.273 OA
ATOM      9  H1  UNL     1      30.275  12.494  20.473  1.00  0.00     0.162 HD
BRANCH   7  10
HETATM   10  C2  UNL     1      29.464  14.512  22.023  1.00  0.00     0.130 C 
BRANCH  10  11
HETATM   11  C3  UNL     1      29.654  14.856  20.595  1.00  0.00    -0.006 C 
HETATM   12  C4  UNL     1      28.614  15.076  19.801  1.00  0.00     0.081 C 
HETATM   13 CL1  UNL     1      26.970  14.969  20.419  1.00  0.00    -0.097 Cl
ENDBRANCH  10  11
ENDBRANCH   7  10
ENDBRANCH   5   6
ENDBRANCH   1   5
BRANCH   3  14
HETATM   14  C7  UNL     1      25.958  10.593  20.289  1.00  0.00     0.068 C 
BRANCH  14  15
HETATM   15  C8  UNL     1      25.033  11.621  19.803  1.00  0.00     0.024 C 
HETATM   16  C9  UNL     1      25.221  12.276  18.492  1.00  0.00     0.010 C 
HETATM   17  C10 UNL     1      24.262  13.470  18.358  1.00  0.00     0.001 C 
HETATM   18  C11 UNL     1      23.406  13.597  19.587  1.00  0.00     0.000 C 
HETATM   19  C12 UNL     1      22.715  12.372  20.044  1.00  0.00     0.001 C 
HETATM   20  C13 UNL     1      23.566  11.156  19.857  1.00  0.00     0.010 C 
ENDBRANCH  14  15
ENDBRANCH   3  14
TORSDOF 6
ENDMDL
