MODEL 1
REMARK VINA RESULT: -6.644556026      0.000      0.000
REMARK  6 active torsions:
REMARK  status: ('A' for Active; 'I' for Inactive)
REMARK    1  A    between atoms: C1_2  and  C2_3 
REMARK       I    between atoms: C1_2  and  N2_15 
REMARK    2  A    between atoms: C2_3  and  C3_4 
REMARK    3  A    between atoms: C3_4  and  C4_5 
REMARK       I    between atoms: C4_5  and  N1_7 
REMARK    4  A    between atoms: N1_7  and  C5_9 
REMARK    5  A    between atoms: N2_15  and  C11_17 
REMARK    6  A    between atoms: C11_17  and  C12_18 
ROOT
HETATM    1  C3  UNL     1      22.924  10.163  24.285  1.00  0.00     0.112 C 
ENDROOT
BRANCH   1   2
HETATM    2  C2  UNL     1      21.510   9.739  24.509  1.00  0.00     0.112 C 
BRANCH   2   3
HETATM    3  C1  UNL     1      20.875  10.746  25.446  1.00  0.00     0.217 C 
HETATM    4  O1  UNL     1      20.550  11.843  24.974  1.00  0.00    -0.274 OA
HETATM    5  N2  UNL     1      20.700  10.376  26.774  1.00  0.00    -0.361 N 
ATOM      6  H2  UNL     1      21.011   9.428  26.985  1.00  0.00     0.162 HD
BRANCH   5   7
HETATM    7  C11 UNL     1      20.172  11.072  27.886  1.00  0.00     0.130 C 
BRANCH   7   8
HETATM    8  C12 UNL     1      21.129  11.875  28.657  1.00  0.00     0.040 A 
HETATM    9  C13 UNL     1      22.008  12.971  28.228  1.00  0.00     0.046 A 
HETATM   10  C14 UNL     1      20.844  13.291  29.120  1.00  0.00     0.176 A 
HETATM   11  F1  UNL     1      19.785  13.941  28.528  1.00  0.00    -0.249 F 
ENDBRANCH   7   8
ENDBRANCH   5   7
ENDBRANCH   2   3
ENDBRANCH   1   2
BRANCH   1  12
HETATM   12  C4  UNL     1      23.234  10.407  22.864  1.00  0.00     0.218 C 
HETATM   13  O2  UNL     1      23.348   9.438  22.087  1.00  0.00    -0.274 OA
HETATM   14  N1  UNL     1      23.405  11.714  22.359  1.00  0.00    -0.356 N 
ATOM     15  H1  UNL     1      23.311  12.504  22.998  1.00  0.00     0.162 HD
BRANCH  14  16
HETATM   16  C5  UNL     1      23.711  11.977  20.958  1.00  0.00     0.084 C 
HETATM   17  C6  UNL     1      24.757  13.041  20.891  1.00  0.00     0.025 C 
HETATM   18  C7  UNL     1      25.186  13.341  19.467  1.00  0.00     0.002 C 
HETATM   19  C8  UNL     1      23.982  13.532  18.572  1.00  0.00     0.000 C 
HETATM   20  C9  UNL     1      22.698  13.553  19.354  1.00  0.00     0.002 C 
HETATM   21  C10 UNL     1      22.476  12.403  20.263  1.00  0.00     0.025 C 
ENDBRANCH  14  16
ENDBRANCH   1  12
TORSDOF 6
ENDMDL
MODEL 2
REMARK VINA RESULT: -6.633131361      1.365      1.607
REMARK  6 active torsions:
REMARK  status: ('A' for Active; 'I' for Inactive)
REMARK    1  A    between atoms: C1_2  and  C2_3 
REMARK       I    between atoms: C1_2  and  N2_15 
REMARK    2  A    between atoms: C2_3  and  C3_4 
REMARK    3  A    between atoms: C3_4  and  C4_5 
REMARK       I    between atoms: C4_5  and  N1_7 
REMARK    4  A    between atoms: N1_7  and  C5_9 
REMARK    5  A    between atoms: N2_15  and  C11_17 
REMARK    6  A    between atoms: C11_17  and  C12_18 
ROOT
HETATM    1  C3  UNL     1      20.363   9.843  23.422  1.00  0.00     0.112 C 
ENDROOT
BRANCH   1   2
HETATM    2  C2  UNL     1      21.347   9.909  24.543  1.00  0.00     0.112 C 
BRANCH   2   3
HETATM    3  C1  UNL     1      20.834  10.927  25.541  1.00  0.00     0.217 C 
HETATM    4  O1  UNL     1      20.619  12.073  25.130  1.00  0.00    -0.274 OA
HETATM    5  N2  UNL     1      20.639  10.509  26.851  1.00  0.00    -0.361 N 
ATOM      6  H2  UNL     1      20.852   9.524  27.010  1.00  0.00     0.162 HD
BRANCH   5   7
HETATM    7  C11 UNL     1      20.201  11.198  28.006  1.00  0.00     0.130 C 
BRANCH   7   8
HETATM    8  C12 UNL     1      21.228  11.958  28.731  1.00  0.00     0.040 A 
HETATM    9  C13 UNL     1      22.160  12.987  28.250  1.00  0.00     0.046 A 
HETATM   10  C14 UNL     1      21.043  13.400  29.165  1.00  0.00     0.176 A 
HETATM   11  F1  UNL     1      20.010  14.100  28.585  1.00  0.00    -0.249 F 
ENDBRANCH   7   8
ENDBRANCH   5   7
ENDBRANCH   2   3
ENDBRANCH   1   2
BRANCH   1  12
HETATM   12  C4  UNL     1      20.994   9.971  22.095  1.00  0.00     0.218 C 
HETATM   13  O2  UNL     1      20.616   9.233  21.162  1.00  0.00    -0.274 OA
HETATM   14  N1  UNL     1      22.018  10.911  21.851  1.00  0.00    -0.356 N 
ATOM     15  H1  UNL     1      22.324  11.513  22.616  1.00  0.00     0.162 HD
BRANCH  14  16
HETATM   16  C5  UNL     1      22.655  11.055  20.547  1.00  0.00     0.084 C 
HETATM   17  C6  UNL     1      23.999  10.408  20.600  1.00  0.00     0.025 C 
HETATM   18  C7  UNL     1      24.716  10.454  19.263  1.00  0.00     0.002 C 
HETATM   19  C8  UNL     1      24.669  11.846  18.676  1.00  0.00     0.000 C 
HETATM   20  C9  UNL     1      24.090  12.844  19.640  1.00  0.00     0.002 C 
HETATM   21  C10 UNL     1      22.770  12.492  20.219  1.00  0.00     0.025 C 
ENDBRANCH  14  16
ENDBRANCH   1  12
TORSDOF 6
ENDMDL
MODEL 3
REMARK VINA RESULT: -6.592851361      4.086      7.617
REMARK  6 active torsions:
REMARK  status: ('A' for Active; 'I' for Inactive)
REMARK    1  A    between atoms: C1_2  and  C2_3 
REMARK       I    between atoms: C1_2  and  N2_15 
REMARK    2  A    between atoms: C2_3  and  C3_4 
REMARK    3  A    between atoms: C3_4  and  C4_5 
REMARK       I    between atoms: C4_5  and  N1_7 
REMARK    4  A    between atoms: N1_7  and  C5_9 
REMARK    5  A    between atoms: N2_15  and  C11_17 
REMARK    6  A    between atoms: C11_17  and  C12_18 
ROOT
HETATM    1  C3  UNL     1      22.757  13.497  19.459  1.00  0.00     0.112 C 
ENDROOT
BRANCH   1   2
HETATM    2  C2  UNL     1      23.989  13.248  18.653  1.00  0.00     0.112 C 
BRANCH   2   3
HETATM    3  C1  UNL     1      25.041  12.690  19.590  1.00  0.00     0.217 C 
HETATM    4  O1  UNL     1      25.682  13.496  20.275  1.00  0.00    -0.274 OA
HETATM    5  N2  UNL     1      25.221  11.313  19.617  1.00  0.00    -0.361 N 
ATOM      6  H2  UNL     1      24.594  10.800  18.997  1.00  0.00     0.162 HD
BRANCH   5   7
HETATM    7  C11 UNL     1      26.113  10.492  20.346  1.00  0.00     0.130 C 
BRANCH   7   8
HETATM    8  C12 UNL     1      27.508  10.494  19.889  1.00  0.00     0.040 A 
HETATM    9  C13 UNL     1      28.730  10.931  20.580  1.00  0.00     0.046 A 
HETATM   10  C14 UNL     1      28.530   9.464  20.334  1.00  0.00     0.176 A 
HETATM   11  F1  UNL     1      28.211   8.701  21.434  1.00  0.00    -0.249 F 
ENDBRANCH   7   8
ENDBRANCH   5   7
ENDBRANCH   2   3
ENDBRANCH   1   2
BRANCH   1  12
HETATM   12  C4  UNL     1      22.321  12.315  20.225  1.00  0.00     0.218 C 
HETATM   13  O2  UNL     1      22.047  11.259  19.619  1.00  0.00    -0.274 OA
HETATM   14  N1  UNL     1      22.206  12.347  21.632  1.00  0.00    -0.356 N 
ATOM     15  H1  UNL     1      22.431  13.212  22.124  1.00  0.00     0.162 HD
BRANCH  14  16
HETATM   16  C5  UNL     1      21.777  11.189  22.408  1.00  0.00     0.084 C 
HETATM   17  C6  UNL     1      21.019  11.671  23.601  1.00  0.00     0.025 C 
HETATM   18  C7  UNL     1      20.477  10.529  24.440  1.00  0.00     0.002 C 
HETATM   19  C8  UNL     1      21.553   9.500  24.706  1.00  0.00     0.000 C 
HETATM   20  C9  UNL     1      22.901   9.960  24.227  1.00  0.00     0.002 C 
HETATM   21  C10 UNL     1      22.967  10.411  22.815  1.00  0.00     0.025 C 
ENDBRANCH  14  16
ENDBRANCH   1  12
TORSDOF 6
ENDMDL
MODEL 4
REMARK VINA RESULT: -6.531723579      1.648      1.997
REMARK  6 active torsions:
REMARK  status: ('A' for Active; 'I' for Inactive)
REMARK    1  A    between atoms: C1_2  and  C2_3 
REMARK       I    between atoms: C1_2  and  N2_15 
REMARK    2  A    between atoms: C2_3  and  C3_4 
REMARK    3  A    between atoms: C3_4  and  C4_5 
REMARK       I    between atoms: C4_5  and  N1_7 
REMARK    4  A    between atoms: N1_7  and  C5_9 
REMARK    5  A    between atoms: N2_15  and  C11_17 
REMARK    6  A    between atoms: C11_17  and  C12_18 
ROOT
HETATM    1  C3  UNL     1      21.107  11.640  23.627  1.00  0.00     0.112 C 
ENDROOT
BRANCH   1   2
HETATM    2  C2  UNL     1      22.171  11.721  24.672  1.00  0.00     0.112 C 
BRANCH   2   3
HETATM    3  C1  UNL     1      21.604  12.502  25.840  1.00  0.00     0.217 C 
HETATM    4  O1  UNL     1      20.672  13.283  25.609  1.00  0.00    -0.274 OA
HETATM    5  N2  UNL     1      22.167  12.295  27.092  1.00  0.00    -0.361 N 
ATOM      6  H2  UNL     1      22.917  11.603  27.102  1.00  0.00     0.162 HD
BRANCH   5   7
HETATM    7  C11 UNL     1      21.893  12.867  28.357  1.00  0.00     0.130 C 
BRANCH   7   8
HETATM    8  C12 UNL     1      20.697  12.363  29.045  1.00  0.00     0.040 A 
HETATM    9  C13 UNL     1      20.077  12.796  30.305  1.00  0.00     0.046 A 
HETATM   10  C14 UNL     1      19.359  13.079  29.017  1.00  0.00     0.176 A 
HETATM   11  F1  UNL     1      19.359  14.389  28.596  1.00  0.00    -0.249 F 
ENDBRANCH   7   8
ENDBRANCH   5   7
ENDBRANCH   2   3
ENDBRANCH   1   2
BRANCH   1  12
HETATM   12  C4  UNL     1      21.627  11.248  22.304  1.00  0.00     0.218 C 
HETATM   13  O2  UNL     1      21.209  10.204  21.765  1.00  0.00    -0.274 OA
HETATM   14  N1  UNL     1      22.592  12.028  21.629  1.00  0.00    -0.356 N 
ATOM     15  H1  UNL     1      22.932  12.881  22.073  1.00  0.00     0.162 HD
BRANCH  14  16
HETATM   16  C5  UNL     1      23.120  11.659  20.321  1.00  0.00     0.084 C 
HETATM   17  C6  UNL     1      24.398  10.913  20.517  1.00  0.00     0.025 C 
HETATM   18  C7  UNL     1      24.993  10.432  19.207  1.00  0.00     0.002 C 
HETATM   19  C8  UNL     1      25.024  11.550  18.189  1.00  0.00     0.000 C 
HETATM   20  C9  UNL     1      24.628  12.870  18.791  1.00  0.00     0.002 C 
HETATM   21  C10 UNL     1      23.338  12.885  19.523  1.00  0.00     0.025 C 
ENDBRANCH  14  16
ENDBRANCH   1  12
TORSDOF 6
ENDMDL
MODEL 5
REMARK VINA RESULT: -6.523149703      1.658      1.878
REMARK  6 active torsions:
REMARK  status: ('A' for Active; 'I' for Inactive)
REMARK    1  A    between atoms: C1_2  and  C2_3 
REMARK       I    between atoms: C1_2  and  N2_15 
REMARK    2  A    between atoms: C2_3  and  C3_4 
REMARK    3  A    between atoms: C3_4  and  C4_5 
REMARK       I    between atoms: C4_5  and  N1_7 
REMARK    4  A    between atoms: N1_7  and  C5_9 
REMARK    5  A    between atoms: N2_15  and  C11_17 
REMARK    6  A    between atoms: C11_17  and  C12_18 
ROOT
HETATM    1  C3  UNL     1      21.033  11.650  23.137  1.00  0.00     0.112 C 
ENDROOT
BRANCH   1   2
HETATM    2  C2  UNL     1      20.737  10.472  24.006  1.00  0.00     0.112 C 
BRANCH   2   3
HETATM    3  C1  UNL     1      21.116  10.845  25.425  1.00  0.00     0.217 C 
HETATM    4  O1  UNL     1      22.199  11.417  25.597  1.00  0.00    -0.274 OA
HETATM    5  N2  UNL     1      20.225  10.520  26.440  1.00  0.00    -0.361 N 
ATOM      6  H2  UNL     1      19.372  10.064  26.114  1.00  0.00     0.162 HD
BRANCH   5   7
HETATM    7  C11 UNL     1      20.283  10.703  27.841  1.00  0.00     0.130 C 
BRANCH   7   8
HETATM    8  C12 UNL     1      20.126  12.084  28.316  1.00  0.00     0.040 A 
HETATM    9  C13 UNL     1      20.230  12.636  29.674  1.00  0.00     0.046 A 
HETATM   10  C14 UNL     1      21.299  12.977  28.676  1.00  0.00     0.176 A 
HETATM   11  F1  UNL     1      22.518  12.365  28.859  1.00  0.00    -0.249 F 
ENDBRANCH   7   8
ENDBRANCH   5   7
ENDBRANCH   2   3
ENDBRANCH   1   2
BRANCH   1  12
HETATM   12  C4  UNL     1      21.677  11.280  21.863  1.00  0.00     0.218 C 
HETATM   13  O2  UNL     1      21.388  10.192  21.324  1.00  0.00    -0.274 OA
HETATM   14  N1  UNL     1      22.614  12.128  21.235  1.00  0.00    -0.356 N 
ATOM     15  H1  UNL     1      22.848  13.017  21.679  1.00  0.00     0.162 HD
BRANCH  14  16
HETATM   16  C5  UNL     1      23.262  11.781  19.976  1.00  0.00     0.084 C 
HETATM   17  C6  UNL     1      24.550  11.089  20.278  1.00  0.00     0.025 C 
HETATM   18  C7  UNL     1      25.269  10.633  19.022  1.00  0.00     0.002 C 
HETATM   19  C8  UNL     1      25.336  11.751  18.006  1.00  0.00     0.000 C 
HETATM   20  C9  UNL     1      24.839  13.054  18.569  1.00  0.00     0.002 C 
HETATM   21  C10 UNL     1      23.494  13.015  19.194  1.00  0.00     0.025 C 
ENDBRANCH  14  16
ENDBRANCH   1  12
TORSDOF 6
ENDMDL
