MODEL 1
REMARK VINA RESULT: -7.388875793      0.000      0.000
REMARK  16 active torsions:
REMARK  status: ('A' for Active; 'I' for Inactive)
REMARK    1  A    between atoms: C1_2  and  C2_4 
REMARK    2  A    between atoms: C2_4  and  C3_5 
REMARK    3  A    between atoms: C3_5  and  C4_6 
REMARK    4  A    between atoms: C4_6  and  C5_7 
REMARK    5  A    between atoms: C6_8  and  C7_9 
REMARK    6  A    between atoms: C7_9  and  C8_10 
REMARK    7  A    between atoms: C9_11  and  C10_12 
REMARK    8  A    between atoms: C10_12  and  C11_13 
REMARK    9  A    between atoms: C12_14  and  C13_15 
REMARK   10  A    between atoms: C13_15  and  C14_16 
REMARK   11  A    between atoms: C15_17  and  C16_18 
REMARK   12  A    between atoms: C16_18  and  C17_19 
REMARK   13  A    between atoms: C17_19  and  C18_20 
REMARK   14  A    between atoms: C18_20  and  O3_21 
REMARK   15  A    between atoms: O3_21  and  C19_22 
REMARK   16  A    between atoms: C19_22  and  C20_23 
ROOT
HETATM    1  C11 UNL     1      -3.230  18.452  10.410  1.00  0.00    -0.027 C 
HETATM    2  C12 UNL     1      -3.522  19.684  10.742  1.00  0.00    -0.027 C 
ENDROOT
BRANCH   1   3
HETATM    3  C10 UNL     1      -2.008  17.735  10.825  1.00  0.00     0.053 C 
BRANCH   3   4
HETATM    4  C9  UNL     1      -2.425  16.413  11.396  1.00  0.00    -0.027 C 
HETATM    5  C8  UNL     1      -2.198  16.088  12.649  1.00  0.00    -0.027 C 
BRANCH   5   6
HETATM    6  C7  UNL     1      -2.653  14.740  13.134  1.00  0.00     0.053 C 
BRANCH   6   7
HETATM    7  C6  UNL     1      -1.712  13.760  12.570  1.00  0.00    -0.027 C 
HETATM    8  C5  UNL     1      -2.066  12.693  11.926  1.00  0.00    -0.030 C 
BRANCH   8   9
HETATM    9  C4  UNL     1      -3.448  12.286  11.656  1.00  0.00     0.027 C 
BRANCH   9  10
HETATM   10  C3  UNL     1      -3.793  12.433  10.176  1.00  0.00     0.014 C 
BRANCH  10  11
HETATM   11  C2  UNL     1      -4.429  13.777   9.907  1.00  0.00     0.113 C 
BRANCH  11  12
HETATM   12  C1  UNL     1      -5.749  13.528   9.255  1.00  0.00     0.172 C 
HETATM   13  O1  UNL     1      -6.029  12.414   8.738  1.00  0.00    -0.648 OA
HETATM   14  O2  UNL     1      -6.729  14.507   9.187  1.00  0.00    -0.648 OA
ENDBRANCH  11  12
ENDBRANCH  10  11
ENDBRANCH   9  10
ENDBRANCH   8   9
ENDBRANCH   6   7
ENDBRANCH   5   6
ENDBRANCH   3   4
ENDBRANCH   1   3
BRANCH   2  15
HETATM   15  C13 UNL     1      -2.717  20.599  11.577  1.00  0.00     0.053 C 
BRANCH  15  16
HETATM   16  C14 UNL     1      -3.321  20.825  12.906  1.00  0.00    -0.027 C 
HETATM   17  C15 UNL     1      -2.947  20.273  14.028  1.00  0.00    -0.030 C 
BRANCH  17  18
HETATM   18  C16 UNL     1      -1.843  19.321  14.137  1.00  0.00     0.029 C 
BRANCH  18  19
HETATM   19  C17 UNL     1      -0.532  20.063  14.247  1.00  0.00     0.030 C 
BRANCH  19  20
HETATM   20  C18 UNL     1       0.489  19.479  13.336  1.00  0.00     0.168 C 
BRANCH  20  21
HETATM   21  O3  UNL     1       0.683  20.300  12.266  1.00  0.00    -0.381 OA
BRANCH  21  22
HETATM   22  C19 UNL     1       0.666  21.643  12.466  1.00  0.00     0.280 C 
BRANCH  22  23
HETATM   23  C20 UNL     1       1.950  22.350  12.342  1.00  0.00     0.197 C 
HETATM   24  O4  UNL     1       2.886  22.075  13.121  1.00  0.00    -0.646 OA
HETATM   25  O5  UNL     1       2.152  23.307  11.389  1.00  0.00    -0.646 OA
ENDBRANCH  22  23
ENDBRANCH  21  22
ENDBRANCH  20  21
ENDBRANCH  19  20
ENDBRANCH  18  19
ENDBRANCH  17  18
ENDBRANCH  15  16
ENDBRANCH   2  15
TORSDOF 16
ENDMDL
MODEL 2
REMARK VINA RESULT: -7.343401388      1.520      8.028
REMARK  16 active torsions:
REMARK  status: ('A' for Active; 'I' for Inactive)
REMARK    1  A    between atoms: C1_2  and  C2_4 
REMARK    2  A    between atoms: C2_4  and  C3_5 
REMARK    3  A    between atoms: C3_5  and  C4_6 
REMARK    4  A    between atoms: C4_6  and  C5_7 
REMARK    5  A    between atoms: C6_8  and  C7_9 
REMARK    6  A    between atoms: C7_9  and  C8_10 
REMARK    7  A    between atoms: C9_11  and  C10_12 
REMARK    8  A    between atoms: C10_12  and  C11_13 
REMARK    9  A    between atoms: C12_14  and  C13_15 
REMARK   10  A    between atoms: C13_15  and  C14_16 
REMARK   11  A    between atoms: C15_17  and  C16_18 
REMARK   12  A    between atoms: C16_18  and  C17_19 
REMARK   13  A    between atoms: C17_19  and  C18_20 
REMARK   14  A    between atoms: C18_20  and  O3_21 
REMARK   15  A    between atoms: O3_21  and  C19_22 
REMARK   16  A    between atoms: C19_22  and  C20_23 
ROOT
HETATM    1  C11 UNL     1      -2.069  18.731   9.681  1.00  0.00    -0.027 C 
HETATM    2  C12 UNL     1      -1.739  17.531  10.086  1.00  0.00    -0.027 C 
ENDROOT
BRANCH   1   3
HETATM    3  C10 UNL     1      -3.418  19.320   9.802  1.00  0.00     0.053 C 
BRANCH   3   4
HETATM    4  C9  UNL     1      -3.588  19.786  11.217  1.00  0.00    -0.027 C 
HETATM    5  C8  UNL     1      -2.799  20.689  11.756  1.00  0.00    -0.027 C 
BRANCH   5   6
HETATM    6  C7  UNL     1      -3.046  21.096  13.181  1.00  0.00     0.053 C 
BRANCH   6   7
HETATM    7  C6  UNL     1      -2.885  19.880  13.992  1.00  0.00    -0.027 C 
HETATM    8  C5  UNL     1      -1.743  19.381  14.345  1.00  0.00    -0.030 C 
BRANCH   8   9
HETATM    9  C4  UNL     1      -0.431  19.939  13.998  1.00  0.00     0.027 C 
BRANCH   9  10
HETATM   10  C3  UNL     1       0.237  19.141  12.883  1.00  0.00     0.014 C 
BRANCH  10  11
HETATM   11  C2  UNL     1       0.872  20.067  11.871  1.00  0.00     0.113 C 
BRANCH  11  12
HETATM   12  C1  UNL     1       2.304  20.242  12.257  1.00  0.00     0.172 C 
HETATM   13  O1  UNL     1       2.747  21.349  12.662  1.00  0.00    -0.648 OA
HETATM   14  O2  UNL     1       3.214  19.197  12.190  1.00  0.00    -0.648 OA
ENDBRANCH  11  12
ENDBRANCH  10  11
ENDBRANCH   9  10
ENDBRANCH   8   9
ENDBRANCH   6   7
ENDBRANCH   5   6
ENDBRANCH   3   4
ENDBRANCH   1   3
BRANCH   2  15
HETATM   15  C13 UNL     1      -2.617  16.532  10.731  1.00  0.00     0.053 C 
BRANCH  15  16
HETATM   16  C14 UNL     1      -2.374  16.425  12.184  1.00  0.00    -0.027 C 
HETATM   17  C15 UNL     1      -1.659  15.513  12.783  1.00  0.00    -0.030 C 
BRANCH  17  18
HETATM   18  C16 UNL     1      -0.972  14.429  12.081  1.00  0.00     0.029 C 
BRANCH  18  19
HETATM   19  C17 UNL     1      -1.169  13.129  12.825  1.00  0.00     0.030 C 
BRANCH  19  20
HETATM   20  C18 UNL     1      -2.039  12.200  12.054  1.00  0.00     0.168 C 
BRANCH  20  21
HETATM   21  O3  UNL     1      -2.647  12.869  11.034  1.00  0.00    -0.381 OA
BRANCH  21  22
HETATM   22  C19 UNL     1      -3.915  12.523  10.695  1.00  0.00     0.280 C 
BRANCH  22  23
HETATM   23  C20 UNL     1      -4.984  13.460  11.072  1.00  0.00     0.197 C 
HETATM   24  O4  UNL     1      -5.125  13.790  12.269  1.00  0.00    -0.646 OA
HETATM   25  O5  UNL     1      -5.835  13.988  10.145  1.00  0.00    -0.646 OA
ENDBRANCH  22  23
ENDBRANCH  21  22
ENDBRANCH  20  21
ENDBRANCH  19  20
ENDBRANCH  18  19
ENDBRANCH  17  18
ENDBRANCH  15  16
ENDBRANCH   2  15
TORSDOF 16
ENDMDL
MODEL 3
REMARK VINA RESULT: -7.137138244      1.333      1.681
REMARK  16 active torsions:
REMARK  status: ('A' for Active; 'I' for Inactive)
REMARK    1  A    between atoms: C1_2  and  C2_4 
REMARK    2  A    between atoms: C2_4  and  C3_5 
REMARK    3  A    between atoms: C3_5  and  C4_6 
REMARK    4  A    between atoms: C4_6  and  C5_7 
REMARK    5  A    between atoms: C6_8  and  C7_9 
REMARK    6  A    between atoms: C7_9  and  C8_10 
REMARK    7  A    between atoms: C9_11  and  C10_12 
REMARK    8  A    between atoms: C10_12  and  C11_13 
REMARK    9  A    between atoms: C12_14  and  C13_15 
REMARK   10  A    between atoms: C13_15  and  C14_16 
REMARK   11  A    between atoms: C15_17  and  C16_18 
REMARK   12  A    between atoms: C16_18  and  C17_19 
REMARK   13  A    between atoms: C17_19  and  C18_20 
REMARK   14  A    between atoms: C18_20  and  O3_21 
REMARK   15  A    between atoms: O3_21  and  C19_22 
REMARK   16  A    between atoms: C19_22  and  C20_23 
ROOT
HETATM    1  C11 UNL     1      -3.249  18.554  10.474  1.00  0.00    -0.027 C 
HETATM    2  C12 UNL     1      -3.535  19.761  10.891  1.00  0.00    -0.027 C 
ENDROOT
BRANCH   1   3
HETATM    3  C10 UNL     1      -2.005  17.826  10.795  1.00  0.00     0.053 C 
BRANCH   3   4
HETATM    4  C9  UNL     1      -2.389  16.482  11.339  1.00  0.00    -0.027 C 
HETATM    5  C8  UNL     1      -2.309  16.196  12.619  1.00  0.00    -0.027 C 
BRANCH   5   6
HETATM    6  C7  UNL     1      -2.717  14.823  13.073  1.00  0.00     0.053 C 
BRANCH   6   7
HETATM    7  C6  UNL     1      -1.647  13.911  12.640  1.00  0.00    -0.027 C 
HETATM    8  C5  UNL     1      -1.847  12.779  12.044  1.00  0.00    -0.030 C 
BRANCH   8   9
HETATM    9  C4  UNL     1      -3.161  12.220  11.705  1.00  0.00     0.027 C 
BRANCH   9  10
HETATM   10  C3  UNL     1      -3.701  12.815  10.408  1.00  0.00     0.014 C 
BRANCH  10  11
HETATM   11  C2  UNL     1      -5.131  13.271  10.586  1.00  0.00     0.113 C 
BRANCH  11  12
HETATM   12  C1  UNL     1      -5.431  14.246   9.495  1.00  0.00     0.172 C 
HETATM   13  O1  UNL     1      -4.513  14.840   8.871  1.00  0.00    -0.648 OA
HETATM   14  O2  UNL     1      -6.732  14.544   9.116  1.00  0.00    -0.648 OA
ENDBRANCH  11  12
ENDBRANCH  10  11
ENDBRANCH   9  10
ENDBRANCH   8   9
ENDBRANCH   6   7
ENDBRANCH   5   6
ENDBRANCH   3   4
ENDBRANCH   1   3
BRANCH   2  15
HETATM   15  C13 UNL     1      -2.703  20.634  11.745  1.00  0.00     0.053 C 
BRANCH  15  16
HETATM   16  C14 UNL     1      -3.256  20.780  13.107  1.00  0.00    -0.027 C 
HETATM   17  C15 UNL     1      -2.809  20.202  14.188  1.00  0.00    -0.030 C 
BRANCH  17  18
HETATM   18  C16 UNL     1      -1.661  19.297  14.211  1.00  0.00     0.029 C 
BRANCH  18  19
HETATM   19  C17 UNL     1      -0.406  20.066  14.547  1.00  0.00     0.030 C 
BRANCH  19  20
HETATM   20  C18 UNL     1       0.550  20.052  13.407  1.00  0.00     0.168 C 
BRANCH  20  21
HETATM   21  O3  UNL     1       1.767  19.603  13.824  1.00  0.00    -0.381 OA
BRANCH  21  22
HETATM   22  C19 UNL     1       2.422  18.694  13.057  1.00  0.00     0.280 C 
BRANCH  22  23
HETATM   23  C20 UNL     1       2.749  19.097  11.680  1.00  0.00     0.197 C 
HETATM   24  O4  UNL     1       2.174  18.543  10.720  1.00  0.00    -0.646 OA
HETATM   25  O5  UNL     1       3.670  20.069  11.418  1.00  0.00    -0.646 OA
ENDBRANCH  22  23
ENDBRANCH  21  22
ENDBRANCH  20  21
ENDBRANCH  19  20
ENDBRANCH  18  19
ENDBRANCH  17  18
ENDBRANCH  15  16
ENDBRANCH   2  15
TORSDOF 16
ENDMDL
MODEL 4
REMARK VINA RESULT: -7.111578477      2.926      6.233
REMARK  16 active torsions:
REMARK  status: ('A' for Active; 'I' for Inactive)
REMARK    1  A    between atoms: C1_2  and  C2_4 
REMARK    2  A    between atoms: C2_4  and  C3_5 
REMARK    3  A    between atoms: C3_5  and  C4_6 
REMARK    4  A    between atoms: C4_6  and  C5_7 
REMARK    5  A    between atoms: C6_8  and  C7_9 
REMARK    6  A    between atoms: C7_9  and  C8_10 
REMARK    7  A    between atoms: C9_11  and  C10_12 
REMARK    8  A    between atoms: C10_12  and  C11_13 
REMARK    9  A    between atoms: C12_14  and  C13_15 
REMARK   10  A    between atoms: C13_15  and  C14_16 
REMARK   11  A    between atoms: C15_17  and  C16_18 
REMARK   12  A    between atoms: C16_18  and  C17_19 
REMARK   13  A    between atoms: C17_19  and  C18_20 
REMARK   14  A    between atoms: C18_20  and  O3_21 
REMARK   15  A    between atoms: O3_21  and  C19_22 
REMARK   16  A    between atoms: C19_22  and  C20_23 
ROOT
HETATM    1  C11 UNL     1      -4.507  12.695   9.492  1.00  0.00    -0.027 C 
HETATM    2  C12 UNL     1      -3.755  12.092  10.378  1.00  0.00    -0.027 C 
ENDROOT
BRANCH   1   3
HETATM    3  C10 UNL     1      -5.203  13.979   9.713  1.00  0.00     0.053 C 
BRANCH   3   4
HETATM    4  C9  UNL     1      -4.386  15.059   9.070  1.00  0.00    -0.027 C 
HETATM    5  C8  UNL     1      -3.586  15.839   9.763  1.00  0.00    -0.027 C 
BRANCH   5   6
HETATM    6  C7  UNL     1      -2.804  16.894   9.032  1.00  0.00     0.053 C 
BRANCH   6   7
HETATM    7  C6  UNL     1      -3.705  18.048   8.887  1.00  0.00    -0.027 C 
HETATM    8  C5  UNL     1      -3.622  19.134   9.588  1.00  0.00    -0.030 C 
BRANCH   8   9
HETATM    9  C4  UNL     1      -2.626  19.393  10.633  1.00  0.00     0.027 C 
BRANCH   9  10
HETATM   10  C3  UNL     1      -3.251  20.097  11.834  1.00  0.00     0.014 C 
BRANCH  10  11
HETATM   11  C2  UNL     1      -2.181  20.710  12.708  1.00  0.00     0.113 C 
BRANCH  11  12
HETATM   12  C1  UNL     1      -2.466  20.308  14.118  1.00  0.00     0.172 C 
HETATM   13  O1  UNL     1      -1.676  19.572  14.766  1.00  0.00    -0.648 OA
HETATM   14  O2  UNL     1      -3.610  20.725  14.782  1.00  0.00    -0.648 OA
ENDBRANCH  11  12
ENDBRANCH  10  11
ENDBRANCH   9  10
ENDBRANCH   8   9
ENDBRANCH   6   7
ENDBRANCH   5   6
ENDBRANCH   3   4
ENDBRANCH   1   3
BRANCH   2  15
HETATM   15  C13 UNL     1      -3.449  12.548  11.750  1.00  0.00     0.053 C 
BRANCH  15  16
HETATM   16  C14 UNL     1      -2.061  13.037  11.883  1.00  0.00    -0.027 C 
HETATM   17  C15 UNL     1      -1.680  14.119  12.507  1.00  0.00    -0.030 C 
BRANCH  17  18
HETATM   18  C16 UNL     1      -2.598  15.032  13.184  1.00  0.00     0.029 C 
BRANCH  18  19
HETATM   19  C17 UNL     1      -2.069  16.445  13.109  1.00  0.00     0.030 C 
BRANCH  19  20
HETATM   20  C18 UNL     1      -0.737  16.480  12.445  1.00  0.00     0.168 C 
BRANCH  20  21
HETATM   21  O3  UNL     1      -0.201  17.729  12.542  1.00  0.00    -0.381 OA
BRANCH  21  22
HETATM   22  C19 UNL     1       1.006  17.965  11.966  1.00  0.00     0.280 C 
BRANCH  22  23
HETATM   23  C20 UNL     1       1.935  18.837  12.700  1.00  0.00     0.197 C 
HETATM   24  O4  UNL     1       3.147  18.843  12.398  1.00  0.00    -0.646 OA
HETATM   25  O5  UNL     1       1.509  19.649  13.711  1.00  0.00    -0.646 OA
ENDBRANCH  22  23
ENDBRANCH  21  22
ENDBRANCH  20  21
ENDBRANCH  19  20
ENDBRANCH  18  19
ENDBRANCH  17  18
ENDBRANCH  15  16
ENDBRANCH   2  15
TORSDOF 16
ENDMDL
MODEL 5
REMARK VINA RESULT: -7.017047008      2.563      7.198
REMARK  16 active torsions:
REMARK  status: ('A' for Active; 'I' for Inactive)
REMARK    1  A    between atoms: C1_2  and  C2_4 
REMARK    2  A    between atoms: C2_4  and  C3_5 
REMARK    3  A    between atoms: C3_5  and  C4_6 
REMARK    4  A    between atoms: C4_6  and  C5_7 
REMARK    5  A    between atoms: C6_8  and  C7_9 
REMARK    6  A    between atoms: C7_9  and  C8_10 
REMARK    7  A    between atoms: C9_11  and  C10_12 
REMARK    8  A    between atoms: C10_12  and  C11_13 
REMARK    9  A    between atoms: C12_14  and  C13_15 
REMARK   10  A    between atoms: C13_15  and  C14_16 
REMARK   11  A    between atoms: C15_17  and  C16_18 
REMARK   12  A    between atoms: C16_18  and  C17_19 
REMARK   13  A    between atoms: C17_19  and  C18_20 
REMARK   14  A    between atoms: C18_20  and  O3_21 
REMARK   15  A    between atoms: O3_21  and  C19_22 
REMARK   16  A    between atoms: C19_22  and  C20_23 
ROOT
HETATM    1  C11 UNL     1      -5.395  14.410   9.055  1.00  0.00    -0.027 C 
HETATM    2  C12 UNL     1      -5.401  13.188   9.523  1.00  0.00    -0.027 C 
ENDROOT
BRANCH   1   3
HETATM    3  C10 UNL     1      -4.263  15.033   8.339  1.00  0.00     0.053 C 
BRANCH   3   4
HETATM    4  C9  UNL     1      -3.929  16.316   9.039  1.00  0.00    -0.027 C 
HETATM    5  C8  UNL     1      -3.981  17.480   8.430  1.00  0.00    -0.027 C 
BRANCH   5   6
HETATM    6  C7  UNL     1      -3.630  18.714   9.212  1.00  0.00     0.053 C 
BRANCH   6   7
HETATM    7  C6  UNL     1      -2.995  18.247  10.454  1.00  0.00    -0.027 C 
HETATM    8  C5  UNL     1      -2.889  18.956  11.533  1.00  0.00    -0.030 C 
BRANCH   8   9
HETATM    9  C4  UNL     1      -3.380  20.329  11.697  1.00  0.00     0.027 C 
BRANCH   9  10
HETATM   10  C3  UNL     1      -3.121  20.848  13.108  1.00  0.00     0.014 C 
BRANCH  10  11
HETATM   11  C2  UNL     1      -2.476  19.780  13.960  1.00  0.00     0.113 C 
BRANCH  11  12
HETATM   12  C1  UNL     1      -1.050  20.172  14.170  1.00  0.00     0.172 C 
HETATM   13  O1  UNL     1      -0.405  19.794  15.183  1.00  0.00    -0.648 OA
HETATM   14  O2  UNL     1      -0.368  20.969  13.263  1.00  0.00    -0.648 OA
ENDBRANCH  11  12
ENDBRANCH  10  11
ENDBRANCH   9  10
ENDBRANCH   8   9
ENDBRANCH   6   7
ENDBRANCH   5   6
ENDBRANCH   3   4
ENDBRANCH   1   3
BRANCH   2  15
HETATM   15  C13 UNL     1      -4.309  12.195   9.443  1.00  0.00     0.053 C 
BRANCH  15  16
HETATM   16  C14 UNL     1      -3.936  11.662  10.769  1.00  0.00    -0.027 C 
HETATM   17  C15 UNL     1      -3.122  12.219  11.624  1.00  0.00    -0.030 C 
BRANCH  17  18
HETATM   18  C16 UNL     1      -2.440  13.490  11.387  1.00  0.00     0.029 C 
BRANCH  18  19
HETATM   19  C17 UNL     1      -3.138  14.598  12.140  1.00  0.00     0.030 C 
BRANCH  19  20
HETATM   20  C18 UNL     1      -2.161  15.421  12.903  1.00  0.00     0.168 C 
BRANCH  20  21
HETATM   21  O3  UNL     1      -0.889  15.049  12.586  1.00  0.00    -0.381 OA
BRANCH  21  22
HETATM   22  C19 UNL     1      -0.003  16.011  12.221  1.00  0.00     0.280 C 
BRANCH  22  23
HETATM   23  C20 UNL     1       0.516  15.951  10.846  1.00  0.00     0.197 C 
HETATM   24  O4  UNL     1       1.743  15.822  10.652  1.00  0.00    -0.646 OA
HETATM   25  O5  UNL     1      -0.311  16.029   9.763  1.00  0.00    -0.646 OA
ENDBRANCH  22  23
ENDBRANCH  21  22
ENDBRANCH  20  21
ENDBRANCH  19  20
ENDBRANCH  18  19
ENDBRANCH  17  18
ENDBRANCH  15  16
ENDBRANCH   2  15
TORSDOF 16
ENDMDL
