MODEL 1
REMARK VINA RESULT: -6.742018810      0.000      0.000
REMARK  16 active torsions:
REMARK  status: ('A' for Active; 'I' for Inactive)
REMARK    1  A    between atoms: C2_2  and  C3_3 
REMARK    2  A    between atoms: C3_3  and  C4_4 
REMARK    3  A    between atoms: C4_4  and  C5_5 
REMARK    4  A    between atoms: C8_8  and  O1_9 
REMARK    5  A    between atoms: O1_9  and  C9_10 
REMARK    6  A    between atoms: C9_10  and  C10_11 
REMARK    7  A    between atoms: C10_11  and  S1_12 
REMARK    8  A    between atoms: S1_12  and  C11_13 
REMARK    9  A    between atoms: C11_13  and  C12_14 
REMARK   10  A    between atoms: C12_14  and  N1_15 
REMARK   11  A    between atoms: N1_15  and  C13_18 
REMARK   12  A    between atoms: C13_18  and  C14_19 
REMARK   13  A    between atoms: C14_19  and  C15_20 
REMARK   14  A    between atoms: C15_20  and  N2_21 
REMARK   15  A    between atoms: N2_21  and  C16_24 
REMARK   16  A    between atoms: C16_24  and  C17_25 
ROOT
HETATM    1  C11 UNL     1      -1.414  15.820   8.797  1.00  0.00     0.101 C 
ENDROOT
BRANCH   1   2
HETATM    2  S1  UNL     1      -1.109  17.328   7.792  1.00  0.00    -0.165 SA
BRANCH   2   3
HETATM    3  C10 UNL     1      -2.759  17.847   7.149  1.00  0.00     0.100 C 
BRANCH   3   4
HETATM    4  C9  UNL     1      -3.153  19.019   8.014  1.00  0.00     0.186 C 
BRANCH   4   5
HETATM    5  O1  UNL     1      -3.749  18.508   9.171  1.00  0.00    -0.350 OA
BRANCH   5   6
HETATM    6  C8  UNL     1      -3.349  18.919  10.431  1.00  0.00     0.068 A 
HETATM    7  C7  UNL     1      -3.542  20.174  10.953  1.00  0.00     0.037 A 
HETATM    8  C6  UNL     1      -3.122  20.499  12.227  1.00  0.00     0.010 A 
HETATM    9  C5  UNL     1      -2.483  19.599  13.063  1.00  0.00    -0.058 A 
HETATM   10  C21 UNL     1      -2.290  18.324  12.518  1.00  0.00     0.010 A 
HETATM   11  C20 UNL     1      -2.699  17.989  11.262  1.00  0.00     0.037 A 
BRANCH   9  12
HETATM   12  C4  UNL     1      -2.040  19.907  14.417  1.00  0.00     0.038 C 
BRANCH  12  13
HETATM   13  C3  UNL     1      -0.597  19.964  14.676  1.00  0.00     0.004 C 
BRANCH  13  14
HETATM   14  C2  UNL     1       0.274  20.418  13.589  1.00  0.00    -0.004 C 
HETATM   15  C1  UNL     1       1.731  20.133  13.656  1.00  0.00     0.005 C 
ENDBRANCH  13  14
ENDBRANCH  12  13
ENDBRANCH   9  12
ENDBRANCH   5   6
ENDBRANCH   4   5
ENDBRANCH   3   4
ENDBRANCH   2   3
ENDBRANCH   1   2
BRANCH   1  16
HETATM   16  C12 UNL     1      -2.710  15.232   8.335  1.00  0.00     0.242 C 
BRANCH  16  17
HETATM   17  N1  UNL     1      -3.779  15.374   9.290  1.00  0.00    -0.074 N 
ATOM     18  H12 UNL     1      -3.633  14.802  10.122  1.00  0.00     0.277 HD
ATOM     19  H11 UNL     1      -3.777  16.288   9.741  1.00  0.00     0.277 HD
BRANCH  17  20
HETATM   20  C13 UNL     1      -5.021  15.089   8.653  1.00  0.00     0.234 C 
BRANCH  20  21
HETATM   21  C14 UNL     1      -5.793  13.932   9.176  1.00  0.00     0.055 C 
BRANCH  21  22
HETATM   22  C15 UNL     1      -5.054  12.645   9.312  1.00  0.00     0.233 C 
BRANCH  22  23
HETATM   23  N2  UNL     1      -5.355  12.139  10.664  1.00  0.00    -0.075 N 
ATOM     24  H22 UNL     1      -6.324  12.330  10.920  1.00  0.00     0.277 HD
ATOM     25  H21 UNL     1      -5.381  11.120  10.677  1.00  0.00     0.277 HD
BRANCH  23  26
HETATM   26  C16 UNL     1      -4.452  12.644  11.653  1.00  0.00     0.237 C 
BRANCH  26  27
HETATM   27  C17 UNL     1      -3.026  12.478  11.149  1.00  0.00     0.011 A 
HETATM   28  C18 UNL     1      -2.071  11.920  12.194  1.00  0.00     0.007 A 
HETATM   29  C19 UNL     1      -1.986  13.354  11.768  1.00  0.00     0.007 A 
ENDBRANCH  26  27
ENDBRANCH  23  26
ENDBRANCH  22  23
ENDBRANCH  21  22
ENDBRANCH  20  21
ENDBRANCH  17  20
ENDBRANCH  16  17
ENDBRANCH   1  16
TORSDOF 16
ENDMDL
MODEL 2
REMARK VINA RESULT: -6.710826441      1.429      1.982
REMARK  16 active torsions:
REMARK  status: ('A' for Active; 'I' for Inactive)
REMARK    1  A    between atoms: C2_2  and  C3_3 
REMARK    2  A    between atoms: C3_3  and  C4_4 
REMARK    3  A    between atoms: C4_4  and  C5_5 
REMARK    4  A    between atoms: C8_8  and  O1_9 
REMARK    5  A    between atoms: O1_9  and  C9_10 
REMARK    6  A    between atoms: C9_10  and  C10_11 
REMARK    7  A    between atoms: C10_11  and  S1_12 
REMARK    8  A    between atoms: S1_12  and  C11_13 
REMARK    9  A    between atoms: C11_13  and  C12_14 
REMARK   10  A    between atoms: C12_14  and  N1_15 
REMARK   11  A    between atoms: N1_15  and  C13_18 
REMARK   12  A    between atoms: C13_18  and  C14_19 
REMARK   13  A    between atoms: C14_19  and  C15_20 
REMARK   14  A    between atoms: C15_20  and  N2_21 
REMARK   15  A    between atoms: N2_21  and  C16_24 
REMARK   16  A    between atoms: C16_24  and  C17_25 
ROOT
HETATM    1  C11 UNL     1      -4.890  15.182   8.715  1.00  0.00     0.101 C 
ENDROOT
BRANCH   1   2
HETATM    2  S1  UNL     1      -5.160  16.677   7.680  1.00  0.00    -0.165 SA
BRANCH   2   3
HETATM    3  C10 UNL     1      -3.504  17.125   7.002  1.00  0.00     0.100 C 
BRANCH   3   4
HETATM    4  C9  UNL     1      -2.731  17.639   8.193  1.00  0.00     0.186 C 
BRANCH   4   5
HETATM    5  O1  UNL     1      -3.609  18.404   8.967  1.00  0.00    -0.350 OA
BRANCH   5   6
HETATM    6  C8  UNL     1      -3.277  18.809  10.248  1.00  0.00     0.068 A 
HETATM    7  C7  UNL     1      -3.516  20.056  10.772  1.00  0.00     0.037 A 
HETATM    8  C6  UNL     1      -3.161  20.375  12.067  1.00  0.00     0.010 A 
HETATM    9  C5  UNL     1      -2.548  19.477  12.924  1.00  0.00    -0.058 A 
HETATM   10  C21 UNL     1      -2.307  18.212  12.377  1.00  0.00     0.010 A 
HETATM   11  C20 UNL     1      -2.651  17.882  11.101  1.00  0.00     0.037 A 
BRANCH   9  12
HETATM   12  C4  UNL     1      -2.175  19.780  14.301  1.00  0.00     0.038 C 
BRANCH  12  13
HETATM   13  C3  UNL     1      -0.747  19.852  14.631  1.00  0.00     0.004 C 
BRANCH  13  14
HETATM   14  C2  UNL     1       0.160  20.397  13.618  1.00  0.00    -0.004 C 
HETATM   15  C1  UNL     1       1.601  20.033  13.658  1.00  0.00     0.005 C 
ENDBRANCH  13  14
ENDBRANCH  12  13
ENDBRANCH   9  12
ENDBRANCH   5   6
ENDBRANCH   4   5
ENDBRANCH   3   4
ENDBRANCH   2   3
ENDBRANCH   1   2
BRANCH   1  16
HETATM   16  C12 UNL     1      -6.197  14.459   8.802  1.00  0.00     0.242 C 
BRANCH  16  17
HETATM   17  N1  UNL     1      -6.061  13.026   8.860  1.00  0.00    -0.074 N 
ATOM     18  H12 UNL     1      -6.676  12.607   9.557  1.00  0.00     0.277 HD
ATOM     19  H11 UNL     1      -6.445  12.567   8.033  1.00  0.00     0.277 HD
BRANCH  17  20
HETATM   20  C13 UNL     1      -4.694  12.691   9.077  1.00  0.00     0.234 C 
BRANCH  20  21
HETATM   21  C14 UNL     1      -4.410  11.685  10.132  1.00  0.00     0.055 C 
BRANCH  21  22
HETATM   22  C15 UNL     1      -3.553  12.133  11.266  1.00  0.00     0.233 C 
BRANCH  22  23
HETATM   23  N2  UNL     1      -4.149  13.388  11.762  1.00  0.00    -0.075 N 
ATOM     24  H22 UNL     1      -4.759  13.807  11.059  1.00  0.00     0.277 HD
ATOM     25  H21 UNL     1      -4.840  13.204  12.489  1.00  0.00     0.277 HD
BRANCH  23  26
HETATM   26  C16 UNL     1      -3.164  14.323  12.212  1.00  0.00     0.237 C 
BRANCH  26  27
HETATM   27  C17 UNL     1      -1.800  13.891  11.694  1.00  0.00     0.011 A 
HETATM   28  C18 UNL     1      -0.830  13.487  12.794  1.00  0.00     0.007 A 
HETATM   29  C19 UNL     1      -0.640  14.767  12.038  1.00  0.00     0.007 A 
ENDBRANCH  26  27
ENDBRANCH  23  26
ENDBRANCH  22  23
ENDBRANCH  21  22
ENDBRANCH  20  21
ENDBRANCH  17  20
ENDBRANCH  16  17
ENDBRANCH   1  16
TORSDOF 16
ENDMDL
MODEL 3
REMARK VINA RESULT: -6.675141488      2.262      4.985
REMARK  16 active torsions:
REMARK  status: ('A' for Active; 'I' for Inactive)
REMARK    1  A    between atoms: C2_2  and  C3_3 
REMARK    2  A    between atoms: C3_3  and  C4_4 
REMARK    3  A    between atoms: C4_4  and  C5_5 
REMARK    4  A    between atoms: C8_8  and  O1_9 
REMARK    5  A    between atoms: O1_9  and  C9_10 
REMARK    6  A    between atoms: C9_10  and  C10_11 
REMARK    7  A    between atoms: C10_11  and  S1_12 
REMARK    8  A    between atoms: S1_12  and  C11_13 
REMARK    9  A    between atoms: C11_13  and  C12_14 
REMARK   10  A    between atoms: C12_14  and  N1_15 
REMARK   11  A    between atoms: N1_15  and  C13_18 
REMARK   12  A    between atoms: C13_18  and  C14_19 
REMARK   13  A    between atoms: C14_19  and  C15_20 
REMARK   14  A    between atoms: C15_20  and  N2_21 
REMARK   15  A    between atoms: N2_21  and  C16_24 
REMARK   16  A    between atoms: C16_24  and  C17_25 
ROOT
HETATM    1  C11 UNL     1      -4.324  11.755  10.294  1.00  0.00     0.101 C 
ENDROOT
BRANCH   1   2
HETATM    2  S1  UNL     1      -3.508  13.004  11.368  1.00  0.00    -0.165 SA
BRANCH   2   3
HETATM    3  C10 UNL     1      -2.008  12.176  12.054  1.00  0.00     0.100 C 
BRANCH   3   4
HETATM    4  C9  UNL     1      -1.227  13.287  12.711  1.00  0.00     0.186 C 
BRANCH   4   5
HETATM    5  O1  UNL     1      -1.127  14.335  11.790  1.00  0.00    -0.350 OA
BRANCH   5   6
HETATM    6  C8  UNL     1      -1.012  15.651  12.203  1.00  0.00     0.068 A 
HETATM    7  C7  UNL     1       0.032  16.489  11.896  1.00  0.00     0.037 A 
HETATM    8  C6  UNL     1       0.063  17.795  12.340  1.00  0.00     0.010 A 
HETATM    9  C5  UNL     1      -0.938  18.352  13.117  1.00  0.00    -0.058 A 
HETATM   10  C21 UNL     1      -1.994  17.487  13.425  1.00  0.00     0.010 A 
HETATM   11  C20 UNL     1      -2.039  16.195  12.994  1.00  0.00     0.037 A 
BRANCH   9  12
HETATM   12  C4  UNL     1      -0.941  19.732  13.588  1.00  0.00     0.038 C 
BRANCH  12  13
HETATM   13  C3  UNL     1      -1.733  20.716  12.842  1.00  0.00     0.004 C 
BRANCH  13  14
HETATM   14  C2  UNL     1      -3.126  20.919  13.248  1.00  0.00    -0.004 C 
HETATM   15  C1  UNL     1      -3.505  20.733  14.673  1.00  0.00     0.005 C 
ENDBRANCH  13  14
ENDBRANCH  12  13
ENDBRANCH   9  12
ENDBRANCH   5   6
ENDBRANCH   4   5
ENDBRANCH   3   4
ENDBRANCH   2   3
ENDBRANCH   1   2
BRANCH   1  16
HETATM   16  C12 UNL     1      -5.169  12.500   9.309  1.00  0.00     0.242 C 
BRANCH  16  17
HETATM   17  N1  UNL     1      -5.831  13.650   9.871  1.00  0.00    -0.074 N 
ATOM     18  H12 UNL     1      -6.723  13.409  10.303  1.00  0.00     0.277 HD
ATOM     19  H11 UNL     1      -5.356  14.001  10.703  1.00  0.00     0.277 HD
BRANCH  17  20
HETATM   20  C13 UNL     1      -5.971  14.650   8.867  1.00  0.00     0.234 C 
BRANCH  20  21
HETATM   21  C14 UNL     1      -4.738  15.377   8.468  1.00  0.00     0.055 C 
BRANCH  21  22
HETATM   22  C15 UNL     1      -4.928  16.636   7.695  1.00  0.00     0.233 C 
BRANCH  22  23
HETATM   23  N2  UNL     1      -3.577  17.117   7.352  1.00  0.00    -0.075 N 
ATOM     24  H22 UNL     1      -2.862  16.593   7.857  1.00  0.00     0.277 HD
ATOM     25  H21 UNL     1      -3.327  16.858   6.398  1.00  0.00     0.277 HD
BRANCH  23  26
HETATM   26  C16 UNL     1      -3.426  18.525   7.560  1.00  0.00     0.237 C 
BRANCH  26  27
HETATM   27  C17 UNL     1      -3.919  18.874   8.956  1.00  0.00     0.011 A 
HETATM   28  C18 UNL     1      -3.098  19.957   9.640  1.00  0.00     0.007 A 
HETATM   29  C19 UNL     1      -3.014  18.532  10.095  1.00  0.00     0.007 A 
ENDBRANCH  26  27
ENDBRANCH  23  26
ENDBRANCH  22  23
ENDBRANCH  21  22
ENDBRANCH  20  21
ENDBRANCH  17  20
ENDBRANCH  16  17
ENDBRANCH   1  16
TORSDOF 16
ENDMDL
MODEL 4
REMARK VINA RESULT: -6.621256056      1.611      2.565
REMARK  16 active torsions:
REMARK  status: ('A' for Active; 'I' for Inactive)
REMARK    1  A    between atoms: C2_2  and  C3_3 
REMARK    2  A    between atoms: C3_3  and  C4_4 
REMARK    3  A    between atoms: C4_4  and  C5_5 
REMARK    4  A    between atoms: C8_8  and  O1_9 
REMARK    5  A    between atoms: O1_9  and  C9_10 
REMARK    6  A    between atoms: C9_10  and  C10_11 
REMARK    7  A    between atoms: C10_11  and  S1_12 
REMARK    8  A    between atoms: S1_12  and  C11_13 
REMARK    9  A    between atoms: C11_13  and  C12_14 
REMARK   10  A    between atoms: C12_14  and  N1_15 
REMARK   11  A    between atoms: N1_15  and  C13_18 
REMARK   12  A    between atoms: C13_18  and  C14_19 
REMARK   13  A    between atoms: C14_19  and  C15_20 
REMARK   14  A    between atoms: C15_20  and  N2_21 
REMARK   15  A    between atoms: N2_21  and  C16_24 
REMARK   16  A    between atoms: C16_24  and  C17_25 
ROOT
HETATM    1  C11 UNL     1      -4.168  13.686   8.737  1.00  0.00     0.101 C 
ENDROOT
BRANCH   1   2
HETATM    2  S1  UNL     1      -2.809  14.897   8.486  1.00  0.00    -0.165 SA
BRANCH   2   3
HETATM    3  C10 UNL     1      -3.571  16.335   7.616  1.00  0.00     0.100 C 
BRANCH   3   4
HETATM    4  C9  UNL     1      -2.765  17.527   8.072  1.00  0.00     0.186 C 
BRANCH   4   5
HETATM    5  O1  UNL     1      -3.630  18.382   8.763  1.00  0.00    -0.350 OA
BRANCH   5   6
HETATM    6  C8  UNL     1      -3.342  18.819  10.044  1.00  0.00     0.068 A 
HETATM    7  C7  UNL     1      -3.549  20.094  10.511  1.00  0.00     0.037 A 
HETATM    8  C6  UNL     1      -3.244  20.445  11.810  1.00  0.00     0.010 A 
HETATM    9  C5  UNL     1      -2.714  19.554  12.728  1.00  0.00    -0.058 A 
HETATM   10  C21 UNL     1      -2.505  18.259  12.239  1.00  0.00     0.010 A 
HETATM   11  C20 UNL     1      -2.801  17.898  10.959  1.00  0.00     0.037 A 
BRANCH   9  12
HETATM   12  C4  UNL     1      -2.396  19.891  14.110  1.00  0.00     0.038 C 
BRANCH  12  13
HETATM   13  C3  UNL     1      -0.993  19.814  14.535  1.00  0.00     0.004 C 
BRANCH  13  14
HETATM   14  C2  UNL     1       0.022  20.381  13.644  1.00  0.00    -0.004 C 
HETATM   15  C1  UNL     1       1.449  20.015  13.837  1.00  0.00     0.005 C 
ENDBRANCH  13  14
ENDBRANCH  12  13
ENDBRANCH   9  12
ENDBRANCH   5   6
ENDBRANCH   4   5
ENDBRANCH   3   4
ENDBRANCH   2   3
ENDBRANCH   1   2
BRANCH   1  16
HETATM   16  C12 UNL     1      -5.204  14.350   9.588  1.00  0.00     0.242 C 
BRANCH  16  17
HETATM   17  N1  UNL     1      -5.422  13.691  10.850  1.00  0.00    -0.074 N 
ATOM     18  H12 UNL     1      -5.141  14.268  11.642  1.00  0.00     0.277 HD
ATOM     19  H11 UNL     1      -6.413  13.607  11.077  1.00  0.00     0.277 HD
BRANCH  17  20
HETATM   20  C13 UNL     1      -4.762  12.428  10.843  1.00  0.00     0.234 C 
BRANCH  20  21
HETATM   21  C14 UNL     1      -3.837  12.149  11.971  1.00  0.00     0.055 C 
BRANCH  21  22
HETATM   22  C15 UNL     1      -2.380  12.288  11.687  1.00  0.00     0.233 C 
BRANCH  22  23
HETATM   23  N2  UNL     1      -1.858  13.249  12.676  1.00  0.00    -0.075 N 
ATOM     24  H22 UNL     1      -2.455  13.287  13.501  1.00  0.00     0.277 HD
ATOM     25  H21 UNL     1      -1.003  12.901  13.109  1.00  0.00     0.277 HD
BRANCH  23  26
HETATM   26  C16 UNL     1      -1.661  14.554  12.122  1.00  0.00     0.237 C 
BRANCH  26  27
HETATM   27  C17 UNL     1      -0.168  14.839  12.050  1.00  0.00     0.011 A 
HETATM   28  C18 UNL     1       0.202  16.260  12.450  1.00  0.00     0.007 A 
HETATM   29  C19 UNL     1       0.282  15.823  11.020  1.00  0.00     0.007 A 
ENDBRANCH  26  27
ENDBRANCH  23  26
ENDBRANCH  22  23
ENDBRANCH  21  22
ENDBRANCH  20  21
ENDBRANCH  17  20
ENDBRANCH  16  17
ENDBRANCH   1  16
TORSDOF 16
ENDMDL
MODEL 5
REMARK VINA RESULT: -6.584704234      2.592      5.565
REMARK  16 active torsions:
REMARK  status: ('A' for Active; 'I' for Inactive)
REMARK    1  A    between atoms: C2_2  and  C3_3 
REMARK    2  A    between atoms: C3_3  and  C4_4 
REMARK    3  A    between atoms: C4_4  and  C5_5 
REMARK    4  A    between atoms: C8_8  and  O1_9 
REMARK    5  A    between atoms: O1_9  and  C9_10 
REMARK    6  A    between atoms: C9_10  and  C10_11 
REMARK    7  A    between atoms: C10_11  and  S1_12 
REMARK    8  A    between atoms: S1_12  and  C11_13 
REMARK    9  A    between atoms: C11_13  and  C12_14 
REMARK   10  A    between atoms: C12_14  and  N1_15 
REMARK   11  A    between atoms: N1_15  and  C13_18 
REMARK   12  A    between atoms: C13_18  and  C14_19 
REMARK   13  A    between atoms: C14_19  and  C15_20 
REMARK   14  A    between atoms: C15_20  and  N2_21 
REMARK   15  A    between atoms: N2_21  and  C16_24 
REMARK   16  A    between atoms: C16_24  and  C17_25 
ROOT
HETATM    1  C11 UNL     1      -3.941  13.907   8.788  1.00  0.00     0.101 C 
ENDROOT
BRANCH   1   2
HETATM    2  S1  UNL     1      -5.458  12.987   9.267  1.00  0.00    -0.165 SA
BRANCH   2   3
HETATM    3  C10 UNL     1      -5.081  12.209  10.897  1.00  0.00     0.100 C 
BRANCH   3   4
HETATM    4  C9  UNL     1      -4.709  13.366  11.793  1.00  0.00     0.186 C 
BRANCH   4   5
HETATM    5  O1  UNL     1      -3.371  13.198  12.163  1.00  0.00    -0.350 OA
BRANCH   5   6
HETATM    6  C8  UNL     1      -2.513  14.278  12.275  1.00  0.00     0.068 A 
HETATM    7  C7  UNL     1      -2.833  15.490  12.837  1.00  0.00     0.037 A 
HETATM    8  C6  UNL     1      -1.911  16.513  12.920  1.00  0.00     0.010 A 
HETATM    9  C5  UNL     1      -0.614  16.400  12.451  1.00  0.00    -0.058 A 
HETATM   10  C21 UNL     1      -0.301  15.162  11.879  1.00  0.00     0.010 A 
HETATM   11  C20 UNL     1      -1.199  14.142  11.790  1.00  0.00     0.037 A 
BRANCH   9  12
HETATM   12  C4  UNL     1       0.386  17.457  12.538  1.00  0.00     0.038 C 
BRANCH  12  13
HETATM   13  C3  UNL     1       0.188  18.665  11.728  1.00  0.00     0.004 C 
BRANCH  13  14
HETATM   14  C2  UNL     1       0.802  19.909  12.196  1.00  0.00    -0.004 C 
HETATM   15  C1  UNL     1       1.324  19.987  13.586  1.00  0.00     0.005 C 
ENDBRANCH  13  14
ENDBRANCH  12  13
ENDBRANCH   9  12
ENDBRANCH   5   6
ENDBRANCH   4   5
ENDBRANCH   3   4
ENDBRANCH   2   3
ENDBRANCH   1   2
BRANCH   1  16
HETATM   16  C12 UNL     1      -4.286  15.363   8.788  1.00  0.00     0.242 C 
BRANCH  16  17
HETATM   17  N1  UNL     1      -3.242  16.203   9.317  1.00  0.00    -0.074 N 
ATOM     18  H12 UNL     1      -3.083  16.042  10.312  1.00  0.00     0.277 HD
ATOM     19  H11 UNL     1      -2.319  15.932   8.978  1.00  0.00     0.277 HD
BRANCH  17  20
HETATM   20  C13 UNL     1      -3.543  17.565   9.033  1.00  0.00     0.234 C 
BRANCH  20  21
HETATM   21  C14 UNL     1      -3.208  18.560  10.085  1.00  0.00     0.055 C 
BRANCH  21  22
HETATM   22  C15 UNL     1      -2.804  19.915   9.616  1.00  0.00     0.233 C 
BRANCH  22  23
HETATM   23  N2  UNL     1      -2.671  20.747  10.826  1.00  0.00    -0.075 N 
ATOM     24  H22 UNL     1      -1.702  21.026  10.974  1.00  0.00     0.277 HD
ATOM     25  H21 UNL     1      -3.087  21.667  10.685  1.00  0.00     0.277 HD
BRANCH  23  26
HETATM   26  C16 UNL     1      -3.208  20.112  11.990  1.00  0.00     0.237 C 
BRANCH  26  27
HETATM   27  C17 UNL     1      -2.639  20.788  13.228  1.00  0.00     0.011 A 
HETATM   28  C18 UNL     1      -2.305  19.819  14.354  1.00  0.00     0.007 A 
HETATM   29  C19 UNL     1      -3.477  20.747  14.465  1.00  0.00     0.007 A 
ENDBRANCH  26  27
ENDBRANCH  23  26
ENDBRANCH  22  23
ENDBRANCH  21  22
ENDBRANCH  20  21
ENDBRANCH  17  20
ENDBRANCH  16  17
ENDBRANCH   1  16
TORSDOF 16
ENDMDL
