MODEL 1
REMARK VINA RESULT: -5.943809167      0.000      0.000
REMARK  4 active torsions:
REMARK  status: ('A' for Active; 'I' for Inactive)
REMARK    1  A    between atoms: N1_2  and  C3_4 
REMARK    2  A    between atoms: C3_4  and  C4_5 
REMARK    3  A    between atoms: C5_6  and  C6_7 
REMARK    4  A    between atoms: C6_7  and  N2_8 
ROOT
HETATM    1  N2  UNL     1     -21.008  65.871  25.464  1.00  0.00    -0.125 N 
HETATM    2  C7  UNL     1     -20.463  66.291  24.235  1.00  0.00     0.686 C 
HETATM    3  N3  UNL     1     -20.802  67.383  23.736  1.00  0.00    -0.234 N 
ATOM      4  H31 UNL     1     -20.407  67.687  22.846  1.00  0.00     0.174 HD
ATOM      5  H32 UNL     1     -21.471  67.946  24.262  1.00  0.00     0.174 HD
HETATM    6  N4  UNL     1     -19.507  65.487  23.483  1.00  0.00    -0.200 N 
HETATM    7  C8  UNL     1     -18.730  66.240  22.486  1.00  0.00     0.174 C 
HETATM    8  C9  UNL     1     -19.259  64.103  23.589  1.00  0.00     0.101 C 
HETATM    9  C10 UNL     1     -18.824  63.530  24.860  1.00  0.00     0.167 C 
HETATM   10  N5  UNL     1     -19.478  63.940  26.046  1.00  0.00    -0.361 N 
ATOM     11  H5  UNL     1     -19.155  63.414  26.857  1.00  0.00     0.162 HD
HETATM   12  C11 UNL     1     -20.466  64.893  26.396  1.00  0.00     0.194 C 
HETATM   13  S1  UNL     1     -21.050  64.922  27.915  1.00  0.00    -0.040 SA
ENDROOT
BRANCH   1  14
HETATM   14  C6  UNL     1     -22.229  66.441  25.932  1.00  0.00     0.182 C 
BRANCH  14  15
HETATM   15  C5  UNL     1     -23.457  66.040  25.334  1.00  0.00    -0.059 C 
HETATM   16  C4  UNL     1     -24.466  65.665  24.831  1.00  0.00    -0.070 C 
BRANCH  16  17
HETATM   17  C3  UNL     1     -25.707  65.156  24.188  1.00  0.00     0.365 C 
BRANCH  17  18
HETATM   18  N1  UNL     1     -26.427  66.298  23.671  1.00  0.00     0.090 N 
HETATM   19  C1  UNL     1     -27.694  65.897  23.102  1.00  0.00     0.310 C 
HETATM   20  C2  UNL     1     -25.643  66.923  22.630  1.00  0.00     0.310 C 
ENDBRANCH  17  18
ENDBRANCH  16  17
ENDBRANCH  14  15
ENDBRANCH   1  14
TORSDOF 4
ENDMDL
MODEL 2
REMARK VINA RESULT: -5.881430792      3.761      6.540
REMARK  4 active torsions:
REMARK  status: ('A' for Active; 'I' for Inactive)
REMARK    1  A    between atoms: N1_2  and  C3_4 
REMARK    2  A    between atoms: C3_4  and  C4_5 
REMARK    3  A    between atoms: C5_6  and  C6_7 
REMARK    4  A    between atoms: C6_7  and  N2_8 
ROOT
HETATM    1  N2  UNL     1     -23.522  62.799  26.416  1.00  0.00    -0.125 N 
HETATM    2  C7  UNL     1     -22.439  62.810  25.515  1.00  0.00     0.686 C 
HETATM    3  N3  UNL     1     -21.798  61.764  25.289  1.00  0.00    -0.234 N 
ATOM      4  H31 UNL     1     -21.013  61.772  24.637  1.00  0.00     0.174 HD
ATOM      5  H32 UNL     1     -22.102  60.920  25.774  1.00  0.00     0.174 HD
HETATM    6  N4  UNL     1     -22.004  64.016  24.822  1.00  0.00    -0.200 N 
HETATM    7  C8  UNL     1     -21.179  63.769  23.629  1.00  0.00     0.174 C 
HETATM    8  C9  UNL     1     -22.263  65.359  25.165  1.00  0.00     0.101 C 
HETATM    9  C10 UNL     1     -23.639  65.842  25.255  1.00  0.00     0.167 C 
HETATM   10  N5  UNL     1     -24.596  65.038  25.919  1.00  0.00    -0.361 N 
ATOM     11  H5  UNL     1     -25.496  65.510  25.999  1.00  0.00     0.162 HD
HETATM   12  C11 UNL     1     -24.624  63.746  26.501  1.00  0.00     0.194 C 
HETATM   13  S1  UNL     1     -25.946  63.264  27.319  1.00  0.00    -0.040 SA
ENDROOT
BRANCH   1  14
HETATM   14  C6  UNL     1     -23.634  61.756  27.382  1.00  0.00     0.182 C 
BRANCH  14  15
HETATM   15  C5  UNL     1     -22.757  61.750  28.504  1.00  0.00    -0.059 C 
HETATM   16  C4  UNL     1     -21.994  61.761  29.413  1.00  0.00    -0.070 C 
BRANCH  16  17
HETATM   17  C3  UNL     1     -21.002  61.780  30.522  1.00  0.00     0.365 C 
BRANCH  17  18
HETATM   18  N1  UNL     1     -19.749  62.252  29.975  1.00  0.00     0.090 N 
HETATM   19  C1  UNL     1     -18.705  62.221  30.973  1.00  0.00     0.310 C 
HETATM   20  C2  UNL     1     -19.910  63.618  29.532  1.00  0.00     0.310 C 
ENDBRANCH  17  18
ENDBRANCH  16  17
ENDBRANCH  14  15
ENDBRANCH   1  14
TORSDOF 4
ENDMDL
MODEL 3
REMARK VINA RESULT: -5.872659120      4.315      5.297
REMARK  4 active torsions:
REMARK  status: ('A' for Active; 'I' for Inactive)
REMARK    1  A    between atoms: N1_2  and  C3_4 
REMARK    2  A    between atoms: C3_4  and  C4_5 
REMARK    3  A    between atoms: C5_6  and  C6_7 
REMARK    4  A    between atoms: C6_7  and  N2_8 
ROOT
HETATM    1  N2  UNL     1     -19.189  62.461  23.790  1.00  0.00    -0.125 N 
HETATM    2  C7  UNL     1     -17.943  62.758  24.377  1.00  0.00     0.686 C 
HETATM    3  N3  UNL     1     -17.351  61.901  25.064  1.00  0.00    -0.234 N 
ATOM      4  H31 UNL     1     -16.449  62.116  25.489  1.00  0.00     0.174 HD
ATOM      5  H32 UNL     1     -17.805  60.993  25.166  1.00  0.00     0.174 HD
HETATM    6  N4  UNL     1     -17.295  64.055  24.232  1.00  0.00    -0.200 N 
HETATM    7  C8  UNL     1     -15.851  64.049  24.520  1.00  0.00     0.174 C 
HETATM    8  C9  UNL     1     -17.879  65.286  23.872  1.00  0.00     0.101 C 
HETATM    9  C10 UNL     1     -18.565  65.425  22.590  1.00  0.00     0.167 C 
HETATM   10  N5  UNL     1     -19.445  64.397  22.178  1.00  0.00    -0.361 N 
ATOM     11  H5  UNL     1     -19.934  64.639  21.316  1.00  0.00     0.162 HD
HETATM   12  C11 UNL     1     -19.822  63.116  22.655  1.00  0.00     0.194 C 
HETATM   13  S1  UNL     1     -21.027  62.308  21.917  1.00  0.00    -0.040 SA
ENDROOT
BRANCH   1  14
HETATM   14  C6  UNL     1     -19.979  61.390  24.302  1.00  0.00     0.182 C 
BRANCH  14  15
HETATM   15  C5  UNL     1     -21.070  61.683  25.168  1.00  0.00    -0.059 C 
HETATM   16  C4  UNL     1     -21.989  61.963  25.867  1.00  0.00    -0.070 C 
BRANCH  16  17
HETATM   17  C3  UNL     1     -23.141  62.356  26.721  1.00  0.00     0.365 C 
BRANCH  17  18
HETATM   18  N1  UNL     1     -23.280  61.351  27.751  1.00  0.00     0.090 N 
HETATM   19  C1  UNL     1     -24.640  61.291  28.236  1.00  0.00     0.310 C 
HETATM   20  C2  UNL     1     -22.419  61.686  28.861  1.00  0.00     0.310 C 
ENDBRANCH  17  18
ENDBRANCH  16  17
ENDBRANCH  14  15
ENDBRANCH   1  14
TORSDOF 4
ENDMDL
MODEL 4
REMARK VINA RESULT: -5.836080115      2.327      3.871
REMARK  4 active torsions:
REMARK  status: ('A' for Active; 'I' for Inactive)
REMARK    1  A    between atoms: N1_2  and  C3_4 
REMARK    2  A    between atoms: C3_4  and  C4_5 
REMARK    3  A    between atoms: C5_6  and  C6_7 
REMARK    4  A    between atoms: C6_7  and  N2_8 
ROOT
HETATM    1  N2  UNL     1     -21.121  66.262  26.089  1.00  0.00    -0.125 N 
HETATM    2  C7  UNL     1     -21.287  66.620  27.441  1.00  0.00     0.686 C 
HETATM    3  N3  UNL     1     -21.732  65.792  28.261  1.00  0.00    -0.234 N 
ATOM      4  H31 UNL     1     -21.852  66.051  29.240  1.00  0.00     0.174 HD
ATOM      5  H32 UNL     1     -21.952  64.861  27.907  1.00  0.00     0.174 HD
HETATM    6  N4  UNL     1     -20.971  67.950  27.946  1.00  0.00    -0.200 N 
HETATM    7  C8  UNL     1     -20.785  68.018  29.405  1.00  0.00     0.174 C 
HETATM    8  C9  UNL     1     -20.843  69.151  27.220  1.00  0.00     0.101 C 
HETATM    9  C10 UNL     1     -19.850  69.261  26.154  1.00  0.00     0.167 C 
HETATM   10  N5  UNL     1     -19.717  68.190  25.239  1.00  0.00    -0.361 N 
ATOM     11  H5  UNL     1     -19.061  68.411  24.490  1.00  0.00     0.162 HD
HETATM   12  C11 UNL     1     -20.261  66.889  25.096  1.00  0.00     0.194 C 
HETATM   13  S1  UNL     1     -19.928  66.024  23.758  1.00  0.00    -0.040 SA
ENDROOT
BRANCH   1  14
HETATM   14  C6  UNL     1     -21.834  65.148  25.555  1.00  0.00     0.182 C 
BRANCH  14  15
HETATM   15  C5  UNL     1     -23.221  65.285  25.263  1.00  0.00    -0.059 C 
HETATM   16  C4  UNL     1     -24.386  65.366  25.047  1.00  0.00    -0.070 C 
BRANCH  16  17
HETATM   17  C3  UNL     1     -25.851  65.427  24.798  1.00  0.00     0.365 C 
BRANCH  17  18
HETATM   18  N1  UNL     1     -26.041  65.712  23.394  1.00  0.00     0.090 N 
HETATM   19  C1  UNL     1     -25.382  66.942  23.021  1.00  0.00     0.310 C 
HETATM   20  C2  UNL     1     -27.454  65.857  23.126  1.00  0.00     0.310 C 
ENDBRANCH  17  18
ENDBRANCH  16  17
ENDBRANCH  14  15
ENDBRANCH   1  14
TORSDOF 4
ENDMDL
MODEL 5
REMARK VINA RESULT: -5.804895658      4.654      6.581
REMARK  4 active torsions:
REMARK  status: ('A' for Active; 'I' for Inactive)
REMARK    1  A    between atoms: N1_2  and  C3_4 
REMARK    2  A    between atoms: C3_4  and  C4_5 
REMARK    3  A    between atoms: C5_6  and  C6_7 
REMARK    4  A    between atoms: C6_7  and  N2_8 
ROOT
HETATM    1  N2  UNL     1     -20.581  62.628  28.562  1.00  0.00    -0.125 N 
HETATM    2  C7  UNL     1     -20.559  62.471  27.162  1.00  0.00     0.686 C 
HETATM    3  N3  UNL     1     -19.523  62.728  26.516  1.00  0.00    -0.234 N 
ATOM      4  H31 UNL     1     -19.508  62.614  25.502  1.00  0.00     0.174 HD
ATOM      5  H32 UNL     1     -18.710  63.039  27.048  1.00  0.00     0.174 HD
HETATM    6  N4  UNL     1     -21.720  62.026  26.403  1.00  0.00    -0.200 N 
HETATM    7  C8  UNL     1     -21.408  61.507  25.061  1.00  0.00     0.174 C 
HETATM    8  C9  UNL     1     -23.076  62.050  26.789  1.00  0.00     0.101 C 
HETATM    9  C10 UNL     1     -23.512  61.328  27.982  1.00  0.00     0.167 C 
HETATM   10  N5  UNL     1     -22.729  61.427  29.157  1.00  0.00    -0.361 N 
ATOM     11  H5  UNL     1     -23.171  60.959  29.947  1.00  0.00     0.162 HD
HETATM   12  C11 UNL     1     -21.489  62.011  29.517  1.00  0.00     0.194 C 
HETATM   13  S1  UNL     1     -21.025  62.010  31.078  1.00  0.00    -0.040 SA
ENDROOT
BRANCH   1  14
HETATM   14  C6  UNL     1     -19.616  63.463  29.199  1.00  0.00     0.182 C 
BRANCH  14  15
HETATM   15  C5  UNL     1     -19.616  64.860  28.925  1.00  0.00    -0.059 C 
HETATM   16  C4  UNL     1     -19.572  66.025  28.699  1.00  0.00    -0.070 C 
BRANCH  16  17
HETATM   17  C3  UNL     1     -19.472  67.485  28.429  1.00  0.00     0.365 C 
BRANCH  17  18
HETATM   18  N1  UNL     1     -18.068  67.805  28.295  1.00  0.00     0.090 N 
HETATM   19  C1  UNL     1     -17.844  69.225  28.446  1.00  0.00     0.310 C 
HETATM   20  C2  UNL     1     -17.616  67.415  26.978  1.00  0.00     0.310 C 
ENDBRANCH  17  18
ENDBRANCH  16  17
ENDBRANCH  14  15
ENDBRANCH   1  14
TORSDOF 4
ENDMDL
