MODEL 1
REMARK VINA RESULT: -9.253773877      0.000      0.000
REMARK  15 active torsions:
REMARK  status: ('A' for Active; 'I' for Inactive)
REMARK    1  A    between atoms: N2_9  and  C7_11 
REMARK    2  A    between atoms: C7_11  and  C8_12 
REMARK    3  A    between atoms: C8_12  and  C9_13 
REMARK    4  A    between atoms: C9_13  and  C10_14 
REMARK    5  A    between atoms: C10_14  and  N3_15 
REMARK    6  A    between atoms: N3_15  and  C11_16 
REMARK    7  A    between atoms: C11_16  and  C12_17 
REMARK    8  A    between atoms: C12_17  and  N4_18 
REMARK       I    between atoms: C13_20  and  N6_22 
REMARK    9  A    between atoms: N6_22  and  C14_24 
REMARK   10  A    between atoms: C14_24  and  C15_25 
REMARK   11  A    between atoms: C15_25  and  C16_26 
REMARK   12  A    between atoms: C16_26  and  C17_27 
REMARK   13  A    between atoms: C17_27  and  C18_28 
REMARK   14  A    between atoms: C18_28  and  C19_29 
REMARK   15  A    between atoms: C19_29  and  N7_30 
ROOT
HETATM    1  N3  UNL     1      42.316   8.592 109.798  1.00  0.00    -0.062 N 
HETATM    2  C21 UNL     1      41.057   7.841 109.796  1.00  0.00     0.238 C 
HETATM    3  C22 UNL     1      41.137   6.562 109.038  1.00  0.00     0.028 C 
HETATM    4  C23 UNL     1      41.531   6.920 107.620  1.00  0.00     0.004 C 
HETATM    5  C24 UNL     1      42.958   7.405 107.713  1.00  0.00     0.033 C 
HETATM    6  C25 UNL     1      43.324   7.905 109.098  1.00  0.00     0.186 C 
HETATM    7  C26 UNL     1      44.662   8.583 109.095  1.00  0.00     0.040 C 
ENDROOT
BRANCH   1   8
HETATM    8  C10 UNL     1      42.028   9.939 109.414  1.00  0.00     0.238 C 
BRANCH   8   9
HETATM    9  C9  UNL     1      40.768  10.324 108.795  1.00  0.00     0.030 C 
BRANCH   9  10
HETATM   10  C8  UNL     1      40.944  11.368 107.707  1.00  0.00     0.021 C 
BRANCH  10  11
HETATM   11  C7  UNL     1      41.205  10.769 106.341  1.00  0.00     0.121 C 
BRANCH  11  12
HETATM   12  N2  UNL     1      40.078  10.113 105.770  1.00  0.00    -0.376 N 
HETATM   13  C6  UNL     1      39.060  10.610 105.215  1.00  0.00     0.103 A 
HETATM   14  C5  UNL     1      38.836  12.062 105.041  1.00  0.00     0.065 A 
HETATM   15  N10 UNL     1      38.030   9.779 104.707  1.00  0.00    -0.329 N 
HETATM   16  C4  UNL     1      37.751  12.523 104.453  1.00  0.00     0.093 A 
HETATM   17  N1  UNL     1      36.721  11.708 103.945  1.00  0.00    -0.352 N 
HETATM   18  C3  UNL     1      36.853  10.295 104.069  1.00  0.00     0.102 A 
ATOM     19  H1  UNL     1      35.900  12.120 103.500  1.00  0.00     0.166 HD
HETATM   20  C2  UNL     1      35.908   9.512 103.607  1.00  0.00     0.017 C 
HETATM   21  C1  UNL     1      34.710  10.064 102.961  1.00  0.00     0.040 C 
ATOM     22  H10 UNL     1      38.131   8.768 104.799  1.00  0.00     0.169 HD
ATOM     23  H2  UNL     1      40.095   9.094 105.818  1.00  0.00     0.161 HD
ENDBRANCH  11  12
ENDBRANCH  10  11
ENDBRANCH   9  10
ENDBRANCH   8   9
ENDBRANCH   1   8
BRANCH   1  24
HETATM   24  C11 UNL     1      42.669   8.677 111.200  1.00  0.00     0.257 C 
BRANCH  24  25
HETATM   25  C12 UNL     1      41.601   8.482 112.194  1.00  0.00     0.150 C 
BRANCH  25  26
HETATM   26  N4  UNL     1      42.190   8.416 113.520  1.00  0.00    -0.363 N 
HETATM   27  C13 UNL     1      42.512   7.276 113.996  1.00  0.00     0.184 C 
HETATM   28  N5  UNL     1      42.267   6.108 113.182  1.00  0.00    -0.064 NA
HETATM   29  N6  UNL     1      43.097   7.060 115.283  1.00  0.00    -0.365 N 
ATOM     30  H6  UNL     1      42.478   6.817 116.056  1.00  0.00     0.162 HD
ATOM     31  H4  UNL     1      42.344   9.267 114.061  1.00  0.00     0.162 HD
BRANCH  29  32
HETATM   32  C14 UNL     1      44.485   7.162 115.550  1.00  0.00     0.122 C 
BRANCH  32  33
HETATM   33  C15 UNL     1      44.905   7.270 116.966  1.00  0.00     0.020 C 
BRANCH  33  34
HETATM   34  C16 UNL     1      46.182   6.612 117.368  1.00  0.00     0.002 C 
BRANCH  34  35
HETATM   35  C17 UNL     1      46.055   5.605 118.422  1.00  0.00     0.002 C 
BRANCH  35  36
HETATM   36  C18 UNL     1      46.112   4.158 117.993  1.00  0.00     0.020 C 
BRANCH  36  37
HETATM   37  C19 UNL     1      44.847   3.479 117.682  1.00  0.00     0.122 C 
BRANCH  37  38
HETATM   38  N7  UNL     1      43.660   4.004 118.277  1.00  0.00    -0.367 N 
HETATM   39  C20 UNL     1      42.598   4.299 117.582  1.00  0.00     0.196 C 
HETATM   40  N8  UNL     1      41.437   4.818 118.220  1.00  0.00    -0.067 NA
HETATM   41  N9  UNL     1      42.653   4.083 116.186  1.00  0.00    -0.067 NA
ATOM     42  H7  UNL     1      43.643   4.153 119.286  1.00  0.00     0.161 HD
ENDBRANCH  37  38
ENDBRANCH  36  37
ENDBRANCH  35  36
ENDBRANCH  34  35
ENDBRANCH  33  34
ENDBRANCH  32  33
ENDBRANCH  29  32
ENDBRANCH  25  26
ENDBRANCH  24  25
ENDBRANCH   1  24
TORSDOF 15
ENDMDL
MODEL 2
REMARK VINA RESULT: -9.056554063      1.532      2.982
REMARK  15 active torsions:
REMARK  status: ('A' for Active; 'I' for Inactive)
REMARK    1  A    between atoms: N2_9  and  C7_11 
REMARK    2  A    between atoms: C7_11  and  C8_12 
REMARK    3  A    between atoms: C8_12  and  C9_13 
REMARK    4  A    between atoms: C9_13  and  C10_14 
REMARK    5  A    between atoms: C10_14  and  N3_15 
REMARK    6  A    between atoms: N3_15  and  C11_16 
REMARK    7  A    between atoms: C11_16  and  C12_17 
REMARK    8  A    between atoms: C12_17  and  N4_18 
REMARK       I    between atoms: C13_20  and  N6_22 
REMARK    9  A    between atoms: N6_22  and  C14_24 
REMARK   10  A    between atoms: C14_24  and  C15_25 
REMARK   11  A    between atoms: C15_25  and  C16_26 
REMARK   12  A    between atoms: C16_26  and  C17_27 
REMARK   13  A    between atoms: C17_27  and  C18_28 
REMARK   14  A    between atoms: C18_28  and  C19_29 
REMARK   15  A    between atoms: C19_29  and  N7_30 
ROOT
HETATM    1  N3  UNL     1      41.822   9.063 110.814  1.00  0.00    -0.062 N 
HETATM    2  C21 UNL     1      42.963   9.976 110.935  1.00  0.00     0.238 C 
HETATM    3  C22 UNL     1      42.675  11.346 110.431  1.00  0.00     0.028 C 
HETATM    4  C23 UNL     1      42.277  11.201 108.977  1.00  0.00     0.004 C 
HETATM    5  C24 UNL     1      40.937  10.506 108.997  1.00  0.00     0.033 C 
HETATM    6  C25 UNL     1      40.701   9.714 110.269  1.00  0.00     0.186 C 
HETATM    7  C26 UNL     1      39.470   8.863 110.159  1.00  0.00     0.040 C 
ENDROOT
BRANCH   1   8
HETATM    8  C10 UNL     1      42.278   7.865 110.182  1.00  0.00     0.238 C 
BRANCH   8   9
HETATM    9  C9  UNL     1      43.616   7.736 109.624  1.00  0.00     0.030 C 
BRANCH   9  10
HETATM   10  C8  UNL     1      43.607   7.520 108.121  1.00  0.00     0.021 C 
BRANCH  10  11
HETATM   11  C7  UNL     1      42.283   7.003 107.599  1.00  0.00     0.121 C 
BRANCH  11  12
HETATM   12  N2  UNL     1      41.661   7.858 106.646  1.00  0.00    -0.376 N 
HETATM   13  C6  UNL     1      40.434   8.011 106.391  1.00  0.00     0.103 A 
HETATM   14  C5  UNL     1      39.345   7.286 107.081  1.00  0.00     0.065 A 
HETATM   15  N10 UNL     1      40.010   8.921 105.390  1.00  0.00    -0.329 N 
HETATM   16  C4  UNL     1      38.082   7.488 106.770  1.00  0.00     0.093 A 
HETATM   17  N1  UNL     1      37.647   8.387 105.777  1.00  0.00    -0.352 N 
HETATM   18  C3  UNL     1      38.628   9.130 105.060  1.00  0.00     0.102 A 
ATOM     19  H1  UNL     1      36.653   8.503 105.576  1.00  0.00     0.166 HD
HETATM   20  C2  UNL     1      38.252   9.973 104.129  1.00  0.00     0.017 C 
HETATM   21  C1  UNL     1      36.833  10.169 103.808  1.00  0.00     0.040 C 
ATOM     22  H10 UNL     1      40.717   9.449 104.880  1.00  0.00     0.169 HD
ATOM     23  H2  UNL     1      42.298   8.427 106.090  1.00  0.00     0.161 HD
ENDBRANCH  11  12
ENDBRANCH  10  11
ENDBRANCH   9  10
ENDBRANCH   8   9
ENDBRANCH   1   8
BRANCH   1  24
HETATM   24  C11 UNL     1      41.541   8.674 112.181  1.00  0.00     0.257 C 
BRANCH  24  25
HETATM   25  C12 UNL     1      42.241   7.498 112.722  1.00  0.00     0.150 C 
BRANCH  25  26
HETATM   26  N4  UNL     1      42.651   7.773 114.088  1.00  0.00    -0.363 N 
HETATM   27  C13 UNL     1      42.882   6.793 114.872  1.00  0.00     0.184 C 
HETATM   28  N5  UNL     1      42.720   5.455 114.351  1.00  0.00    -0.064 NA
HETATM   29  N6  UNL     1      43.290   6.913 116.238  1.00  0.00    -0.365 N 
ATOM     30  H6  UNL     1      42.570   6.865 116.958  1.00  0.00     0.162 HD
ATOM     31  H4  UNL     1      42.752   8.734 114.414  1.00  0.00     0.162 HD
BRANCH  29  32
HETATM   32  C14 UNL     1      44.632   7.095 116.651  1.00  0.00     0.122 C 
BRANCH  32  33
HETATM   33  C15 UNL     1      45.558   5.949 116.504  1.00  0.00     0.020 C 
BRANCH  33  34
HETATM   34  C16 UNL     1      46.056   5.288 117.744  1.00  0.00     0.002 C 
BRANCH  34  35
HETATM   35  C17 UNL     1      45.624   5.911 118.996  1.00  0.00     0.002 C 
BRANCH  35  36
HETATM   36  C18 UNL     1      45.244   4.981 120.124  1.00  0.00     0.020 C 
BRANCH  36  37
HETATM   37  C19 UNL     1      44.054   4.138 119.953  1.00  0.00     0.122 C 
BRANCH  37  38
HETATM   38  N7  UNL     1      42.884   4.757 119.418  1.00  0.00    -0.367 N 
HETATM   39  C20 UNL     1      42.353   4.393 118.285  1.00  0.00     0.196 C 
HETATM   40  N8  UNL     1      41.186   5.039 117.792  1.00  0.00    -0.067 NA
HETATM   41  N9  UNL     1      42.982   3.342 117.579  1.00  0.00    -0.067 NA
ATOM     42  H7  UNL     1      42.447   5.514 119.943  1.00  0.00     0.161 HD
ENDBRANCH  37  38
ENDBRANCH  36  37
ENDBRANCH  35  36
ENDBRANCH  34  35
ENDBRANCH  33  34
ENDBRANCH  32  33
ENDBRANCH  29  32
ENDBRANCH  25  26
ENDBRANCH  24  25
ENDBRANCH   1  24
TORSDOF 15
ENDMDL
MODEL 3
REMARK VINA RESULT: -8.960591742      2.720      4.147
REMARK  15 active torsions:
REMARK  status: ('A' for Active; 'I' for Inactive)
REMARK    1  A    between atoms: N2_9  and  C7_11 
REMARK    2  A    between atoms: C7_11  and  C8_12 
REMARK    3  A    between atoms: C8_12  and  C9_13 
REMARK    4  A    between atoms: C9_13  and  C10_14 
REMARK    5  A    between atoms: C10_14  and  N3_15 
REMARK    6  A    between atoms: N3_15  and  C11_16 
REMARK    7  A    between atoms: C11_16  and  C12_17 
REMARK    8  A    between atoms: C12_17  and  N4_18 
REMARK       I    between atoms: C13_20  and  N6_22 
REMARK    9  A    between atoms: N6_22  and  C14_24 
REMARK   10  A    between atoms: C14_24  and  C15_25 
REMARK   11  A    between atoms: C15_25  and  C16_26 
REMARK   12  A    between atoms: C16_26  and  C17_27 
REMARK   13  A    between atoms: C17_27  and  C18_28 
REMARK   14  A    between atoms: C18_28  and  C19_29 
REMARK   15  A    between atoms: C19_29  and  N7_30 
ROOT
HETATM    1  N3  UNL     1      42.047   9.407 110.712  1.00  0.00    -0.062 N 
HETATM    2  C21 UNL     1      43.185  10.313 110.534  1.00  0.00     0.238 C 
HETATM    3  C22 UNL     1      42.830  11.571 109.823  1.00  0.00     0.028 C 
HETATM    4  C23 UNL     1      42.272  11.167 108.474  1.00  0.00     0.004 C 
HETATM    5  C24 UNL     1      40.949  10.503 108.773  1.00  0.00     0.033 C 
HETATM    6  C25 UNL     1      40.865   9.959 110.187  1.00  0.00     0.186 C 
HETATM    7  C26 UNL     1      39.639   9.116 110.374  1.00  0.00     0.040 C 
ENDROOT
BRANCH   1   8
HETATM    8  C10 UNL     1      42.440   8.108 110.263  1.00  0.00     0.238 C 
BRANCH   8   9
HETATM    9  C9  UNL     1      43.743   7.847 109.669  1.00  0.00     0.030 C 
BRANCH   9  10
HETATM   10  C8  UNL     1      43.668   7.597 108.173  1.00  0.00     0.021 C 
BRANCH  10  11
HETATM   11  C7  UNL     1      42.341   7.014 107.731  1.00  0.00     0.121 C 
BRANCH  11  12
HETATM   12  N2  UNL     1      41.701   7.750 106.694  1.00  0.00    -0.376 N 
HETATM   13  C6  UNL     1      40.469   7.907 106.469  1.00  0.00     0.103 A 
HETATM   14  C5  UNL     1      39.393   7.319 107.295  1.00  0.00     0.065 A 
HETATM   15  N10 UNL     1      40.025   8.683 105.368  1.00  0.00    -0.329 N 
HETATM   16  C4  UNL     1      38.123   7.516 107.010  1.00  0.00     0.093 A 
HETATM   17  N1  UNL     1      37.669   8.284 105.920  1.00  0.00    -0.352 N 
HETATM   18  C3  UNL     1      38.637   8.889 105.068  1.00  0.00     0.102 A 
ATOM     19  H1  UNL     1      36.670   8.403 105.744  1.00  0.00     0.166 HD
HETATM   20  C2  UNL     1      38.243   9.608 104.045  1.00  0.00     0.017 C 
HETATM   21  C1  UNL     1      36.817   9.803 103.756  1.00  0.00     0.040 C 
ATOM     22  H10 UNL     1      40.724   9.113 104.763  1.00  0.00     0.169 HD
ATOM     23  H2  UNL     1      42.328   8.216 106.039  1.00  0.00     0.161 HD
ENDBRANCH  11  12
ENDBRANCH  10  11
ENDBRANCH   9  10
ENDBRANCH   8   9
ENDBRANCH   1   8
BRANCH   1  24
HETATM   24  C11 UNL     1      41.926   9.278 112.150  1.00  0.00     0.257 C 
BRANCH  24  25
HETATM   25  C12 UNL     1      41.933   7.923 112.724  1.00  0.00     0.150 C 
BRANCH  25  26
HETATM   26  N4  UNL     1      42.404   7.990 114.097  1.00  0.00    -0.363 N 
HETATM   27  C13 UNL     1      42.759   6.910 114.681  1.00  0.00     0.184 C 
HETATM   28  N5  UNL     1      42.668   5.676 113.936  1.00  0.00    -0.064 NA
HETATM   29  N6  UNL     1      43.239   6.825 116.025  1.00  0.00    -0.365 N 
ATOM     30  H6  UNL     1      42.571   6.590 116.758  1.00  0.00     0.162 HD
ATOM     31  H4  UNL     1      42.451   8.883 114.585  1.00  0.00     0.162 HD
BRANCH  29  32
HETATM   32  C14 UNL     1      44.587   7.048 116.400  1.00  0.00     0.122 C 
BRANCH  32  33
HETATM   33  C15 UNL     1      45.453   5.861 116.585  1.00  0.00     0.020 C 
BRANCH  33  34
HETATM   34  C16 UNL     1      46.052   5.635 117.932  1.00  0.00     0.002 C 
BRANCH  34  35
HETATM   35  C17 UNL     1      45.478   6.440 119.010  1.00  0.00     0.002 C 
BRANCH  35  36
HETATM   36  C18 UNL     1      46.404   7.412 119.703  1.00  0.00     0.020 C 
BRANCH  36  37
HETATM   37  C19 UNL     1      46.030   7.887 121.042  1.00  0.00     0.122 C 
BRANCH  37  38
HETATM   38  N7  UNL     1      47.085   8.312 121.904  1.00  0.00    -0.367 N 
HETATM   39  C20 UNL     1      47.460   7.625 122.946  1.00  0.00     0.196 C 
HETATM   40  N8  UNL     1      48.518   8.089 123.776  1.00  0.00    -0.067 NA
HETATM   41  N9  UNL     1      46.774   6.418 123.211  1.00  0.00    -0.067 NA
ATOM     42  H7  UNL     1      47.566   9.187 121.695  1.00  0.00     0.161 HD
ENDBRANCH  37  38
ENDBRANCH  36  37
ENDBRANCH  35  36
ENDBRANCH  34  35
ENDBRANCH  33  34
ENDBRANCH  32  33
ENDBRANCH  29  32
ENDBRANCH  25  26
ENDBRANCH  24  25
ENDBRANCH   1  24
TORSDOF 15
ENDMDL
MODEL 4
REMARK VINA RESULT: -8.904789809      3.449      5.103
REMARK  15 active torsions:
REMARK  status: ('A' for Active; 'I' for Inactive)
REMARK    1  A    between atoms: N2_9  and  C7_11 
REMARK    2  A    between atoms: C7_11  and  C8_12 
REMARK    3  A    between atoms: C8_12  and  C9_13 
REMARK    4  A    between atoms: C9_13  and  C10_14 
REMARK    5  A    between atoms: C10_14  and  N3_15 
REMARK    6  A    between atoms: N3_15  and  C11_16 
REMARK    7  A    between atoms: C11_16  and  C12_17 
REMARK    8  A    between atoms: C12_17  and  N4_18 
REMARK       I    between atoms: C13_20  and  N6_22 
REMARK    9  A    between atoms: N6_22  and  C14_24 
REMARK   10  A    between atoms: C14_24  and  C15_25 
REMARK   11  A    between atoms: C15_25  and  C16_26 
REMARK   12  A    between atoms: C16_26  and  C17_27 
REMARK   13  A    between atoms: C17_27  and  C18_28 
REMARK   14  A    between atoms: C18_28  and  C19_29 
REMARK   15  A    between atoms: C19_29  and  N7_30 
ROOT
HETATM    1  N3  UNL     1      42.389   8.834 109.706  1.00  0.00    -0.062 N 
HETATM    2  C21 UNL     1      40.928   8.752 109.607  1.00  0.00     0.238 C 
HETATM    3  C22 UNL     1      40.449   7.463 109.038  1.00  0.00     0.028 C 
HETATM    4  C23 UNL     1      41.071   7.334 107.664  1.00  0.00     0.004 C 
HETATM    5  C24 UNL     1      42.546   7.125 107.911  1.00  0.00     0.033 C 
HETATM    6  C25 UNL     1      43.000   7.648 109.261  1.00  0.00     0.186 C 
HETATM    7  C26 UNL     1      44.495   7.628 109.377  1.00  0.00     0.040 C 
ENDROOT
BRANCH   1   8
HETATM    8  C10 UNL     1      42.804  10.067 109.116  1.00  0.00     0.238 C 
BRANCH   8   9
HETATM    9  C9  UNL     1      43.437  11.129 109.885  1.00  0.00     0.030 C 
BRANCH   9  10
HETATM   10  C8  UNL     1      44.244  12.080 109.019  1.00  0.00     0.021 C 
BRANCH  10  11
HETATM   11  C7  UNL     1      44.311  13.486 109.580  1.00  0.00     0.121 C 
BRANCH  11  12
HETATM   12  N2  UNL     1      43.669  13.639 110.841  1.00  0.00    -0.376 N 
HETATM   13  C6  UNL     1      42.662  14.337 111.146  1.00  0.00     0.103 A 
HETATM   14  C5  UNL     1      41.915  15.180 110.187  1.00  0.00     0.065 A 
HETATM   15  N10 UNL     1      42.170  14.360 112.475  1.00  0.00    -0.329 N 
HETATM   16  C4  UNL     1      40.872  15.889 110.565  1.00  0.00     0.093 A 
HETATM   17  N1  UNL     1      40.374  15.921 111.881  1.00  0.00    -0.352 N 
HETATM   18  C3  UNL     1      41.032  15.138 112.873  1.00  0.00     0.102 A 
ATOM     19  H1  UNL     1      39.561  16.491 112.119  1.00  0.00     0.166 HD
HETATM   20  C2  UNL     1      40.591  15.150 114.108  1.00  0.00     0.017 C 
HETATM   21  C1  UNL     1      39.427  15.957 114.493  1.00  0.00     0.040 C 
ATOM     22  H10 UNL     1      42.647  13.797 113.180  1.00  0.00     0.169 HD
ATOM     23  H2  UNL     1      44.081  13.108 111.608  1.00  0.00     0.161 HD
ENDBRANCH  11  12
ENDBRANCH  10  11
ENDBRANCH   9  10
ENDBRANCH   8   9
ENDBRANCH   1   8
BRANCH   1  24
HETATM   24  C11 UNL     1      42.633   9.004 111.124  1.00  0.00     0.257 C 
BRANCH  24  25
HETATM   25  C12 UNL     1      41.634   8.472 112.065  1.00  0.00     0.150 C 
BRANCH  25  26
HETATM   26  N4  UNL     1      42.210   8.431 113.398  1.00  0.00    -0.363 N 
HETATM   27  C13 UNL     1      42.511   7.298 113.905  1.00  0.00     0.184 C 
HETATM   28  N5  UNL     1      42.256   6.114 113.118  1.00  0.00    -0.064 NA
HETATM   29  N6  UNL     1      43.081   7.106 115.203  1.00  0.00    -0.365 N 
ATOM     30  H6  UNL     1      42.451   6.892 115.975  1.00  0.00     0.162 HD
ATOM     31  H4  UNL     1      42.372   9.292 113.919  1.00  0.00     0.162 HD
BRANCH  29  32
HETATM   32  C14 UNL     1      44.467   7.195 115.480  1.00  0.00     0.122 C 
BRANCH  32  33
HETATM   33  C15 UNL     1      44.883   7.225 116.901  1.00  0.00     0.020 C 
BRANCH  33  34
HETATM   34  C16 UNL     1      46.120   6.486 117.284  1.00  0.00     0.002 C 
BRANCH  34  35
HETATM   35  C17 UNL     1      45.925   5.410 118.255  1.00  0.00     0.002 C 
BRANCH  35  36
HETATM   36  C18 UNL     1      45.944   3.997 117.720  1.00  0.00     0.020 C 
BRANCH  36  37
HETATM   37  C19 UNL     1      44.658   3.314 117.527  1.00  0.00     0.122 C 
BRANCH  37  38
HETATM   38  N7  UNL     1      43.499   3.932 118.087  1.00  0.00    -0.367 N 
HETATM   39  C20 UNL     1      42.495   4.332 117.359  1.00  0.00     0.196 C 
HETATM   40  N8  UNL     1      41.361   4.941 117.963  1.00  0.00    -0.067 NA
HETATM   41  N9  UNL     1      42.587   4.137 115.962  1.00  0.00    -0.067 NA
ATOM     42  H7  UNL     1      43.455   4.064 119.098  1.00  0.00     0.161 HD
ENDBRANCH  37  38
ENDBRANCH  36  37
ENDBRANCH  35  36
ENDBRANCH  34  35
ENDBRANCH  33  34
ENDBRANCH  32  33
ENDBRANCH  29  32
ENDBRANCH  25  26
ENDBRANCH  24  25
ENDBRANCH   1  24
TORSDOF 15
ENDMDL
MODEL 5
REMARK VINA RESULT: -8.894682242      3.852      5.432
REMARK  15 active torsions:
REMARK  status: ('A' for Active; 'I' for Inactive)
REMARK    1  A    between atoms: N2_9  and  C7_11 
REMARK    2  A    between atoms: C7_11  and  C8_12 
REMARK    3  A    between atoms: C8_12  and  C9_13 
REMARK    4  A    between atoms: C9_13  and  C10_14 
REMARK    5  A    between atoms: C10_14  and  N3_15 
REMARK    6  A    between atoms: N3_15  and  C11_16 
REMARK    7  A    between atoms: C11_16  and  C12_17 
REMARK    8  A    between atoms: C12_17  and  N4_18 
REMARK       I    between atoms: C13_20  and  N6_22 
REMARK    9  A    between atoms: N6_22  and  C14_24 
REMARK   10  A    between atoms: C14_24  and  C15_25 
REMARK   11  A    between atoms: C15_25  and  C16_26 
REMARK   12  A    between atoms: C16_26  and  C17_27 
REMARK   13  A    between atoms: C17_27  and  C18_28 
REMARK   14  A    between atoms: C18_28  and  C19_29 
REMARK   15  A    between atoms: C19_29  and  N7_30 
ROOT
HETATM    1  N3  UNL     1      42.566   8.291 110.139  1.00  0.00    -0.062 N 
HETATM    2  C21 UNL     1      41.257   7.638 110.036  1.00  0.00     0.238 C 
HETATM    3  C22 UNL     1      41.229   6.531 109.041  1.00  0.00     0.028 C 
HETATM    4  C23 UNL     1      41.615   7.135 107.707  1.00  0.00     0.004 C 
HETATM    5  C24 UNL     1      43.074   7.499 107.841  1.00  0.00     0.033 C 
HETATM    6  C25 UNL     1      43.506   7.691 109.282  1.00  0.00     0.186 C 
HETATM    7  C26 UNL     1      44.889   8.267 109.363  1.00  0.00     0.040 C 
ENDROOT
BRANCH   1   8
HETATM    8  C10 UNL     1      42.366   9.702 110.036  1.00  0.00     0.238 C 
BRANCH   8   9
HETATM    9  C9  UNL     1      41.082  10.286 109.676  1.00  0.00     0.030 C 
BRANCH   9  10
HETATM   10  C8  UNL     1      41.146  11.796 109.523  1.00  0.00     0.021 C 
BRANCH  10  11
HETATM   11  C7  UNL     1      41.264  12.526 110.845  1.00  0.00     0.121 C 
BRANCH  11  12
HETATM   12  N2  UNL     1      41.126  13.938 110.741  1.00  0.00    -0.376 N 
HETATM   13  C6  UNL     1      40.759  14.772 111.616  1.00  0.00     0.103 A 
HETATM   14  C5  UNL     1      40.383  14.412 113.000  1.00  0.00     0.065 A 
HETATM   15  N10 UNL     1      40.682  16.155 111.313  1.00  0.00    -0.329 N 
HETATM   16  C4  UNL     1      40.007  15.326 113.869  1.00  0.00     0.093 A 
HETATM   17  N1  UNL     1      39.924  16.702 113.581  1.00  0.00    -0.352 N 
HETATM   18  C3  UNL     1      40.269  17.142 112.270  1.00  0.00     0.102 A 
ATOM     19  H1  UNL     1      39.625  17.369 114.293  1.00  0.00     0.166 HD
HETATM   20  C2  UNL     1      40.200  18.417 111.973  1.00  0.00     0.017 C 
HETATM   21  C1  UNL     1      39.772  19.408 112.968  1.00  0.00     0.040 C 
ATOM     22  H10 UNL     1      40.930  16.462 110.373  1.00  0.00     0.169 HD
ATOM     23  H2  UNL     1      41.356  14.334 109.830  1.00  0.00     0.161 HD
ENDBRANCH  11  12
ENDBRANCH  10  11
ENDBRANCH   9  10
ENDBRANCH   8   9
ENDBRANCH   1   8
BRANCH   1  24
HETATM   24  C11 UNL     1      42.956   8.074 111.517  1.00  0.00     0.257 C 
BRANCH  24  25
HETATM   25  C12 UNL     1      41.891   7.883 112.514  1.00  0.00     0.150 C 
BRANCH  25  26
HETATM   26  N4  UNL     1      42.443   8.075 113.844  1.00  0.00    -0.363 N 
HETATM   27  C13 UNL     1      42.753   7.048 114.538  1.00  0.00     0.184 C 
HETATM   28  N5  UNL     1      42.532   5.745 113.955  1.00  0.00    -0.064 NA
HETATM   29  N6  UNL     1      43.302   7.085 115.857  1.00  0.00    -0.365 N 
ATOM     30  H6  UNL     1      42.662   6.990 116.645  1.00  0.00     0.162 HD
ATOM     31  H4  UNL     1      42.581   9.014 114.218  1.00  0.00     0.162 HD
BRANCH  29  32
HETATM   32  C14 UNL     1      44.682   7.245 116.137  1.00  0.00     0.122 C 
BRANCH  32  33
HETATM   33  C15 UNL     1      45.552   6.054 116.003  1.00  0.00     0.020 C 
BRANCH  33  34
HETATM   34  C16 UNL     1      45.204   4.840 116.796  1.00  0.00     0.002 C 
BRANCH  34  35
HETATM   35  C17 UNL     1      45.949   4.680 118.045  1.00  0.00     0.002 C 
BRANCH  35  36
HETATM   36  C18 UNL     1      45.205   4.974 119.326  1.00  0.00     0.020 C 
BRANCH  36  37
HETATM   37  C19 UNL     1      43.753   5.187 119.248  1.00  0.00     0.122 C 
BRANCH  37  38
HETATM   38  N7  UNL     1      42.924   4.027 119.198  1.00  0.00    -0.367 N 
HETATM   39  C20 UNL     1      41.875   3.945 118.429  1.00  0.00     0.196 C 
HETATM   40  N8  UNL     1      41.079   2.767 118.412  1.00  0.00    -0.067 NA
HETATM   41  N9  UNL     1      41.570   5.068 117.625  1.00  0.00    -0.067 NA
ATOM     42  H7  UNL     1      43.162   3.229 119.788  1.00  0.00     0.161 HD
ENDBRANCH  37  38
ENDBRANCH  36  37
ENDBRANCH  35  36
ENDBRANCH  34  35
ENDBRANCH  33  34
ENDBRANCH  32  33
ENDBRANCH  29  32
ENDBRANCH  25  26
ENDBRANCH  24  25
ENDBRANCH   1  24
TORSDOF 15
ENDMDL
