MODEL 1
REMARK VINA RESULT: -7.251749173      0.000      0.000
REMARK  7 active torsions:
REMARK  status: ('A' for Active; 'I' for Inactive)
REMARK    1  A    between atoms: C2_2  and  C6_16 
REMARK    2  A    between atoms: N1_3  and  C3_5 
REMARK    3  A    between atoms: C4_6  and  O1_7 
REMARK    4  A    between atoms: N3_13  and  O3_14 
REMARK    5  A    between atoms: C7_17  and  N4_18 
REMARK    6  A    between atoms: N4_18  and  N5_20 
REMARK    7  A    between atoms: N5_20  and  C8_21 
ROOT
HETATM    1  C6  UNL     1      19.943 -10.114   4.113  1.00  0.00     0.099 A 
HETATM    2  C7  UNL     1      20.271 -10.575   2.872  1.00  0.00     0.139 A 
HETATM    3  N6  UNL     1      21.370 -11.378   2.681  1.00  0.00    -0.313 N 
HETATM    4  C11 UNL     1      21.651 -11.817   1.352  1.00  0.00     0.160 C 
HETATM    5  C12 UNL     1      22.131 -11.710   3.739  1.00  0.00     0.182 A 
HETATM    6  S3  UNL     1      23.440 -12.676   3.438  1.00  0.00    -0.040 SA
HETATM    7  N7  UNL     1      21.855 -11.283   4.981  1.00  0.00    -0.299 N 
ATOM      8  H7  UNL     1      22.448 -11.548   5.768  1.00  0.00     0.171 HD
HETATM    9  C13 UNL     1      20.793 -10.509   5.163  1.00  0.00     0.263 A 
HETATM   10  O4  UNL     1      20.552 -10.119   6.336  1.00  0.00    -0.267 OA
ENDROOT
BRANCH   1  11
HETATM   11  C2  UNL     1      18.806  -9.259   4.382  1.00  0.00     0.026 C 
HETATM   12  C1  UNL     1      17.429  -9.429   3.957  1.00  0.00     0.069 C 
HETATM   13  N1  UNL     1      19.076  -8.182   5.097  1.00  0.00    -0.340 N 
ATOM     14  H1  UNL     1      20.039  -8.048   5.403  1.00  0.00     0.167 HD
BRANCH  13  15
HETATM   15  C3  UNL     1      18.135  -7.210   5.468  1.00  0.00     0.190 A 
HETATM   16  C4  UNL     1      17.252  -7.220   6.511  1.00  0.00     0.192 A 
HETATM   17  N2  UNL     1      16.558  -6.077   6.472  1.00  0.00    -0.284 N 
HETATM   18  C5  UNL     1      17.004  -5.370   5.421  1.00  0.00     0.354 A 
ATOM     19  H2  UNL     1      15.824  -5.794   7.122  1.00  0.00     0.172 HD
HETATM   20  O2  UNL     1      16.573  -4.221   5.070  1.00  0.00    -0.244 OA
HETATM   21  N3  UNL     1      17.970  -6.056   4.800  1.00  0.00    -0.151 N 
BRANCH  16  22
HETATM   22  O1  UNL     1      17.075  -8.210   7.457  1.00  0.00    -0.343 OA
ATOM     23  H1  UNL     1      16.570  -9.011   7.371  1.00  0.00     0.219 HD
ENDBRANCH  16  22
BRANCH  21  24
HETATM   24  O3  UNL     1      18.681  -5.652   3.666  1.00  0.00    -0.277 OA
ATOM     25  H3  UNL     1      18.392  -5.738   2.765  1.00  0.00     0.245 HD
ENDBRANCH  21  24
ENDBRANCH  13  15
ENDBRANCH   1  11
BRANCH   2  26
HETATM   26  N4  UNL     1      19.529 -10.265   1.739  1.00  0.00    -0.286 N 
ATOM     27  H4  UNL     1      19.777  -9.413   1.236  1.00  0.00     0.184 HD
BRANCH  26  28
HETATM   28  N5  UNL     1      18.456 -11.034   1.225  1.00  0.00    -0.113 NA
BRANCH  28  29
HETATM   29  C8  UNL     1      18.415 -11.030  -0.204  1.00  0.00     0.222 C 
HETATM   30  S1  UNL     1      19.757 -10.112  -0.992  1.00  0.00    -0.135 SA
HETATM   31  C9  UNL     1      20.494 -11.201  -2.186  1.00  0.00     0.086 C 
HETATM   32  C10 UNL     1      19.724 -12.464  -2.309  1.00  0.00     0.086 C 
HETATM   33  S2  UNL     1      18.790 -12.719  -0.791  1.00  0.00    -0.135 SA
ENDBRANCH  28  29
ENDBRANCH  26  28
ENDBRANCH   2  26
TORSDOF 7
ENDMDL
MODEL 2
REMARK VINA RESULT: -7.188035031      0.743      1.591
REMARK  7 active torsions:
REMARK  status: ('A' for Active; 'I' for Inactive)
REMARK    1  A    between atoms: C2_2  and  C6_16 
REMARK    2  A    between atoms: N1_3  and  C3_5 
REMARK    3  A    between atoms: C4_6  and  O1_7 
REMARK    4  A    between atoms: N3_13  and  O3_14 
REMARK    5  A    between atoms: C7_17  and  N4_18 
REMARK    6  A    between atoms: N4_18  and  N5_20 
REMARK    7  A    between atoms: N5_20  and  C8_21 
ROOT
HETATM    1  C6  UNL     1      19.977 -10.170   4.051  1.00  0.00     0.099 A 
HETATM    2  C7  UNL     1      20.299 -10.677   2.826  1.00  0.00     0.139 A 
HETATM    3  N6  UNL     1      21.349 -11.550   2.673  1.00  0.00    -0.313 N 
HETATM    4  C11 UNL     1      21.628 -12.033   1.360  1.00  0.00     0.160 C 
HETATM    5  C12 UNL     1      22.069 -11.905   3.753  1.00  0.00     0.182 A 
HETATM    6  S3  UNL     1      23.320 -12.956   3.498  1.00  0.00    -0.040 SA
HETATM    7  N7  UNL     1      21.796 -11.437   4.981  1.00  0.00    -0.299 N 
ATOM      8  H7  UNL     1      22.356 -11.721   5.784  1.00  0.00     0.171 HD
HETATM    9  C13 UNL     1      20.781 -10.595   5.125  1.00  0.00     0.263 A 
HETATM   10  O4  UNL     1      20.542 -10.166   6.285  1.00  0.00    -0.267 OA
ENDROOT
BRANCH   1  11
HETATM   11  C2  UNL     1      18.890  -9.241   4.279  1.00  0.00     0.026 C 
HETATM   12  C1  UNL     1      17.501  -9.360   3.875  1.00  0.00     0.069 C 
HETATM   13  N1  UNL     1      19.225  -8.143   4.930  1.00  0.00    -0.340 N 
ATOM     14  H1  UNL     1      20.197  -8.043   5.220  1.00  0.00     0.167 HD
BRANCH  13  15
HETATM   15  C3  UNL     1      18.341  -7.101   5.252  1.00  0.00     0.190 A 
HETATM   16  C4  UNL     1      18.166  -5.897   4.630  1.00  0.00     0.192 A 
HETATM   17  N2  UNL     1      17.211  -5.231   5.286  1.00  0.00    -0.284 N 
HETATM   18  C5  UNL     1      16.800  -6.009   6.300  1.00  0.00     0.354 A 
ATOM     19  H2  UNL     1      16.858  -4.301   5.058  1.00  0.00     0.172 HD
HETATM   20  O2  UNL     1      15.894  -5.702   7.144  1.00  0.00    -0.244 OA
HETATM   21  N3  UNL     1      17.487  -7.157   6.287  1.00  0.00    -0.151 N 
BRANCH  16  22
HETATM   22  O1  UNL     1      18.834  -5.416   3.520  1.00  0.00    -0.343 OA
ATOM     23  H1  UNL     1      18.486  -4.870   2.825  1.00  0.00     0.219 HD
ENDBRANCH  16  22
BRANCH  21  24
HETATM   24  O3  UNL     1      17.346  -8.222   7.182  1.00  0.00    -0.277 OA
ATOM     25  H3  UNL     1      16.571  -8.424   7.693  1.00  0.00     0.245 HD
ENDBRANCH  21  24
ENDBRANCH  13  15
ENDBRANCH   1  11
BRANCH   2  26
HETATM   26  N4  UNL     1      19.600 -10.346   1.672  1.00  0.00    -0.286 N 
ATOM     27  H4  UNL     1      19.950  -9.562   1.122  1.00  0.00     0.184 HD
BRANCH  26  28
HETATM   28  N5  UNL     1      18.440 -11.007   1.197  1.00  0.00    -0.113 NA
BRANCH  28  29
HETATM   29  C8  UNL     1      18.401 -11.087  -0.230  1.00  0.00     0.222 C 
HETATM   30  S1  UNL     1      19.774 -10.264  -1.066  1.00  0.00    -0.135 SA
HETATM   31  C9  UNL     1      20.475 -11.447  -2.191  1.00  0.00     0.086 C 
HETATM   32  C10 UNL     1      19.663 -12.688  -2.240  1.00  0.00     0.086 C 
HETATM   33  S2  UNL     1      18.719 -12.820  -0.713  1.00  0.00    -0.135 SA
ENDBRANCH  28  29
ENDBRANCH  26  28
ENDBRANCH   2  26
TORSDOF 7
ENDMDL
MODEL 3
REMARK VINA RESULT: -7.006623346      3.508      5.842
REMARK  7 active torsions:
REMARK  status: ('A' for Active; 'I' for Inactive)
REMARK    1  A    between atoms: C2_2  and  C6_16 
REMARK    2  A    between atoms: N1_3  and  C3_5 
REMARK    3  A    between atoms: C4_6  and  O1_7 
REMARK    4  A    between atoms: N3_13  and  O3_14 
REMARK    5  A    between atoms: C7_17  and  N4_18 
REMARK    6  A    between atoms: N4_18  and  N5_20 
REMARK    7  A    between atoms: N5_20  and  C8_21 
ROOT
HETATM    1  C6  UNL     1      17.129  -6.368   4.935  1.00  0.00     0.099 A 
HETATM    2  C7  UNL     1      16.652  -7.568   4.496  1.00  0.00     0.139 A 
HETATM    3  N6  UNL     1      15.647  -8.221   5.167  1.00  0.00    -0.313 N 
HETATM    4  C11 UNL     1      15.205  -9.476   4.649  1.00  0.00     0.160 C 
HETATM    5  C12 UNL     1      15.128  -7.663   6.275  1.00  0.00     0.182 A 
HETATM    6  S3  UNL     1      13.923  -8.503   7.036  1.00  0.00    -0.040 SA
HETATM    7  N7  UNL     1      15.560  -6.484   6.752  1.00  0.00    -0.299 N 
ATOM      8  H7  UNL     1      15.151  -6.081   7.594  1.00  0.00     0.171 HD
HETATM    9  C13 UNL     1      16.530  -5.856   6.101  1.00  0.00     0.263 A 
HETATM   10  O4  UNL     1      16.921  -4.752   6.565  1.00  0.00    -0.267 OA
ENDROOT
BRANCH   1  11
HETATM   11  C2  UNL     1      18.191  -5.633   4.280  1.00  0.00     0.026 C 
HETATM   12  C1  UNL     1      19.531  -6.084   3.953  1.00  0.00     0.069 C 
HETATM   13  N1  UNL     1      17.889  -4.389   3.957  1.00  0.00    -0.340 N 
ATOM     14  H1  UNL     1      16.952  -4.057   4.182  1.00  0.00     0.167 HD
BRANCH  13  15
HETATM   15  C3  UNL     1      18.764  -3.490   3.327  1.00  0.00     0.190 A 
HETATM   16  C4  UNL     1      18.772  -3.064   2.029  1.00  0.00     0.192 A 
HETATM   17  N2  UNL     1      19.786  -2.205   1.885  1.00  0.00    -0.284 N 
HETATM   18  C5  UNL     1      20.398  -2.100   3.076  1.00  0.00     0.354 A 
ATOM     19  H2  UNL     1      20.048  -1.718   1.028  1.00  0.00     0.172 HD
HETATM   20  O2  UNL     1      21.412  -1.366   3.322  1.00  0.00    -0.244 OA
HETATM   21  N3  UNL     1      19.778  -2.884   3.966  1.00  0.00    -0.151 N 
BRANCH  16  22
HETATM   22  O1  UNL     1      17.907  -3.430   1.015  1.00  0.00    -0.343 OA
ATOM     23  H1  UNL     1      17.998  -4.156   0.409  1.00  0.00     0.219 HD
ENDBRANCH  16  22
BRANCH  21  24
HETATM   24  O3  UNL     1      20.118  -3.046   5.312  1.00  0.00    -0.277 OA
ATOM     25  H3  UNL     1      20.898  -2.709   5.737  1.00  0.00     0.245 HD
ENDBRANCH  21  24
ENDBRANCH  13  15
ENDBRANCH   1  11
BRANCH   2  26
HETATM   26  N4  UNL     1      17.148  -8.200   3.362  1.00  0.00    -0.286 N 
ATOM     27  H4  UNL     1      17.062  -7.704   2.475  1.00  0.00     0.184 HD
BRANCH  26  28
HETATM   28  N5  UNL     1      17.764  -9.476   3.336  1.00  0.00    -0.113 NA
BRANCH  28  29
HETATM   29  C8  UNL     1      19.109  -9.425   2.852  1.00  0.00     0.222 C 
HETATM   30  S1  UNL     1      20.368  -9.816   4.087  1.00  0.00    -0.135 SA
HETATM   31  C9  UNL     1      21.405 -11.074   3.383  1.00  0.00     0.086 C 
HETATM   32  C10 UNL     1      21.053 -11.329   1.964  1.00  0.00     0.086 C 
HETATM   33  S2  UNL     1      19.350 -10.815   1.691  1.00  0.00    -0.135 SA
ENDBRANCH  28  29
ENDBRANCH  26  28
ENDBRANCH   2  26
TORSDOF 7
ENDMDL
MODEL 4
REMARK VINA RESULT: -7.002720261      4.248      7.997
REMARK  7 active torsions:
REMARK  status: ('A' for Active; 'I' for Inactive)
REMARK    1  A    between atoms: C2_2  and  C6_16 
REMARK    2  A    between atoms: N1_3  and  C3_5 
REMARK    3  A    between atoms: C4_6  and  O1_7 
REMARK    4  A    between atoms: N3_13  and  O3_14 
REMARK    5  A    between atoms: C7_17  and  N4_18 
REMARK    6  A    between atoms: N4_18  and  N5_20 
REMARK    7  A    between atoms: N5_20  and  C8_21 
ROOT
HETATM    1  C6  UNL     1      16.176  -8.563   5.061  1.00  0.00     0.099 A 
HETATM    2  C7  UNL     1      15.774  -7.708   6.045  1.00  0.00     0.139 A 
HETATM    3  N6  UNL     1      14.488  -7.735   6.528  1.00  0.00    -0.313 N 
HETATM    4  C11 UNL     1      14.142  -6.806   7.554  1.00  0.00     0.160 C 
HETATM    5  C12 UNL     1      13.614  -8.621   6.016  1.00  0.00     0.182 A 
HETATM    6  S3  UNL     1      12.083  -8.598   6.640  1.00  0.00    -0.040 SA
HETATM    7  N7  UNL     1      13.956  -9.484   5.047  1.00  0.00    -0.299 N 
ATOM      8  H7  UNL     1      13.276 -10.147   4.675  1.00  0.00     0.171 HD
HETATM    9  C13 UNL     1      15.199  -9.456   4.584  1.00  0.00     0.263 A 
HETATM   10  O4  UNL     1      15.499 -10.274   3.674  1.00  0.00    -0.267 OA
ENDROOT
BRANCH   1  11
HETATM   11  C2  UNL     1      17.512  -8.581   4.503  1.00  0.00     0.026 C 
HETATM   12  C1  UNL     1      18.256  -7.485   3.908  1.00  0.00     0.069 C 
HETATM   13  N1  UNL     1      18.113  -9.755   4.536  1.00  0.00    -0.340 N 
ATOM     14  H1  UNL     1      17.603 -10.535   4.950  1.00  0.00     0.167 HD
BRANCH  13  15
HETATM   15  C3  UNL     1      19.402 -10.010   4.044  1.00  0.00     0.190 A 
HETATM   16  C4  UNL     1      19.807 -10.205   2.753  1.00  0.00     0.192 A 
HETATM   17  N2  UNL     1      21.129 -10.409   2.764  1.00  0.00    -0.284 N 
HETATM   18  C5  UNL     1      21.537 -10.343   4.042  1.00  0.00     0.354 A 
ATOM     19  H2  UNL     1      21.720 -10.583   1.951  1.00  0.00     0.172 HD
HETATM   20  O2  UNL     1      22.740 -10.489   4.441  1.00  0.00    -0.244 OA
HETATM   21  N3  UNL     1      20.485 -10.099   4.833  1.00  0.00    -0.151 N 
BRANCH  16  22
HETATM   22  O1  UNL     1      19.027 -10.199   1.614  1.00  0.00    -0.343 OA
ATOM     23  H1  UNL     1      18.434  -9.516   1.320  1.00  0.00     0.219 HD
ENDBRANCH  16  22
BRANCH  21  24
HETATM   24  O3  UNL     1      20.504  -9.960   6.224  1.00  0.00    -0.277 OA
ATOM     25  H3  UNL     1      20.307 -10.641   6.857  1.00  0.00     0.245 HD
ENDBRANCH  21  24
ENDBRANCH  13  15
ENDBRANCH   1  11
BRANCH   2  26
HETATM   26  N4  UNL     1      16.626  -6.767   6.611  1.00  0.00    -0.286 N 
ATOM     27  H4  UNL     1      16.790  -5.909   6.086  1.00  0.00     0.184 HD
BRANCH  26  28
HETATM   28  N5  UNL     1      17.285  -6.902   7.858  1.00  0.00    -0.113 NA
BRANCH  28  29
HETATM   29  C8  UNL     1      18.007  -5.723   8.226  1.00  0.00     0.222 C 
HETATM   30  S1  UNL     1      19.084  -5.920   9.663  1.00  0.00    -0.135 SA
HETATM   31  C9  UNL     1      20.692  -5.336   9.183  1.00  0.00     0.086 C 
HETATM   32  C10 UNL     1      20.660  -4.724   7.832  1.00  0.00     0.086 C 
HETATM   33  S2  UNL     1      19.250  -5.388   6.931  1.00  0.00    -0.135 SA
ENDBRANCH  28  29
ENDBRANCH  26  28
ENDBRANCH   2  26
TORSDOF 7
ENDMDL
MODEL 5
REMARK VINA RESULT: -6.982080660      2.322      4.799
REMARK  7 active torsions:
REMARK  status: ('A' for Active; 'I' for Inactive)
REMARK    1  A    between atoms: C2_2  and  C6_16 
REMARK    2  A    between atoms: N1_3  and  C3_5 
REMARK    3  A    between atoms: C4_6  and  O1_7 
REMARK    4  A    between atoms: N3_13  and  O3_14 
REMARK    5  A    between atoms: C7_17  and  N4_18 
REMARK    6  A    between atoms: N4_18  and  N5_20 
REMARK    7  A    between atoms: N5_20  and  C8_21 
ROOT
HETATM    1  C6  UNL     1      19.741 -11.523   1.564  1.00  0.00     0.099 A 
HETATM    2  C7  UNL     1      21.045 -11.925   1.542  1.00  0.00     0.139 A 
HETATM    3  N6  UNL     1      21.623 -12.395   0.387  1.00  0.00    -0.313 N 
HETATM    4  C11 UNL     1      22.990 -12.802   0.444  1.00  0.00     0.160 C 
HETATM    5  C12 UNL     1      20.885 -12.459  -0.736  1.00  0.00     0.182 A 
HETATM    6  S3  UNL     1      21.642 -13.038  -2.089  1.00  0.00    -0.040 SA
HETATM    7  N7  UNL     1      19.599 -12.077  -0.770  1.00  0.00    -0.299 N 
ATOM      8  H7  UNL     1      19.060 -12.135  -1.634  1.00  0.00     0.171 HD
HETATM    9  C13 UNL     1      19.044 -11.623   0.346  1.00  0.00     0.263 A 
HETATM   10  O4  UNL     1      17.836 -11.271   0.293  1.00  0.00    -0.267 OA
ENDROOT
BRANCH   1  11
HETATM   11  C2  UNL     1      19.071 -11.027   2.747  1.00  0.00     0.026 C 
HETATM   12  C1  UNL     1      18.074 -11.692   3.565  1.00  0.00     0.069 C 
HETATM   13  N1  UNL     1      19.412  -9.804   3.109  1.00  0.00    -0.340 N 
ATOM     14  H1  UNL     1      20.111  -9.322   2.543  1.00  0.00     0.167 HD
BRANCH  13  15
HETATM   15  C3  UNL     1      18.884  -9.118   4.213  1.00  0.00     0.190 A 
HETATM   16  C4  UNL     1      19.381  -9.018   5.482  1.00  0.00     0.192 A 
HETATM   17  N2  UNL     1      18.542  -8.258   6.194  1.00  0.00    -0.284 N 
HETATM   18  C5  UNL     1      17.539  -7.893   5.378  1.00  0.00     0.354 A 
ATOM     19  H2  UNL     1      18.644  -8.003   7.176  1.00  0.00     0.172 HD
HETATM   20  O2  UNL     1      16.548  -7.161   5.710  1.00  0.00    -0.244 OA
HETATM   21  N3  UNL     1      17.741  -8.415   4.163  1.00  0.00    -0.151 N 
BRANCH  16  22
HETATM   22  O1  UNL     1      20.538  -9.583   5.982  1.00  0.00    -0.343 OA
ATOM     23  H1  UNL     1      21.416  -9.219   5.967  1.00  0.00     0.219 HD
ENDBRANCH  16  22
BRANCH  21  24
HETATM   24  O3  UNL     1      16.918  -8.261   3.043  1.00  0.00    -0.277 OA
ATOM     25  H3  UNL     1      16.611  -7.436   2.684  1.00  0.00     0.245 HD
ENDBRANCH  21  24
ENDBRANCH  13  15
ENDBRANCH   1  11
BRANCH   2  26
HETATM   26  N4  UNL     1      21.858 -11.889   2.668  1.00  0.00    -0.286 N 
ATOM     27  H4  UNL     1      22.156 -12.782   3.059  1.00  0.00     0.184 HD
BRANCH  26  28
HETATM   28  N5  UNL     1      22.307 -10.712   3.318  1.00  0.00    -0.113 NA
BRANCH  28  29
HETATM   29  C8  UNL     1      23.291 -10.982   4.320  1.00  0.00     0.222 C 
HETATM   30  S1  UNL     1      23.036 -12.522   5.229  1.00  0.00    -0.135 SA
HETATM   31  C9  UNL     1      24.565 -13.424   5.152  1.00  0.00     0.086 C 
HETATM   32  C10 UNL     1      25.635 -12.614   4.519  1.00  0.00     0.086 C 
HETATM   33  S2  UNL     1      24.870 -11.358   3.481  1.00  0.00    -0.135 SA
ENDBRANCH  28  29
ENDBRANCH  26  28
ENDBRANCH   2  26
TORSDOF 7
ENDMDL
