MODEL 1
REMARK VINA RESULT: -8.256867681      0.000      0.000
REMARK  6 active torsions:
REMARK  status: ('A' for Active; 'I' for Inactive)
REMARK    1  A    between atoms: C2_2  and  C5_5 
REMARK    2  A    between atoms: C5_5  and  C6_7 
REMARK    3  A    between atoms: C6_7  and  O2_10 
REMARK    4  A    between atoms: O2_10  and  N1_11 
REMARK    5  A    between atoms: C12_20  and  N4_21 
REMARK    6  A    between atoms: C15_31  and  C16_32 
ROOT
HETATM    1  N1  UNL     1      16.225   1.350   5.643  1.00  0.00    -0.174 N 
HETATM    2  N2  UNL     1      14.948   1.705   5.790  1.00  0.00    -0.272 N 
ATOM      3  H2  UNL     1      14.519   1.255   6.599  1.00  0.00     0.189 HD
HETATM    4  C9  UNL     1      14.009   2.571   5.089  1.00  0.00     0.128 A 
HETATM    5  C10 UNL     1      14.425   3.584   4.247  1.00  0.00     0.183 A 
HETATM    6  N3  UNL     1      13.491   4.343   3.632  1.00  0.00    -0.300 N 
ATOM      7  H3  UNL     1      13.773   5.097   3.005  1.00  0.00     0.171 HD
HETATM    8  C11 UNL     1      12.192   4.099   3.850  1.00  0.00     0.282 A 
HETATM    9  O3  UNL     1      11.328   4.827   3.260  1.00  0.00    -0.265 OA
HETATM   10  C12 UNL     1      11.740   3.105   4.680  1.00  0.00     0.197 A 
HETATM   11  C13 UNL     1      12.699   2.314   5.321  1.00  0.00     0.117 A 
HETATM   12  N5  UNL     1      12.301   1.298   6.191  1.00  0.00    -0.097 NA
HETATM   13  O6  UNL     1      15.735   3.991   3.897  1.00  0.00    -0.276 OA
HETATM   14  C14 UNL     1      16.868   3.409   4.450  1.00  0.00     0.157 C 
HETATM   15  N6  UNL     1      17.780   4.245   4.759  1.00  0.00    -0.381 N 
ATOM     16  H61 UNL     1      18.611   3.817   5.166  1.00  0.00     0.158 HD
ATOM     17  H62 UNL     1      17.639   5.242   4.595  1.00  0.00     0.158 HD
HETATM   18  C15 UNL     1      17.068   1.999   4.684  1.00  0.00     0.308 C 
ENDROOT
BRANCH   1  19
HETATM   19  O2  UNL     1      16.627   0.187   5.848  1.00  0.00    -0.243 OA
BRANCH  19  20
HETATM   20  C6  UNL     1      16.079  -1.016   5.837  1.00  0.00     0.144 C 
HETATM   21  C7  UNL     1      16.976  -2.171   6.155  1.00  0.00     0.057 C 
HETATM   22  C8  UNL     1      14.888  -0.976   6.828  1.00  0.00     0.057 C 
BRANCH  20  23
HETATM   23  C5  UNL     1      15.483  -1.253   4.460  1.00  0.00     0.170 C 
HETATM   24  O1  UNL     1      14.348  -0.756   4.276  1.00  0.00    -0.294 OA
BRANCH  23  25
HETATM   25  C2  UNL     1      16.039  -1.961   3.343  1.00  0.00     0.013 C 
HETATM   26  C1  UNL     1      16.364  -3.418   3.488  1.00  0.00     0.023 C 
HETATM   27  C3  UNL     1      17.252  -1.266   2.777  1.00  0.00     0.023 C 
HETATM   28  C4  UNL     1      14.998  -1.864   2.178  1.00  0.00     0.023 C 
ENDBRANCH  23  25
ENDBRANCH  20  23
ENDBRANCH  19  20
ENDBRANCH   1  19
BRANCH  18  29
HETATM   29  C16 UNL     1      18.505   1.752   5.014  1.00  0.00     0.209 C 
HETATM   30  O7  UNL     1      19.262   1.071   4.238  1.00  0.00    -0.646 OA
HETATM   31  O8  UNL     1      19.123   2.230   6.157  1.00  0.00    -0.646 OA
ENDBRANCH  18  29
BRANCH  10  32
HETATM   32  N4  UNL     1      10.384   2.825   4.928  1.00  0.00    -0.108 N 
HETATM   33  O4  UNL     1       9.809   1.953   4.270  1.00  0.00    -0.532 OA
HETATM   34  O5  UNL     1       9.705   3.510   5.888  1.00  0.00    -0.532 OA
ENDBRANCH  10  32
TORSDOF 6
ENDMDL
MODEL 2
REMARK VINA RESULT: -8.127259214      3.150      6.293
REMARK  6 active torsions:
REMARK  status: ('A' for Active; 'I' for Inactive)
REMARK    1  A    between atoms: C2_2  and  C5_5 
REMARK    2  A    between atoms: C5_5  and  C6_7 
REMARK    3  A    between atoms: C6_7  and  O2_10 
REMARK    4  A    between atoms: O2_10  and  N1_11 
REMARK    5  A    between atoms: C12_20  and  N4_21 
REMARK    6  A    between atoms: C15_31  and  C16_32 
ROOT
HETATM    1  N1  UNL     1      17.167   0.840   4.163  1.00  0.00    -0.174 N 
HETATM    2  N2  UNL     1      16.639   0.014   3.258  1.00  0.00    -0.272 N 
ATOM      3  H2  UNL     1      15.845   0.435   2.775  1.00  0.00     0.189 HD
HETATM    4  C9  UNL     1      16.911  -1.336   2.783  1.00  0.00     0.128 A 
HETATM    5  C10 UNL     1      18.136  -1.950   2.956  1.00  0.00     0.183 A 
HETATM    6  N3  UNL     1      18.307  -3.206   2.487  1.00  0.00    -0.300 N 
ATOM      7  H3  UNL     1      19.203  -3.679   2.603  1.00  0.00     0.171 HD
HETATM    8  C11 UNL     1      17.292  -3.825   1.870  1.00  0.00     0.282 A 
HETATM    9  O3  UNL     1      17.475  -5.009   1.436  1.00  0.00    -0.265 OA
HETATM   10  C12 UNL     1      16.062  -3.250   1.677  1.00  0.00     0.197 A 
HETATM   11  C13 UNL     1      15.875  -1.949   2.159  1.00  0.00     0.117 A 
HETATM   12  N5  UNL     1      14.651  -1.304   1.978  1.00  0.00    -0.097 NA
HETATM   13  O6  UNL     1      19.314  -1.462   3.572  1.00  0.00    -0.276 OA
HETATM   14  C14 UNL     1      19.412  -0.171   4.074  1.00  0.00     0.157 C 
HETATM   15  N6  UNL     1      20.523   0.400   3.815  1.00  0.00    -0.381 N 
ATOM     16  H61 UNL     1      20.594   1.349   4.183  1.00  0.00     0.158 HD
ATOM     17  H62 UNL     1      21.240  -0.091   3.283  1.00  0.00     0.158 HD
HETATM   18  C15 UNL     1      18.397   0.525   4.826  1.00  0.00     0.308 C 
ENDROOT
BRANCH   1  19
HETATM   19  O2  UNL     1      16.467   1.577   4.887  1.00  0.00    -0.243 OA
BRANCH  19  20
HETATM   20  C6  UNL     1      15.232   2.048   4.840  1.00  0.00     0.144 C 
HETATM   21  C7  UNL     1      14.128   1.043   4.754  1.00  0.00     0.057 C 
HETATM   22  C8  UNL     1      15.045   2.940   6.095  1.00  0.00     0.057 C 
BRANCH  20  23
HETATM   23  C5  UNL     1      15.121   2.970   3.639  1.00  0.00     0.170 C 
HETATM   24  O1  UNL     1      14.817   2.409   2.561  1.00  0.00    -0.294 OA
BRANCH  23  25
HETATM   25  C2  UNL     1      15.309   4.391   3.568  1.00  0.00     0.013 C 
HETATM   26  C1  UNL     1      16.447   5.016   4.318  1.00  0.00     0.023 C 
HETATM   27  C3  UNL     1      14.050   5.148   3.910  1.00  0.00     0.023 C 
HETATM   28  C4  UNL     1      15.539   4.745   2.061  1.00  0.00     0.023 C 
ENDBRANCH  23  25
ENDBRANCH  20  23
ENDBRANCH  19  20
ENDBRANCH   1  19
BRANCH  18  29
HETATM   29  C16 UNL     1      18.986   1.761   5.426  1.00  0.00     0.209 C 
HETATM   30  O7  UNL     1      19.539   1.746   6.580  1.00  0.00    -0.646 OA
HETATM   31  O8  UNL     1      18.988   2.995   4.797  1.00  0.00    -0.646 OA
ENDBRANCH  18  29
BRANCH  10  32
HETATM   32  N4  UNL     1      14.978  -3.874   1.035  1.00  0.00    -0.108 N 
HETATM   33  O4  UNL     1      15.008  -4.048  -0.187  1.00  0.00    -0.532 OA
HETATM   34  O5  UNL     1      13.898  -4.286   1.753  1.00  0.00    -0.532 OA
ENDBRANCH  10  32
TORSDOF 6
ENDMDL
MODEL 3
REMARK VINA RESULT: -8.109740210      1.083      2.129
REMARK  6 active torsions:
REMARK  status: ('A' for Active; 'I' for Inactive)
REMARK    1  A    between atoms: C2_2  and  C5_5 
REMARK    2  A    between atoms: C5_5  and  C6_7 
REMARK    3  A    between atoms: C6_7  and  O2_10 
REMARK    4  A    between atoms: O2_10  and  N1_11 
REMARK    5  A    between atoms: C12_20  and  N4_21 
REMARK    6  A    between atoms: C15_31  and  C16_32 
ROOT
HETATM    1  N1  UNL     1      16.085   0.934   5.669  1.00  0.00    -0.174 N 
HETATM    2  N2  UNL     1      14.833   1.364   5.837  1.00  0.00    -0.272 N 
ATOM      3  H2  UNL     1      14.375   0.903   6.623  1.00  0.00     0.189 HD
HETATM    4  C9  UNL     1      13.956   2.324   5.182  1.00  0.00     0.128 A 
HETATM    5  C10 UNL     1      14.438   3.349   4.391  1.00  0.00     0.183 A 
HETATM    6  N3  UNL     1      13.557   4.198   3.817  1.00  0.00    -0.300 N 
ATOM      7  H3  UNL     1      13.890   4.962   3.229  1.00  0.00     0.171 HD
HETATM    8  C11 UNL     1      12.244   4.029   4.025  1.00  0.00     0.282 A 
HETATM    9  O3  UNL     1      11.432   4.841   3.474  1.00  0.00    -0.265 OA
HETATM   10  C12 UNL     1      11.727   3.026   4.804  1.00  0.00     0.197 A 
HETATM   11  C13 UNL     1      12.631   2.142   5.403  1.00  0.00     0.117 A 
HETATM   12  N5  UNL     1      12.165   1.112   6.220  1.00  0.00    -0.097 NA
HETATM   13  O6  UNL     1      15.773   3.686   4.061  1.00  0.00    -0.276 OA
HETATM   14  C14 UNL     1      16.864   3.003   4.582  1.00  0.00     0.157 C 
HETATM   15  N6  UNL     1      17.828   3.761   4.931  1.00  0.00    -0.381 N 
ATOM     16  H61 UNL     1      18.630   3.259   5.314  1.00  0.00     0.158 HD
ATOM     17  H62 UNL     1      17.753   4.772   4.817  1.00  0.00     0.158 HD
HETATM   18  C15 UNL     1      16.971   1.573   4.743  1.00  0.00     0.308 C 
ENDROOT
BRANCH   1  19
HETATM   19  O2  UNL     1      16.409  -0.263   5.815  1.00  0.00    -0.243 OA
BRANCH  19  20
HETATM   20  C6  UNL     1      15.847  -1.431   5.556  1.00  0.00     0.144 C 
HETATM   21  C7  UNL     1      14.625  -1.783   6.344  1.00  0.00     0.057 C 
HETATM   22  C8  UNL     1      15.528  -1.448   4.039  1.00  0.00     0.057 C 
BRANCH  20  23
HETATM   23  C5  UNL     1      16.882  -2.518   5.789  1.00  0.00     0.170 C 
HETATM   24  O1  UNL     1      17.079  -3.285   4.819  1.00  0.00    -0.294 OA
BRANCH  23  25
HETATM   25  C2  UNL     1      17.666  -2.785   6.960  1.00  0.00     0.013 C 
HETATM   26  C1  UNL     1      17.004  -2.760   8.305  1.00  0.00     0.023 C 
HETATM   27  C3  UNL     1      18.897  -1.915   7.030  1.00  0.00     0.023 C 
HETATM   28  C4  UNL     1      18.256  -4.224   6.795  1.00  0.00     0.023 C 
ENDBRANCH  23  25
ENDBRANCH  20  23
ENDBRANCH  19  20
ENDBRANCH   1  19
BRANCH  18  29
HETATM   29  C16 UNL     1      18.387   1.216   5.058  1.00  0.00     0.209 C 
HETATM   30  O7  UNL     1      19.097   0.520   4.251  1.00  0.00    -0.646 OA
HETATM   31  O8  UNL     1      19.037   1.601   6.219  1.00  0.00    -0.646 OA
ENDBRANCH  18  29
BRANCH  10  32
HETATM   32  N4  UNL     1      10.355   2.823   5.039  1.00  0.00    -0.108 N 
HETATM   33  O4  UNL     1       9.735   1.992   4.371  1.00  0.00    -0.532 OA
HETATM   34  O5  UNL     1       9.710   3.540   5.999  1.00  0.00    -0.532 OA
ENDBRANCH  10  32
TORSDOF 6
ENDMDL
MODEL 4
REMARK VINA RESULT: -8.106839131      1.030      2.241
REMARK  6 active torsions:
REMARK  status: ('A' for Active; 'I' for Inactive)
REMARK    1  A    between atoms: C2_2  and  C5_5 
REMARK    2  A    between atoms: C5_5  and  C6_7 
REMARK    3  A    between atoms: C6_7  and  O2_10 
REMARK    4  A    between atoms: O2_10  and  N1_11 
REMARK    5  A    between atoms: C12_20  and  N4_21 
REMARK    6  A    between atoms: C15_31  and  C16_32 
ROOT
HETATM    1  N1  UNL     1      16.148   1.093   5.641  1.00  0.00    -0.174 N 
HETATM    2  N2  UNL     1      14.888   1.496   5.811  1.00  0.00    -0.272 N 
ATOM      3  H2  UNL     1      14.439   1.024   6.595  1.00  0.00     0.189 HD
HETATM    4  C9  UNL     1      13.990   2.441   5.160  1.00  0.00     0.128 A 
HETATM    5  C10 UNL     1      14.451   3.479   4.373  1.00  0.00     0.183 A 
HETATM    6  N3  UNL     1      13.552   4.311   3.802  1.00  0.00    -0.300 N 
ATOM      7  H3  UNL     1      13.869   5.084   3.216  1.00  0.00     0.171 HD
HETATM    8  C11 UNL     1      12.244   4.115   4.010  1.00  0.00     0.282 A 
HETATM    9  O3  UNL     1      11.414   4.912   3.462  1.00  0.00    -0.265 OA
HETATM   10  C12 UNL     1      11.747   3.099   4.785  1.00  0.00     0.197 A 
HETATM   11  C13 UNL     1      12.669   2.231   5.381  1.00  0.00     0.117 A 
HETATM   12  N5  UNL     1      12.226   1.188   6.194  1.00  0.00    -0.097 NA
HETATM   13  O6  UNL     1      15.778   3.844   4.043  1.00  0.00    -0.276 OA
HETATM   14  C14 UNL     1      16.884   3.182   4.561  1.00  0.00     0.157 C 
HETATM   15  N6  UNL     1      17.832   3.958   4.912  1.00  0.00    -0.381 N 
ATOM     16  H61 UNL     1      18.644   3.471   5.293  1.00  0.00     0.158 HD
ATOM     17  H62 UNL     1      17.737   4.968   4.803  1.00  0.00     0.158 HD
HETATM   18  C15 UNL     1      17.020   1.754   4.717  1.00  0.00     0.308 C 
ENDROOT
BRANCH   1  19
HETATM   19  O2  UNL     1      16.497  -0.097   5.783  1.00  0.00    -0.243 OA
BRANCH  19  20
HETATM   20  C6  UNL     1      16.055  -1.267   5.354  1.00  0.00     0.144 C 
HETATM   21  C7  UNL     1      15.179  -1.257   4.142  1.00  0.00     0.057 C 
HETATM   22  C8  UNL     1      17.302  -2.153   5.104  1.00  0.00     0.057 C 
BRANCH  20  23
HETATM   23  C5  UNL     1      15.282  -1.925   6.484  1.00  0.00     0.170 C 
HETATM   24  O1  UNL     1      14.094  -1.548   6.609  1.00  0.00    -0.294 OA
BRANCH  23  25
HETATM   25  C2  UNL     1      15.719  -2.919   7.421  1.00  0.00     0.013 C 
HETATM   26  C1  UNL     1      17.032  -2.736   8.122  1.00  0.00     0.023 C 
HETATM   27  C3  UNL     1      15.694  -4.307   6.830  1.00  0.00     0.023 C 
HETATM   28  C4  UNL     1      14.635  -2.993   8.547  1.00  0.00     0.023 C 
ENDBRANCH  23  25
ENDBRANCH  20  23
ENDBRANCH  19  20
ENDBRANCH   1  19
BRANCH  18  29
HETATM   29  C16 UNL     1      18.444   1.424   5.030  1.00  0.00     0.209 C 
HETATM   30  O7  UNL     1      19.171   0.759   4.214  1.00  0.00    -0.646 OA
HETATM   31  O8  UNL     1      19.081   1.806   6.199  1.00  0.00    -0.646 OA
ENDBRANCH  18  29
BRANCH  10  32
HETATM   32  N4  UNL     1      10.380   2.867   5.021  1.00  0.00    -0.108 N 
HETATM   33  O4  UNL     1       9.786   3.525   5.879  1.00  0.00    -0.532 OA
HETATM   34  O5  UNL     1       9.711   1.920   4.308  1.00  0.00    -0.532 OA
ENDBRANCH  10  32
TORSDOF 6
ENDMDL
MODEL 5
REMARK VINA RESULT: -7.774625535      5.189      8.030
REMARK  6 active torsions:
REMARK  status: ('A' for Active; 'I' for Inactive)
REMARK    1  A    between atoms: C2_2  and  C5_5 
REMARK    2  A    between atoms: C5_5  and  C6_7 
REMARK    3  A    between atoms: C6_7  and  O2_10 
REMARK    4  A    between atoms: O2_10  and  N1_11 
REMARK    5  A    between atoms: C12_20  and  N4_21 
REMARK    6  A    between atoms: C15_31  and  C16_32 
ROOT
HETATM    1  N1  UNL     1      17.585  -2.688   2.854  1.00  0.00    -0.174 N 
HETATM    2  N2  UNL     1      17.279  -3.080   1.616  1.00  0.00    -0.272 N 
ATOM      3  H2  UNL     1      16.277  -3.026   1.436  1.00  0.00     0.189 HD
HETATM    4  C9  UNL     1      18.015  -3.564   0.456  1.00  0.00     0.128 A 
HETATM    5  C10 UNL     1      19.368  -3.341   0.290  1.00  0.00     0.183 A 
HETATM    6  N3  UNL     1      19.978  -3.826  -0.815  1.00  0.00    -0.300 N 
ATOM      7  H3  UNL     1      20.976  -3.673  -0.958  1.00  0.00     0.171 HD
HETATM    8  C11 UNL     1      19.262  -4.508  -1.719  1.00  0.00     0.282 A 
HETATM    9  O3  UNL     1      19.857  -4.956  -2.753  1.00  0.00    -0.265 OA
HETATM   10  C12 UNL     1      17.918  -4.749  -1.592  1.00  0.00     0.197 A 
HETATM   11  C13 UNL     1      17.278  -4.251  -0.451  1.00  0.00     0.117 A 
HETATM   12  N5  UNL     1      15.909  -4.450  -0.274  1.00  0.00    -0.097 NA
HETATM   13  O6  UNL     1      20.280  -2.649   1.124  1.00  0.00    -0.276 OA
HETATM   14  C14 UNL     1      19.883  -2.003   2.287  1.00  0.00     0.157 C 
HETATM   15  N6  UNL     1      20.429  -0.863   2.456  1.00  0.00    -0.381 N 
ATOM     16  H61 UNL     1      20.137  -0.388   3.310  1.00  0.00     0.158 HD
ATOM     17  H62 UNL     1      21.091  -0.504   1.768  1.00  0.00     0.158 HD
HETATM   18  C15 UNL     1      18.946  -2.510   3.261  1.00  0.00     0.308 C 
ENDROOT
BRANCH   1  19
HETATM   19  O2  UNL     1      16.877  -2.972   3.842  1.00  0.00    -0.243 OA
BRANCH  19  20
HETATM   20  C6  UNL     1      15.579  -3.027   4.088  1.00  0.00     0.144 C 
HETATM   21  C7  UNL     1      14.680  -3.283   2.920  1.00  0.00     0.057 C 
HETATM   22  C8  UNL     1      15.374  -4.120   5.169  1.00  0.00     0.057 C 
BRANCH  20  23
HETATM   23  C5  UNL     1      15.159  -1.713   4.722  1.00  0.00     0.170 C 
HETATM   24  O1  UNL     1      14.713  -0.854   3.927  1.00  0.00    -0.294 OA
BRANCH  23  25
HETATM   25  C2  UNL     1      15.197  -1.321   6.102  1.00  0.00     0.013 C 
HETATM   26  C1  UNL     1      16.312  -1.817   6.972  1.00  0.00     0.023 C 
HETATM   27  C3  UNL     1      13.893  -1.601   6.807  1.00  0.00     0.023 C 
HETATM   28  C4  UNL     1      15.289   0.241   6.130  1.00  0.00     0.023 C 
ENDBRANCH  23  25
ENDBRANCH  20  23
ENDBRANCH  19  20
ENDBRANCH   1  19
BRANCH  18  29
HETATM   29  C16 UNL     1      19.007  -1.664   4.492  1.00  0.00     0.209 C 
HETATM   30  O7  UNL     1      19.599  -2.069   5.552  1.00  0.00    -0.646 OA
HETATM   31  O8  UNL     1      18.447  -0.402   4.585  1.00  0.00    -0.646 OA
ENDBRANCH  18  29
BRANCH  10  32
HETATM   32  N4  UNL     1      17.142  -5.462  -2.522  1.00  0.00    -0.108 N 
HETATM   33  O4  UNL     1      16.599  -4.862  -3.455  1.00  0.00    -0.532 OA
HETATM   34  O5  UNL     1      16.985  -6.808  -2.399  1.00  0.00    -0.532 OA
ENDBRANCH  10  32
TORSDOF 6
ENDMDL
