MODEL 1
REMARK VINA RESULT: -6.181105558      0.000      0.000
REMARK  7 active torsions:
REMARK  status: ('A' for Active; 'I' for Inactive)
REMARK    1  A    between atoms: N1_1  and  C1_4 
REMARK    2  A    between atoms: C4_9  and  N3_10 
REMARK    3  A    between atoms: N3_10  and  C5_11 
REMARK    4  A    between atoms: N3_10  and  C7_17 
REMARK    5  A    between atoms: C5_11  and  C6_12 
REMARK    6  A    between atoms: C6_12  and  N4_13 
REMARK    7  A    between atoms: C7_17  and  C8_18 
ROOT
HETATM    1  N3  UNL     1      -8.918  15.515 -35.367  1.00  0.00    -0.365 N 
ENDROOT
BRANCH   1   2
HETATM    2  C4  UNL     1      -8.070  14.383 -35.355  1.00  0.00     0.105 A 
HETATM    3  N2  UNL     1      -7.376  14.167 -34.210  1.00  0.00    -0.352 N 
HETATM    4  C3  UNL     1      -6.549  13.124 -34.077  1.00  0.00     0.092 A 
ATOM      5  H2  UNL     1      -7.487  14.816 -33.431  1.00  0.00     0.166 HD
HETATM    6  C2  UNL     1      -6.376  12.234 -35.109  1.00  0.00     0.046 A 
HETATM    7  C1  UNL     1      -7.061  12.421 -36.283  1.00  0.00     0.030 A 
HETATM    8  C13 UNL     1      -7.912  13.518 -36.380  1.00  0.00     0.077 A 
BRANCH   7   9
HETATM    9  N1  UNL     1      -6.898  11.595 -37.241  1.00  0.00    -0.399 N 
ATOM     10  H12 UNL     1      -6.678  10.611 -37.084  1.00  0.00     0.156 HD
ATOM     11  H11 UNL     1      -6.990  11.921 -38.203  1.00  0.00     0.156 HD
ENDBRANCH   7   9
ENDBRANCH   1   2
BRANCH   1  12
HETATM   12  C5  UNL     1      -9.816  15.678 -34.274  1.00  0.00     0.151 C 
BRANCH  12  13
HETATM   13  C6  UNL     1     -10.946  14.738 -34.142  1.00  0.00     0.249 C 
BRANCH  13  14
HETATM   14  N4  UNL     1     -11.588  14.983 -32.847  1.00  0.00    -0.078 N 
ATOM     15  H43 UNL     1     -12.067  14.160 -32.482  1.00  0.00     0.274 HD
ATOM     16  H42 UNL     1     -10.915  15.097 -32.088  1.00  0.00     0.274 HD
ATOM     17  H41 UNL     1     -12.207  15.786 -32.950  1.00  0.00     0.274 HD
ENDBRANCH  13  14
ENDBRANCH  12  13
ENDBRANCH   1  12
BRANCH   1  18
HETATM   18  C7  UNL     1      -8.790  16.434 -36.433  1.00  0.00     0.129 C 
BRANCH  18  19
HETATM   19  C8  UNL     1      -7.499  17.083 -36.723  1.00  0.00     0.004 C 
HETATM   20  C9  UNL     1      -7.466  18.571 -36.727  1.00  0.00     0.006 C 
HETATM   21  C10 UNL     1      -6.495  18.955 -37.840  1.00  0.00     0.000 C 
HETATM   22  C11 UNL     1      -7.027  18.023 -38.925  1.00  0.00     0.000 C 
HETATM   23  C12 UNL     1      -7.177  16.729 -38.196  1.00  0.00     0.006 C 
ENDBRANCH  18  19
ENDBRANCH   1  18
TORSDOF 7
ENDMDL
MODEL 2
REMARK VINA RESULT: -6.068847096      1.594      2.376
REMARK  7 active torsions:
REMARK  status: ('A' for Active; 'I' for Inactive)
REMARK    1  A    between atoms: N1_1  and  C1_4 
REMARK    2  A    between atoms: C4_9  and  N3_10 
REMARK    3  A    between atoms: N3_10  and  C5_11 
REMARK    4  A    between atoms: N3_10  and  C7_17 
REMARK    5  A    between atoms: C5_11  and  C6_12 
REMARK    6  A    between atoms: C6_12  and  N4_13 
REMARK    7  A    between atoms: C7_17  and  C8_18 
ROOT
HETATM    1  N3  UNL     1      -8.825  15.264 -36.455  1.00  0.00    -0.365 N 
ENDROOT
BRANCH   1   2
HETATM    2  C4  UNL     1      -8.023  14.232 -35.918  1.00  0.00     0.105 A 
HETATM    3  N2  UNL     1      -7.816  13.156 -36.717  1.00  0.00    -0.352 N 
HETATM    4  C3  UNL     1      -7.067  12.120 -36.321  1.00  0.00     0.092 A 
ATOM      5  H2  UNL     1      -8.243  13.135 -37.643  1.00  0.00     0.166 HD
HETATM    6  C2  UNL     1      -6.481  12.118 -35.077  1.00  0.00     0.046 A 
HETATM    7  C1  UNL     1      -6.669  13.188 -34.241  1.00  0.00     0.030 A 
HETATM    8  C13 UNL     1      -7.455  14.245 -34.693  1.00  0.00     0.077 A 
BRANCH   7   9
HETATM    9  N1  UNL     1      -6.127  13.184 -33.087  1.00  0.00    -0.399 N 
ATOM     10  H12 UNL     1      -6.661  13.332 -32.231  1.00  0.00     0.156 HD
ATOM     11  H11 UNL     1      -5.122  13.025 -33.008  1.00  0.00     0.156 HD
ENDBRANCH   7   9
ENDBRANCH   1   2
BRANCH   1  12
HETATM   12  C5  UNL     1      -9.979  14.884 -37.199  1.00  0.00     0.151 C 
BRANCH  12  13
HETATM   13  C6  UNL     1     -11.295  14.927 -36.532  1.00  0.00     0.249 C 
BRANCH  13  14
HETATM   14  N4  UNL     1     -11.998  16.126 -36.998  1.00  0.00    -0.078 N 
ATOM     15  H43 UNL     1     -12.302  16.728 -36.233  1.00  0.00     0.274 HD
ATOM     16  H42 UNL     1     -11.379  16.793 -37.459  1.00  0.00     0.274 HD
ATOM     17  H41 UNL     1     -12.769  15.826 -37.594  1.00  0.00     0.274 HD
ENDBRANCH  13  14
ENDBRANCH  12  13
ENDBRANCH   1  12
BRANCH   1  18
HETATM   18  C7  UNL     1      -8.463  16.603 -36.182  1.00  0.00     0.129 C 
BRANCH  18  19
HETATM   19  C8  UNL     1      -8.297  17.580 -37.274  1.00  0.00     0.004 C 
HETATM   20  C9  UNL     1      -7.359  17.226 -38.374  1.00  0.00     0.006 C 
HETATM   21  C10 UNL     1      -6.683  18.535 -38.771  1.00  0.00     0.000 C 
HETATM   22  C11 UNL     1      -6.344  19.039 -37.371  1.00  0.00     0.000 C 
HETATM   23  C12 UNL     1      -7.618  18.813 -36.627  1.00  0.00     0.006 C 
ENDBRANCH  18  19
ENDBRANCH   1  18
TORSDOF 7
ENDMDL
MODEL 3
REMARK VINA RESULT: -5.967936359      1.780      2.230
REMARK  7 active torsions:
REMARK  status: ('A' for Active; 'I' for Inactive)
REMARK    1  A    between atoms: N1_1  and  C1_4 
REMARK    2  A    between atoms: C4_9  and  N3_10 
REMARK    3  A    between atoms: N3_10  and  C5_11 
REMARK    4  A    between atoms: N3_10  and  C7_17 
REMARK    5  A    between atoms: C5_11  and  C6_12 
REMARK    6  A    between atoms: C6_12  and  N4_13 
REMARK    7  A    between atoms: C7_17  and  C8_18 
ROOT
HETATM    1  N3  UNL     1      -7.852  15.083 -37.297  1.00  0.00    -0.365 N 
ENDROOT
BRANCH   1   2
HETATM    2  C4  UNL     1      -7.140  14.379 -36.300  1.00  0.00     0.105 A 
HETATM    3  N2  UNL     1      -6.221  15.093 -35.603  1.00  0.00    -0.352 N 
HETATM    4  C3  UNL     1      -5.492  14.537 -34.629  1.00  0.00     0.092 A 
ATOM      5  H2  UNL     1      -6.082  16.078 -35.828  1.00  0.00     0.166 HD
HETATM    6  C2  UNL     1      -5.654  13.211 -34.305  1.00  0.00     0.046 A 
HETATM    7  C1  UNL     1      -6.573  12.458 -34.989  1.00  0.00     0.030 A 
HETATM    8  C13 UNL     1      -7.312  13.075 -35.995  1.00  0.00     0.077 A 
BRANCH   7   9
HETATM    9  N1  UNL     1      -6.721  11.227 -34.688  1.00  0.00    -0.399 N 
ATOM     10  H12 UNL     1      -6.888  10.508 -35.393  1.00  0.00     0.156 HD
ATOM     11  H11 UNL     1      -6.671  10.942 -33.710  1.00  0.00     0.156 HD
ENDBRANCH   7   9
ENDBRANCH   1   2
BRANCH   1  12
HETATM   12  C5  UNL     1      -9.255  14.856 -37.390  1.00  0.00     0.151 C 
BRANCH  12  13
HETATM   13  C6  UNL     1     -10.124  15.354 -36.306  1.00  0.00     0.249 C 
BRANCH  13  14
HETATM   14  N4  UNL     1     -11.078  16.302 -36.889  1.00  0.00    -0.078 N 
ATOM     15  H43 UNL     1     -10.641  17.180 -37.167  1.00  0.00     0.274 HD
ATOM     16  H42 UNL     1     -11.405  16.015 -37.812  1.00  0.00     0.274 HD
ATOM     17  H41 UNL     1     -11.839  16.432 -36.224  1.00  0.00     0.274 HD
ENDBRANCH  13  14
ENDBRANCH  12  13
ENDBRANCH   1  12
BRANCH   1  18
HETATM   18  C7  UNL     1      -7.142  15.998 -38.106  1.00  0.00     0.129 C 
BRANCH  18  19
HETATM   19  C8  UNL     1      -7.558  17.410 -38.198  1.00  0.00     0.004 C 
HETATM   20  C9  UNL     1      -6.594  18.370 -38.801  1.00  0.00     0.006 C 
HETATM   21  C10 UNL     1      -6.763  19.666 -38.012  1.00  0.00     0.000 C 
HETATM   22  C11 UNL     1      -6.743  19.070 -36.607  1.00  0.00     0.000 C 
HETATM   23  C12 UNL     1      -7.669  17.906 -36.735  1.00  0.00     0.006 C 
ENDBRANCH  18  19
ENDBRANCH   1  18
TORSDOF 7
ENDMDL
MODEL 4
REMARK VINA RESULT: -5.854389185      1.630      5.003
REMARK  7 active torsions:
REMARK  status: ('A' for Active; 'I' for Inactive)
REMARK    1  A    between atoms: N1_1  and  C1_4 
REMARK    2  A    between atoms: C4_9  and  N3_10 
REMARK    3  A    between atoms: N3_10  and  C5_11 
REMARK    4  A    between atoms: N3_10  and  C7_17 
REMARK    5  A    between atoms: C5_11  and  C6_12 
REMARK    6  A    between atoms: C6_12  and  N4_13 
REMARK    7  A    between atoms: C7_17  and  C8_18 
ROOT
HETATM    1  N3  UNL     1      -8.080  14.205 -35.923  1.00  0.00    -0.365 N 
ENDROOT
BRANCH   1   2
HETATM    2  C4  UNL     1      -7.953  15.349 -36.744  1.00  0.00     0.105 A 
HETATM    3  N2  UNL     1      -8.145  15.157 -38.073  1.00  0.00    -0.352 N 
HETATM    4  C3  UNL     1      -8.060  16.166 -38.947  1.00  0.00     0.092 A 
ATOM      5  H2  UNL     1      -8.361  14.221 -38.414  1.00  0.00     0.166 HD
HETATM    6  C2  UNL     1      -7.769  17.439 -38.519  1.00  0.00     0.046 A 
HETATM    7  C1  UNL     1      -7.566  17.670 -37.182  1.00  0.00     0.030 A 
HETATM    8  C13 UNL     1      -7.666  16.593 -36.306  1.00  0.00     0.077 A 
BRANCH   7   9
HETATM    9  N1  UNL     1      -7.294  18.852 -36.786  1.00  0.00    -0.399 N 
ATOM     10  H12 UNL     1      -7.431  19.672 -37.377  1.00  0.00     0.156 HD
ATOM     11  H11 UNL     1      -6.927  18.991 -35.844  1.00  0.00     0.156 HD
ENDBRANCH   7   9
ENDBRANCH   1   2
BRANCH   1  12
HETATM   12  C5  UNL     1      -8.908  14.310 -34.769  1.00  0.00     0.151 C 
BRANCH  12  13
HETATM   13  C6  UNL     1     -10.316  14.717 -34.946  1.00  0.00     0.249 C 
BRANCH  13  14
HETATM   14  N4  UNL     1     -10.663  15.631 -33.853  1.00  0.00    -0.078 N 
ATOM     15  H43 UNL     1     -11.016  16.528 -34.185  1.00  0.00     0.274 HD
ATOM     16  H42 UNL     1     -11.496  15.337 -33.342  1.00  0.00     0.274 HD
ATOM     17  H41 UNL     1      -9.845  15.727 -33.252  1.00  0.00     0.274 HD
ENDBRANCH  13  14
ENDBRANCH  12  13
ENDBRANCH   1  12
BRANCH   1  18
HETATM   18  C7  UNL     1      -7.419  13.021 -36.320  1.00  0.00     0.129 C 
BRANCH  18  19
HETATM   19  C8  UNL     1      -6.249  12.520 -35.575  1.00  0.00     0.004 C 
HETATM   20  C9  UNL     1      -6.509  11.741 -34.334  1.00  0.00     0.006 C 
HETATM   21  C10 UNL     1      -5.396  12.133 -33.366  1.00  0.00     0.000 C 
HETATM   22  C11 UNL     1      -5.462  13.645 -33.559  1.00  0.00     0.000 C 
HETATM   23  C12 UNL     1      -5.524  13.781 -35.044  1.00  0.00     0.006 C 
ENDBRANCH  18  19
ENDBRANCH   1  18
TORSDOF 7
ENDMDL
MODEL 5
REMARK VINA RESULT: -5.852953084      0.929      1.660
REMARK  7 active torsions:
REMARK  status: ('A' for Active; 'I' for Inactive)
REMARK    1  A    between atoms: N1_1  and  C1_4 
REMARK    2  A    between atoms: C4_9  and  N3_10 
REMARK    3  A    between atoms: N3_10  and  C5_11 
REMARK    4  A    between atoms: N3_10  and  C7_17 
REMARK    5  A    between atoms: C5_11  and  C6_12 
REMARK    6  A    between atoms: C6_12  and  N4_13 
REMARK    7  A    between atoms: C7_17  and  C8_18 
ROOT
HETATM    1  N3  UNL     1      -9.451  15.103 -35.804  1.00  0.00    -0.365 N 
ENDROOT
BRANCH   1   2
HETATM    2  C4  UNL     1      -8.390  14.201 -35.563  1.00  0.00     0.105 A 
HETATM    3  N2  UNL     1      -8.127  13.307 -36.548  1.00  0.00    -0.352 N 
HETATM    4  C3  UNL     1      -7.141  12.409 -36.438  1.00  0.00     0.092 A 
ATOM      5  H2  UNL     1      -8.696  13.318 -37.395  1.00  0.00     0.166 HD
HETATM    6  C2  UNL     1      -6.360  12.366 -35.308  1.00  0.00     0.046 A 
HETATM    7  C1  UNL     1      -6.597  13.254 -34.290  1.00  0.00     0.030 A 
HETATM    8  C13 UNL     1      -7.631  14.173 -34.446  1.00  0.00     0.077 A 
BRANCH   7   9
HETATM    9  N1  UNL     1      -5.872  13.212 -33.242  1.00  0.00    -0.399 N 
ATOM     10  H12 UNL     1      -6.256  13.007 -32.319  1.00  0.00     0.156 HD
ATOM     11  H11 UNL     1      -4.870  13.387 -33.319  1.00  0.00     0.156 HD
ENDBRANCH   7   9
ENDBRANCH   1   2
BRANCH   1  12
HETATM   12  C5  UNL     1     -10.685  14.864 -35.136  1.00  0.00     0.151 C 
BRANCH  12  13
HETATM   13  C6  UNL     1     -10.810  15.258 -33.719  1.00  0.00     0.249 C 
BRANCH  13  14
HETATM   14  N4  UNL     1     -11.952  14.539 -33.148  1.00  0.00    -0.078 N 
ATOM     15  H43 UNL     1     -12.363  13.870 -33.799  1.00  0.00     0.274 HD
ATOM     16  H42 UNL     1     -11.679  13.874 -32.424  1.00  0.00     0.274 HD
ATOM     17  H41 UNL     1     -12.625  15.230 -32.816  1.00  0.00     0.274 HD
ENDBRANCH  13  14
ENDBRANCH  12  13
ENDBRANCH   1  12
BRANCH   1  18
HETATM   18  C7  UNL     1      -9.209  16.209 -36.651  1.00  0.00     0.129 C 
BRANCH  18  19
HETATM   19  C8  UNL     1      -7.869  16.816 -36.741  1.00  0.00     0.004 C 
HETATM   20  C9  UNL     1      -7.778  18.297 -36.621  1.00  0.00     0.006 C 
HETATM   21  C10 UNL     1      -6.671  18.717 -37.583  1.00  0.00     0.000 C 
HETATM   22  C11 UNL     1      -7.109  17.896 -38.792  1.00  0.00     0.000 C 
HETATM   23  C12 UNL     1      -7.393  16.559 -38.192  1.00  0.00     0.006 C 
ENDBRANCH  18  19
ENDBRANCH   1  18
TORSDOF 7
ENDMDL
