MODEL 1
REMARK VINA RESULT: -7.110557408      0.000      0.000
REMARK  7 active torsions:
REMARK  status: ('A' for Active; 'I' for Inactive)
REMARK    1  A    between atoms: S1_2  and  C2_3 
REMARK    2  A    between atoms: C2_3  and  O2_5 
REMARK    3  A    between atoms: O2_5  and  C3_6 
REMARK    4  A    between atoms: C5_8  and  C6_9 
REMARK    5  A    between atoms: C7_12  and  N1_13 
REMARK       I    between atoms: N1_13  and  C8_15 
REMARK    6  A    between atoms: C8_15  and  C9_17 
REMARK       I    between atoms: C9_17  and  N2_19 
REMARK    7  A    between atoms: N2_19  and  C10_21 
ROOT
HETATM    1  N1  UNL     1       6.070  10.110  25.117  1.00  0.00    -0.345 N 
ATOM      2  H1  UNL     1       5.194  10.571  25.362  1.00  0.00     0.163 HD
HETATM    3  C8  UNL     1       6.851  10.686  24.066  1.00  0.00     0.309 C 
HETATM    4  O5  UNL     1       7.943  10.194  23.695  1.00  0.00    -0.262 OA
ENDROOT
BRANCH   1   5
HETATM    5  C7  UNL     1       6.426   8.947  25.843  1.00  0.00     0.129 C 
HETATM    6  C3  UNL     1       5.293   8.002  26.192  1.00  0.00     0.157 C 
HETATM    7  C4  UNL     1       5.348   8.520  27.617  1.00  0.00     0.052 C 
HETATM    8  C5  UNL     1       6.703   9.086  27.311  1.00  0.00     0.114 C 
BRANCH   6   9
HETATM    9  O2  UNL     1       5.718   6.657  26.050  1.00  0.00    -0.305 OA
BRANCH   9  10
HETATM   10  C2  UNL     1       6.344   6.185  24.910  1.00  0.00     0.322 C 
HETATM   11  O1  UNL     1       7.461   5.629  25.064  1.00  0.00    -0.252 OA
BRANCH  10  12
HETATM   12  S1  UNL     1       5.617   6.346  23.282  1.00  0.00    -0.066 SA
HETATM   13  C1  UNL     1       6.686   7.287  22.176  1.00  0.00     0.101 C 
ENDBRANCH  10  12
ENDBRANCH   9  10
ENDBRANCH   6   9
BRANCH   8  14
HETATM   14  C6  UNL     1       7.765   8.172  27.817  1.00  0.00     0.179 C 
HETATM   15  O3  UNL     1       7.699   7.578  28.908  1.00  0.00    -0.648 OA
HETATM   16  O4  UNL     1       8.881   7.989  27.009  1.00  0.00    -0.648 OA
ENDBRANCH   8  14
ENDBRANCH   1   5
BRANCH   3  17
HETATM   17  C9  UNL     1       6.413  11.881  23.373  1.00  0.00     0.309 C 
HETATM   18  O6  UNL     1       5.547  12.663  23.865  1.00  0.00    -0.262 OA
HETATM   19  N2  UNL     1       6.969  12.184  22.106  1.00  0.00    -0.348 N 
ATOM     20  H2  UNL     1       7.667  11.559  21.703  1.00  0.00     0.163 HD
BRANCH  19  21
HETATM   21  C10 UNL     1       6.565  13.366  21.370  1.00  0.00     0.084 C 
HETATM   22  C11 UNL     1       6.463  12.972  19.911  1.00  0.00     0.025 C 
HETATM   23  C12 UNL     1       6.600  14.239  19.089  1.00  0.00     0.002 C 
HETATM   24  C13 UNL     1       5.993  15.369  19.878  1.00  0.00     0.000 C 
HETATM   25  C14 UNL     1       6.829  15.771  21.066  1.00  0.00     0.002 C 
HETATM   26  C15 UNL     1       7.534  14.513  21.554  1.00  0.00     0.025 C 
ENDBRANCH  19  21
ENDBRANCH   3  17
TORSDOF 7
ENDMDL
MODEL 2
REMARK VINA RESULT: -6.873274138      0.970      1.298
REMARK  7 active torsions:
REMARK  status: ('A' for Active; 'I' for Inactive)
REMARK    1  A    between atoms: S1_2  and  C2_3 
REMARK    2  A    between atoms: C2_3  and  O2_5 
REMARK    3  A    between atoms: O2_5  and  C3_6 
REMARK    4  A    between atoms: C5_8  and  C6_9 
REMARK    5  A    between atoms: C7_12  and  N1_13 
REMARK       I    between atoms: N1_13  and  C8_15 
REMARK    6  A    between atoms: C8_15  and  C9_17 
REMARK       I    between atoms: C9_17  and  N2_19 
REMARK    7  A    between atoms: N2_19  and  C10_21 
ROOT
HETATM    1  N1  UNL     1       5.983  10.179  24.969  1.00  0.00    -0.345 N 
ATOM      2  H1  UNL     1       5.112  10.648  25.220  1.00  0.00     0.163 HD
HETATM    3  C8  UNL     1       6.804  10.794  23.973  1.00  0.00     0.309 C 
HETATM    4  O5  UNL     1       7.891  10.295  23.599  1.00  0.00    -0.262 OA
ENDROOT
BRANCH   1   5
HETATM    5  C7  UNL     1       6.291   8.966  25.633  1.00  0.00     0.129 C 
HETATM    6  C3  UNL     1       5.111   8.157  26.134  1.00  0.00     0.157 C 
HETATM    7  C4  UNL     1       5.426   8.634  27.540  1.00  0.00     0.052 C 
HETATM    8  C5  UNL     1       6.784   9.040  27.049  1.00  0.00     0.114 C 
BRANCH   6   9
HETATM    9  O2  UNL     1       5.344   6.774  25.929  1.00  0.00    -0.305 OA
BRANCH   9  10
HETATM   10  C2  UNL     1       5.652   6.242  24.689  1.00  0.00     0.322 C 
HETATM   11  O1  UNL     1       5.072   6.746  23.694  1.00  0.00    -0.252 OA
BRANCH  10  12
HETATM   12  S1  UNL     1       6.821   4.900  24.487  1.00  0.00    -0.066 SA
HETATM   13  C1  UNL     1       6.221   3.681  23.302  1.00  0.00     0.101 C 
ENDBRANCH  10  12
ENDBRANCH   9  10
ENDBRANCH   6   9
BRANCH   8  14
HETATM   14  C6  UNL     1       7.787   7.995  27.397  1.00  0.00     0.179 C 
HETATM   15  O3  UNL     1       8.507   7.425  26.559  1.00  0.00    -0.648 OA
HETATM   16  O4  UNL     1       7.905   7.654  28.740  1.00  0.00    -0.648 OA
ENDBRANCH   8  14
ENDBRANCH   1   5
BRANCH   3  17
HETATM   17  C9  UNL     1       6.412  12.039  23.341  1.00  0.00     0.309 C 
HETATM   18  O6  UNL     1       5.593  12.838  23.882  1.00  0.00    -0.262 OA
HETATM   19  N2  UNL     1       6.964  12.372  22.079  1.00  0.00    -0.348 N 
ATOM     20  H2  UNL     1       7.625  11.734  21.638  1.00  0.00     0.163 HD
BRANCH  19  21
HETATM   21  C10 UNL     1       6.606  13.604  21.404  1.00  0.00     0.084 C 
HETATM   22  C11 UNL     1       6.422  13.274  19.937  1.00  0.00     0.025 C 
HETATM   23  C12 UNL     1       6.606  14.561  19.157  1.00  0.00     0.002 C 
HETATM   24  C13 UNL     1       6.102  15.694  20.010  1.00  0.00     0.000 C 
HETATM   25  C14 UNL     1       7.008  15.999  21.177  1.00  0.00     0.002 C 
HETATM   26  C15 UNL     1       7.651  14.682  21.589  1.00  0.00     0.025 C 
ENDBRANCH  19  21
ENDBRANCH   3  17
TORSDOF 7
ENDMDL
MODEL 3
REMARK VINA RESULT: -6.605584497      3.361      7.347
REMARK  7 active torsions:
REMARK  status: ('A' for Active; 'I' for Inactive)
REMARK    1  A    between atoms: S1_2  and  C2_3 
REMARK    2  A    between atoms: C2_3  and  O2_5 
REMARK    3  A    between atoms: O2_5  and  C3_6 
REMARK    4  A    between atoms: C5_8  and  C6_9 
REMARK    5  A    between atoms: C7_12  and  N1_13 
REMARK       I    between atoms: N1_13  and  C8_15 
REMARK    6  A    between atoms: C8_15  and  C9_17 
REMARK       I    between atoms: C9_17  and  N2_19 
REMARK    7  A    between atoms: N2_19  and  C10_21 
ROOT
HETATM    1  N1  UNL     1       6.234   8.747  23.896  1.00  0.00    -0.345 N 
ATOM      2  H1  UNL     1       7.228   8.820  24.111  1.00  0.00     0.163 HD
HETATM    3  C8  UNL     1       5.325   8.636  24.995  1.00  0.00     0.309 C 
HETATM    4  O5  UNL     1       4.085   8.543  24.833  1.00  0.00    -0.262 OA
ENDROOT
BRANCH   1   5
HETATM    5  C7  UNL     1       5.853   8.764  22.532  1.00  0.00     0.129 C 
HETATM    6  C3  UNL     1       6.952   8.484  21.526  1.00  0.00     0.157 C 
HETATM    7  C4  UNL     1       6.986   9.967  21.204  1.00  0.00     0.052 C 
HETATM    8  C5  UNL     1       5.648  10.096  21.871  1.00  0.00     0.114 C 
BRANCH   6   9
HETATM    9  O2  UNL     1       6.455   7.676  20.472  1.00  0.00    -0.305 OA
BRANCH   9  10
HETATM   10  C2  UNL     1       5.902   6.426  20.683  1.00  0.00     0.322 C 
HETATM   11  O1  UNL     1       4.788   6.199  20.148  1.00  0.00    -0.252 OA
BRANCH  10  12
HETATM   12  S1  UNL     1       6.719   5.173  21.668  1.00  0.00    -0.066 SA
HETATM   13  C1  UNL     1       6.000   5.064  23.318  1.00  0.00     0.101 C 
ENDBRANCH  10  12
ENDBRANCH   9  10
ENDBRANCH   6   9
BRANCH   8  14
HETATM   14  C6  UNL     1       4.566  10.105  20.848  1.00  0.00     0.179 C 
HETATM   15  O3  UNL     1       3.629   9.289  20.830  1.00  0.00    -0.648 OA
HETATM   16  O4  UNL     1       4.628  11.091  19.869  1.00  0.00    -0.648 OA
ENDBRANCH   8  14
ENDBRANCH   1   5
BRANCH   3  17
HETATM   17  C9  UNL     1       5.800   8.626  26.364  1.00  0.00     0.309 C 
HETATM   18  O6  UNL     1       5.041   8.895  27.341  1.00  0.00    -0.262 OA
HETATM   19  N2  UNL     1       7.157   8.306  26.619  1.00  0.00    -0.348 N 
ATOM     20  H2  UNL     1       7.774   8.088  25.837  1.00  0.00     0.163 HD
BRANCH  19  21
HETATM   21  C10 UNL     1       7.683   8.283  27.969  1.00  0.00     0.084 C 
HETATM   22  C11 UNL     1       9.187   8.136  27.861  1.00  0.00     0.025 C 
HETATM   23  C12 UNL     1       9.681   7.560  29.174  1.00  0.00     0.002 C 
HETATM   24  C13 UNL     1       8.791   8.082  30.271  1.00  0.00     0.000 C 
HETATM   25  C14 UNL     1       7.414   7.467  30.252  1.00  0.00     0.002 C 
HETATM   26  C15 UNL     1       7.088   7.164  28.796  1.00  0.00     0.025 C 
ENDBRANCH  19  21
ENDBRANCH   3  17
TORSDOF 7
ENDMDL
MODEL 4
REMARK VINA RESULT: -6.559553963      2.042      3.743
REMARK  7 active torsions:
REMARK  status: ('A' for Active; 'I' for Inactive)
REMARK    1  A    between atoms: S1_2  and  C2_3 
REMARK    2  A    between atoms: C2_3  and  O2_5 
REMARK    3  A    between atoms: O2_5  and  C3_6 
REMARK    4  A    between atoms: C5_8  and  C6_9 
REMARK    5  A    between atoms: C7_12  and  N1_13 
REMARK       I    between atoms: N1_13  and  C8_15 
REMARK    6  A    between atoms: C8_15  and  C9_17 
REMARK       I    between atoms: C9_17  and  N2_19 
REMARK    7  A    between atoms: N2_19  and  C10_21 
ROOT
HETATM    1  N1  UNL     1       6.439  11.033  22.798  1.00  0.00    -0.345 N 
ATOM      2  H1  UNL     1       6.532  10.674  21.848  1.00  0.00     0.163 HD
HETATM    3  C8  UNL     1       6.547  12.447  22.987  1.00  0.00     0.309 C 
HETATM    4  O5  UNL     1       6.445  12.983  24.115  1.00  0.00    -0.262 OA
ENDROOT
BRANCH   1   5
HETATM    5  C7  UNL     1       6.211  10.096  23.836  1.00  0.00     0.129 C 
HETATM    6  C3  UNL     1       7.445   9.537  24.516  1.00  0.00     0.157 C 
HETATM    7  C4  UNL     1       7.243   8.247  23.742  1.00  0.00     0.052 C 
HETATM    8  C5  UNL     1       5.841   8.693  23.453  1.00  0.00     0.114 C 
BRANCH   6   9
HETATM    9  O2  UNL     1       7.221   9.413  25.910  1.00  0.00    -0.305 OA
BRANCH   9  10
HETATM   10  C2  UNL     1       7.743   8.378  26.664  1.00  0.00     0.322 C 
HETATM   11  O1  UNL     1       8.970   8.139  26.531  1.00  0.00    -0.252 OA
BRANCH  10  12
HETATM   12  S1  UNL     1       6.737   7.409  27.786  1.00  0.00    -0.066 SA
HETATM   13  C1  UNL     1       7.240   7.660  29.500  1.00  0.00     0.101 C 
ENDBRANCH  10  12
ENDBRANCH   9  10
ENDBRANCH   6   9
BRANCH   8  14
HETATM   14  C6  UNL     1       4.892   8.037  24.396  1.00  0.00     0.179 C 
HETATM   15  O3  UNL     1       4.053   8.659  25.072  1.00  0.00    -0.648 OA
HETATM   16  O4  UNL     1       4.967   6.654  24.510  1.00  0.00    -0.648 OA
ENDBRANCH   8  14
ENDBRANCH   1   5
BRANCH   3  17
HETATM   17  C9  UNL     1       6.780  13.338  21.867  1.00  0.00     0.309 C 
HETATM   18  O6  UNL     1       6.941  12.907  20.688  1.00  0.00    -0.262 OA
HETATM   19  N2  UNL     1       6.833  14.735  22.100  1.00  0.00    -0.348 N 
ATOM     20  H2  UNL     1       6.704  15.089  23.047  1.00  0.00     0.163 HD
BRANCH  19  21
HETATM   21  C10 UNL     1       7.064  15.669  21.016  1.00  0.00     0.084 C 
HETATM   22  C11 UNL     1       7.966  16.763  21.553  1.00  0.00     0.025 C 
HETATM   23  C12 UNL     1       7.769  17.983  20.675  1.00  0.00     0.002 C 
HETATM   24  C13 UNL     1       7.480  17.504  19.277  1.00  0.00     0.000 C 
HETATM   25  C14 UNL     1       6.108  16.895  19.137  1.00  0.00     0.002 C 
HETATM   26  C15 UNL     1       5.775  16.248  20.475  1.00  0.00     0.025 C 
ENDBRANCH  19  21
ENDBRANCH   3  17
TORSDOF 7
ENDMDL
MODEL 5
REMARK VINA RESULT: -6.548719677      2.970      8.028
REMARK  7 active torsions:
REMARK  status: ('A' for Active; 'I' for Inactive)
REMARK    1  A    between atoms: S1_2  and  C2_3 
REMARK    2  A    between atoms: C2_3  and  O2_5 
REMARK    3  A    between atoms: O2_5  and  C3_6 
REMARK    4  A    between atoms: C5_8  and  C6_9 
REMARK    5  A    between atoms: C7_12  and  N1_13 
REMARK       I    between atoms: N1_13  and  C8_15 
REMARK    6  A    between atoms: C8_15  and  C9_17 
REMARK       I    between atoms: C9_17  and  N2_19 
REMARK    7  A    between atoms: N2_19  and  C10_21 
ROOT
HETATM    1  N1  UNL     1       6.532   8.517  23.627  1.00  0.00    -0.345 N 
ATOM      2  H1  UNL     1       5.907   7.728  23.790  1.00  0.00     0.163 HD
HETATM    3  C8  UNL     1       7.539   8.779  24.609  1.00  0.00     0.309 C 
HETATM    4  O5  UNL     1       8.354   9.725  24.498  1.00  0.00    -0.262 OA
ENDROOT
BRANCH   1   5
HETATM    5  C7  UNL     1       6.341   9.275  22.446  1.00  0.00     0.129 C 
HETATM    6  C3  UNL     1       5.578  10.576  22.600  1.00  0.00     0.157 C 
HETATM    7  C4  UNL     1       4.370   9.898  21.979  1.00  0.00     0.052 C 
HETATM    8  C5  UNL     1       5.287   8.823  21.478  1.00  0.00     0.114 C 
BRANCH   6   9
HETATM    9  O2  UNL     1       6.156  11.582  21.786  1.00  0.00    -0.305 OA
BRANCH   9  10
HETATM   10  C2  UNL     1       6.715  12.736  22.305  1.00  0.00     0.322 C 
HETATM   11  O1  UNL     1       6.736  12.844  23.557  1.00  0.00    -0.252 OA
BRANCH  10  12
HETATM   12  S1  UNL     1       7.384  14.029  21.262  1.00  0.00    -0.066 SA
HETATM   13  C1  UNL     1       7.120  15.659  21.986  1.00  0.00     0.101 C 
ENDBRANCH  10  12
ENDBRANCH   9  10
ENDBRANCH   6   9
BRANCH   8  14
HETATM   14  C6  UNL     1       5.630   9.068  20.049  1.00  0.00     0.179 C 
HETATM   15  O3  UNL     1       4.792   9.371  19.183  1.00  0.00    -0.648 OA
HETATM   16  O4  UNL     1       6.968   8.946  19.688  1.00  0.00    -0.648 OA
ENDBRANCH   8  14
ENDBRANCH   1   5
BRANCH   3  17
HETATM   17  C9  UNL     1       7.666   7.952  25.793  1.00  0.00     0.309 C 
HETATM   18  O6  UNL     1       7.662   6.688  25.733  1.00  0.00    -0.262 OA
HETATM   19  N2  UNL     1       7.799   8.578  27.057  1.00  0.00    -0.348 N 
ATOM     20  H2  UNL     1       7.803   9.596  27.114  1.00  0.00     0.163 HD
BRANCH  19  21
HETATM   21  C10 UNL     1       7.928   7.797  28.272  1.00  0.00     0.084 C 
HETATM   22  C11 UNL     1       6.532   7.377  28.685  1.00  0.00     0.025 C 
HETATM   23  C12 UNL     1       6.572   7.073  30.170  1.00  0.00     0.002 C 
HETATM   24  C13 UNL     1       7.933   6.516  30.491  1.00  0.00     0.000 C 
HETATM   25  C14 UNL     1       9.022   7.559  30.439  1.00  0.00     0.002 C 
HETATM   26  C15 UNL     1       8.610   8.571  29.379  1.00  0.00     0.025 C 
ENDBRANCH  19  21
ENDBRANCH   3  17
TORSDOF 7
ENDMDL
