MODEL 1
REMARK VINA RESULT: -7.442452612      0.000      0.000
REMARK  8 active torsions:
REMARK  status: ('A' for Active; 'I' for Inactive)
REMARK    1  A    between atoms: C2_2  and  N1_4 
REMARK    2  A    between atoms: N1_4  and  C5_6 
REMARK    3  A    between atoms: C5_6  and  C6_7 
REMARK    4  A    between atoms: C6_7  and  C7_8 
REMARK    5  A    between atoms: C7_8  and  N2_9 
REMARK    6  A    between atoms: C10_12  and  O1_13 
REMARK    7  A    between atoms: C11_15  and  O2_16 
REMARK    8  A    between atoms: C12_18  and  O3_19 
ROOT
HETATM    1  N2  UNL     1       7.506  -8.265  10.089  1.00  0.00    -0.371 N 
HETATM    2  C8  UNL     1       8.214  -9.111  10.936  1.00  0.00     0.065 C 
HETATM    3  C9  UNL     1       9.575  -8.559  11.296  1.00  0.00     0.079 C 
HETATM    4  C10 UNL     1      10.651  -8.992  10.335  1.00  0.00     0.154 C 
HETATM    5  C11 UNL     1      10.578  -8.382   8.985  1.00  0.00     0.177 C 
HETATM    6  C12 UNL     1       9.191  -8.267   8.405  1.00  0.00     0.167 C 
HETATM    7  C13 UNL     1       8.289  -7.404   9.249  1.00  0.00     0.161 C 
ENDROOT
BRANCH   1   8
HETATM    8  C7  UNL     1       6.174  -7.945  10.248  1.00  0.00     0.065 C 
BRANCH   8   9
HETATM    9  C6  UNL     1       5.577  -6.688   9.768  1.00  0.00     0.075 C 
BRANCH   9  10
HETATM   10  C5  UNL     1       4.405  -6.872   8.882  1.00  0.00     0.277 C 
BRANCH  10  11
HETATM   11  N1  UNL     1       4.518  -6.091   7.646  1.00  0.00     0.088 N 
HETATM   12  C4  UNL     1       5.482  -6.739   6.800  1.00  0.00     0.310 C 
BRANCH  11  13
HETATM   13  C2  UNL     1       3.257  -6.021   7.004  1.00  0.00     0.214 C 
HETATM   14  C1  UNL     1       2.102  -5.778   7.943  1.00  0.00     0.042 C 
HETATM   15  C3  UNL     1       2.920  -7.263   6.204  1.00  0.00     0.042 C 
ENDBRANCH  11  13
ENDBRANCH  10  11
ENDBRANCH   9  10
ENDBRANCH   8   9
ENDBRANCH   1   8
BRANCH   6  16
HETATM   16  O3  UNL     1       8.637  -9.471   8.028  1.00  0.00    -0.391 OA
ATOM     17  H3  UNL     1       8.163  -9.913   8.722  1.00  0.00     0.210 HD
ENDBRANCH   6  16
BRANCH   4  18
HETATM   18  O1  UNL     1      10.723 -10.388  10.332  1.00  0.00    -0.393 OA
ATOM     19  H1  UNL     1      11.519 -10.657  10.774  1.00  0.00     0.210 HD
ENDBRANCH   4  18
BRANCH   5  20
HETATM   20  O2  UNL     1      11.345  -9.124   8.091  1.00  0.00    -0.390 OA
ATOM     21  H2  UNL     1      12.256  -8.860   8.152  1.00  0.00     0.210 HD
ENDBRANCH   5  20
TORSDOF 8
ENDMDL
MODEL 2
REMARK VINA RESULT: -7.418608921      0.615      1.014
REMARK  8 active torsions:
REMARK  status: ('A' for Active; 'I' for Inactive)
REMARK    1  A    between atoms: C2_2  and  N1_4 
REMARK    2  A    between atoms: N1_4  and  C5_6 
REMARK    3  A    between atoms: C5_6  and  C6_7 
REMARK    4  A    between atoms: C6_7  and  C7_8 
REMARK    5  A    between atoms: C7_8  and  N2_9 
REMARK    6  A    between atoms: C10_12  and  O1_13 
REMARK    7  A    between atoms: C11_15  and  O2_16 
REMARK    8  A    between atoms: C12_18  and  O3_19 
ROOT
HETATM    1  N2  UNL     1       8.105  -8.372  10.072  1.00  0.00    -0.371 N 
HETATM    2  C8  UNL     1       8.840  -9.150  10.962  1.00  0.00     0.065 C 
HETATM    3  C9  UNL     1      10.259  -8.654  11.124  1.00  0.00     0.079 C 
HETATM    4  C10 UNL     1      11.211  -9.284  10.142  1.00  0.00     0.154 C 
HETATM    5  C11 UNL     1      11.046  -8.851   8.734  1.00  0.00     0.177 C 
HETATM    6  C12 UNL     1       9.620  -8.713   8.265  1.00  0.00     0.167 C 
HETATM    7  C13 UNL     1       8.855  -7.686   9.058  1.00  0.00     0.161 C 
ENDROOT
BRANCH   1   8
HETATM    8  C7  UNL     1       6.815  -7.940  10.301  1.00  0.00     0.065 C 
BRANCH   8   9
HETATM    9  C6  UNL     1       6.215  -6.778   9.625  1.00  0.00     0.075 C 
BRANCH   9  10
HETATM   10  C5  UNL     1       4.769  -6.921   9.341  1.00  0.00     0.277 C 
BRANCH  10  11
HETATM   11  N1  UNL     1       4.395  -6.317   8.059  1.00  0.00     0.088 N 
HETATM   12  C4  UNL     1       5.375  -6.709   7.083  1.00  0.00     0.310 C 
BRANCH  11  13
HETATM   13  C2  UNL     1       3.105  -6.762   7.677  1.00  0.00     0.214 C 
HETATM   14  C1  UNL     1       3.026  -7.275   6.261  1.00  0.00     0.042 C 
HETATM   15  C3  UNL     1       2.035  -5.700   7.821  1.00  0.00     0.042 C 
ENDBRANCH  11  13
ENDBRANCH  10  11
ENDBRANCH   9  10
ENDBRANCH   8   9
ENDBRANCH   1   8
BRANCH   6  16
HETATM   16  O3  UNL     1       8.962  -9.913   8.105  1.00  0.00    -0.391 OA
ATOM     17  H3  UNL     1       8.670 -10.079   7.217  1.00  0.00     0.210 HD
ENDBRANCH   6  16
BRANCH   4  18
HETATM   18  O1  UNL     1      11.199 -10.670  10.323  1.00  0.00    -0.393 OA
ATOM     19  H1  UNL     1      10.996 -11.088   9.495  1.00  0.00     0.210 HD
ENDBRANCH   4  18
BRANCH   5  20
HETATM   20  O2  UNL     1      11.679  -9.755   7.886  1.00  0.00    -0.390 OA
ATOM     21  H2  UNL     1      11.709  -9.403   7.004  1.00  0.00     0.210 HD
ENDBRANCH   5  20
TORSDOF 8
ENDMDL
MODEL 3
REMARK VINA RESULT: -7.286199316      4.505      7.847
REMARK  8 active torsions:
REMARK  status: ('A' for Active; 'I' for Inactive)
REMARK    1  A    between atoms: C2_2  and  N1_4 
REMARK    2  A    between atoms: N1_4  and  C5_6 
REMARK    3  A    between atoms: C5_6  and  C6_7 
REMARK    4  A    between atoms: C6_7  and  C7_8 
REMARK    5  A    between atoms: C7_8  and  N2_9 
REMARK    6  A    between atoms: C10_12  and  O1_13 
REMARK    7  A    between atoms: C11_15  and  O2_16 
REMARK    8  A    between atoms: C12_18  and  O3_19 
ROOT
HETATM    1  N2  UNL     1       2.942  -5.487   7.196  1.00  0.00    -0.371 N 
HETATM    2  C8  UNL     1       1.582  -5.756   7.069  1.00  0.00     0.065 C 
HETATM    3  C9  UNL     1       1.271  -6.573   5.836  1.00  0.00     0.079 C 
HETATM    4  C10 UNL     1       0.982  -5.720   4.630  1.00  0.00     0.154 C 
HETATM    5  C11 UNL     1       2.152  -5.008   4.063  1.00  0.00     0.177 C 
HETATM    6  C12 UNL     1       3.096  -4.411   5.076  1.00  0.00     0.167 C 
HETATM    7  C13 UNL     1       3.701  -5.455   5.978  1.00  0.00     0.161 C 
ENDROOT
BRANCH   1   8
HETATM    8  C7  UNL     1       3.649  -5.603   8.374  1.00  0.00     0.065 C 
BRANCH   8   9
HETATM    9  C6  UNL     1       4.107  -6.890   8.924  1.00  0.00     0.075 C 
BRANCH   9  10
HETATM   10  C5  UNL     1       5.411  -6.822   9.623  1.00  0.00     0.277 C 
BRANCH  10  11
HETATM   11  N1  UNL     1       6.411  -7.703   9.013  1.00  0.00     0.088 N 
HETATM   12  C4  UNL     1       6.767  -7.150   7.734  1.00  0.00     0.310 C 
BRANCH  11  13
HETATM   13  C2  UNL     1       7.549  -7.792   9.852  1.00  0.00     0.214 C 
HETATM   14  C1  UNL     1       8.849  -7.965   9.109  1.00  0.00     0.042 C 
HETATM   15  C3  UNL     1       7.466  -8.917  10.862  1.00  0.00     0.042 C 
ENDBRANCH  11  13
ENDBRANCH  10  11
ENDBRANCH   9  10
ENDBRANCH   8   9
ENDBRANCH   1   8
BRANCH   6  16
HETATM   16  O3  UNL     1       2.590  -3.313   5.737  1.00  0.00    -0.391 OA
ATOM     17  H3  UNL     1       2.004  -3.527   6.452  1.00  0.00     0.210 HD
ENDBRANCH   6  16
BRANCH   4  18
HETATM   18  O1  UNL     1      -0.113  -4.896   4.908  1.00  0.00    -0.393 OA
ATOM     19  H1  UNL     1      -0.386  -4.464   4.107  1.00  0.00     0.210 HD
ENDBRANCH   4  18
BRANCH   5  20
HETATM   20  O2  UNL     1       1.721  -3.976   3.235  1.00  0.00    -0.390 OA
ATOM     21  H2  UNL     1       2.133  -3.160   3.496  1.00  0.00     0.210 HD
ENDBRANCH   5  20
TORSDOF 8
ENDMDL
MODEL 4
REMARK VINA RESULT: -7.194050807      4.591      8.035
REMARK  8 active torsions:
REMARK  status: ('A' for Active; 'I' for Inactive)
REMARK    1  A    between atoms: C2_2  and  N1_4 
REMARK    2  A    between atoms: N1_4  and  C5_6 
REMARK    3  A    between atoms: C5_6  and  C6_7 
REMARK    4  A    between atoms: C6_7  and  C7_8 
REMARK    5  A    between atoms: C7_8  and  N2_9 
REMARK    6  A    between atoms: C10_12  and  O1_13 
REMARK    7  A    between atoms: C11_15  and  O2_16 
REMARK    8  A    between atoms: C12_18  and  O3_19 
ROOT
HETATM    1  N2  UNL     1       3.114  -5.523   6.862  1.00  0.00    -0.371 N 
HETATM    2  C8  UNL     1       1.786  -5.934   6.933  1.00  0.00     0.065 C 
HETATM    3  C9  UNL     1       1.324  -6.612   5.663  1.00  0.00     0.079 C 
HETATM    4  C10 UNL     1       0.734  -5.646   4.670  1.00  0.00     0.154 C 
HETATM    5  C11 UNL     1       1.704  -4.730   4.024  1.00  0.00     0.177 C 
HETATM    6  C12 UNL     1       2.762  -4.164   4.937  1.00  0.00     0.167 C 
HETATM    7  C13 UNL     1       3.622  -5.238   5.550  1.00  0.00     0.161 C 
ENDROOT
BRANCH   1   8
HETATM    8  C7  UNL     1       4.039  -5.709   7.868  1.00  0.00     0.065 C 
BRANCH   8   9
HETATM    9  C6  UNL     1       4.712  -6.992   8.125  1.00  0.00     0.075 C 
BRANCH   9  10
HETATM   10  C5  UNL     1       6.139  -7.019   7.730  1.00  0.00     0.277 C 
BRANCH  10  11
HETATM   11  N1  UNL     1       7.032  -7.109   8.889  1.00  0.00     0.088 N 
HETATM   12  C4  UNL     1       6.223  -7.059  10.076  1.00  0.00     0.310 C 
BRANCH  11  13
HETATM   13  C2  UNL     1       7.767  -8.320   8.836  1.00  0.00     0.214 C 
HETATM   14  C1  UNL     1       7.639  -9.171  10.074  1.00  0.00     0.042 C 
HETATM   15  C3  UNL     1       9.248  -8.115   8.593  1.00  0.00     0.042 C 
ENDBRANCH  11  13
ENDBRANCH  10  11
ENDBRANCH   9  10
ENDBRANCH   8   9
ENDBRANCH   1   8
BRANCH   6  16
HETATM   16  O3  UNL     1       2.290  -3.232   5.835  1.00  0.00    -0.391 OA
ATOM     17  H3  UNL     1       2.129  -3.579   6.704  1.00  0.00     0.210 HD
ENDBRANCH   6  16
BRANCH   4  18
HETATM   18  O1  UNL     1      -0.361  -5.004   5.256  1.00  0.00    -0.393 OA
ATOM     19  H1  UNL     1      -1.116  -5.578   5.212  1.00  0.00     0.210 HD
ENDBRANCH   4  18
BRANCH   5  20
HETATM   20  O2  UNL     1       1.029  -3.656   3.451  1.00  0.00    -0.390 OA
ATOM     21  H2  UNL     1       0.905  -2.971   4.098  1.00  0.00     0.210 HD
ENDBRANCH   5  20
TORSDOF 8
ENDMDL
MODEL 5
REMARK VINA RESULT: -7.131728610      1.116      1.462
REMARK  8 active torsions:
REMARK  status: ('A' for Active; 'I' for Inactive)
REMARK    1  A    between atoms: C2_2  and  N1_4 
REMARK    2  A    between atoms: N1_4  and  C5_6 
REMARK    3  A    between atoms: C5_6  and  C6_7 
REMARK    4  A    between atoms: C6_7  and  C7_8 
REMARK    5  A    between atoms: C7_8  and  N2_9 
REMARK    6  A    between atoms: C10_12  and  O1_13 
REMARK    7  A    between atoms: C11_15  and  O2_16 
REMARK    8  A    between atoms: C12_18  and  O3_19 
ROOT
HETATM    1  N2  UNL     1       7.450  -7.995   8.899  1.00  0.00    -0.371 N 
HETATM    2  C8  UNL     1       7.385  -8.487  10.199  1.00  0.00     0.065 C 
HETATM    3  C9  UNL     1       8.492  -7.946  11.075  1.00  0.00     0.079 C 
HETATM    4  C10 UNL     1       9.726  -8.808  11.052  1.00  0.00     0.154 C 
HETATM    5  C11 UNL     1      10.494  -8.783   9.784  1.00  0.00     0.177 C 
HETATM    6  C12 UNL     1       9.661  -8.799   8.527  1.00  0.00     0.167 C 
HETATM    7  C13 UNL     1       8.749  -7.604   8.431  1.00  0.00     0.161 C 
ENDROOT
BRANCH   1   8
HETATM    8  C7  UNL     1       6.361  -7.535   8.189  1.00  0.00     0.065 C 
BRANCH   8   9
HETATM    9  C6  UNL     1       5.301  -6.699   8.777  1.00  0.00     0.075 C 
BRANCH   9  10
HETATM   10  C5  UNL     1       3.945  -6.982   8.254  1.00  0.00     0.277 C 
BRANCH  10  11
HETATM   11  N1  UNL     1       3.727  -6.388   6.931  1.00  0.00     0.088 N 
HETATM   12  C4  UNL     1       3.047  -7.357   6.117  1.00  0.00     0.310 C 
BRANCH  11  13
HETATM   13  C2  UNL     1       2.951  -5.209   7.057  1.00  0.00     0.214 C 
HETATM   14  C1  UNL     1       1.607  -5.424   7.705  1.00  0.00     0.042 C 
HETATM   15  C3  UNL     1       2.696  -4.513   5.736  1.00  0.00     0.042 C 
ENDBRANCH  11  13
ENDBRANCH  10  11
ENDBRANCH   9  10
ENDBRANCH   8   9
ENDBRANCH   1   8
BRANCH   6  16
HETATM   16  O3  UNL     1       9.046 -10.006   8.277  1.00  0.00    -0.391 OA
ATOM     17  H3  UNL     1       8.098  -9.960   8.254  1.00  0.00     0.210 HD
ENDBRANCH   6  16
BRANCH   4  18
HETATM   18  O1  UNL     1       9.393 -10.091  11.497  1.00  0.00    -0.393 OA
ATOM     19  H1  UNL     1       8.596 -10.042  12.011  1.00  0.00     0.210 HD
ENDBRANCH   4  18
BRANCH   5  20
HETATM   20  O2  UNL     1      11.353  -9.876   9.731  1.00  0.00    -0.390 OA
ATOM     21  H2  UNL     1      11.992  -9.751   9.038  1.00  0.00     0.210 HD
ENDBRANCH   5  20
TORSDOF 8
ENDMDL
