MODEL 1
REMARK VINA RESULT: -7.902489080      0.000      0.000
REMARK  15 active torsions:
REMARK  status: ('A' for Active; 'I' for Inactive)
REMARK    1  A    between atoms: C2_2  and  N1_3 
REMARK    2  A    between atoms: N1_3  and  C3_4 
REMARK    3  A    between atoms: N1_3  and  C5_6 
REMARK    4  A    between atoms: C5_6  and  O1_7 
REMARK    5  A    between atoms: C5_6  and  C6_9 
REMARK    6  A    between atoms: C6_9  and  C7_10 
REMARK    7  A    between atoms: C6_9  and  N2_13 
REMARK    8  A    between atoms: C10_16  and  C11_17 
REMARK    9  A    between atoms: C14_21  and  S1_22 
REMARK   10  A    between atoms: S1_22  and  C15_24 
REMARK   11  A    between atoms: C15_24  and  C16_25 
REMARK   12  A    between atoms: C22_32  and  O5_33 
REMARK   13  A    between atoms: C23_35  and  O6_36 
REMARK   14  A    between atoms: C25_42  and  C26_43 
REMARK   15  A    between atoms: C26_43  and  C27_44 
ROOT
HETATM    1  N2  UNL     1      21.858  12.789  25.368  1.00  0.00    -0.295 N 
HETATM    2  C9  UNL     1      22.567  13.847  24.752  1.00  0.00     0.248 C 
HETATM    3  O3  UNL     1      22.465  13.890  23.486  1.00  0.00    -0.271 OA
HETATM    4  C10 UNL     1      23.337  14.786  25.539  1.00  0.00     0.183 C 
HETATM    5  N3  UNL     1      23.599  14.283  26.849  1.00  0.00    -0.346 N 
ATOM      6  H3  UNL     1      24.301  14.757  27.418  1.00  0.00     0.163 HD
HETATM    7  C24 UNL     1      22.933  13.155  27.400  1.00  0.00     0.241 C 
HETATM    8  O7  UNL     1      23.476  12.508  28.364  1.00  0.00    -0.271 OA
HETATM    9  C25 UNL     1      21.620  12.754  26.834  1.00  0.00     0.185 C 
ENDROOT
BRANCH   4  10
HETATM   10  C11 UNL     1      24.572  15.355  24.891  1.00  0.00     0.050 C 
HETATM   11  C12 UNL     1      25.322  16.341  25.731  1.00  0.00     0.027 C 
HETATM   12  C13 UNL     1      26.435  16.918  24.883  1.00  0.00     0.077 C 
HETATM   13 BR1  UNL     1      25.596  17.856  23.399  1.00  0.00    -0.090 Br
HETATM   14  C14 UNL     1      27.374  15.861  24.373  1.00  0.00     0.125 C 
HETATM   15  C22 UNL     1      26.847  14.457  24.708  1.00  0.00     0.164 C 
HETATM   16  C23 UNL     1      25.410  14.329  24.221  1.00  0.00     0.154 C 
BRANCH  14  17
HETATM   17  S1  UNL     1      28.989  15.986  25.012  1.00  0.00     0.027 S 
HETATM   18  O4  UNL     1      29.458  14.805  26.052  1.00  0.00    -0.257 OA
BRANCH  17  19
HETATM   19  C15 UNL     1      30.203  16.605  23.930  1.00  0.00     0.147 C 
BRANCH  19  20
HETATM   20  C16 UNL     1      31.463  17.012  24.553  1.00  0.00    -0.046 A 
HETATM   21  C17 UNL     1      32.458  16.077  24.679  1.00  0.00     0.009 A 
HETATM   22  C18 UNL     1      33.654  16.440  25.260  1.00  0.00     0.024 A 
HETATM   23  C19 UNL     1      33.809  17.743  25.697  1.00  0.00     0.034 A 
HETATM   24 CL1  UNL     1      35.344  18.165  26.428  1.00  0.00    -0.084 Cl
HETATM   25  C20 UNL     1      32.832  18.693  25.582  1.00  0.00     0.024 A 
HETATM   26  C21 UNL     1      31.627  18.304  24.991  1.00  0.00     0.009 A 
ENDBRANCH  19  20
ENDBRANCH  17  19
ENDBRANCH  14  17
BRANCH  15  27
HETATM   27  O5  UNL     1      27.657  13.531  24.085  1.00  0.00    -0.392 OA
ATOM     28  H5  UNL     1      27.313  12.663  24.267  1.00  0.00     0.210 HD
ENDBRANCH  15  27
BRANCH  16  29
HETATM   29  O6  UNL     1      25.020  13.025  24.351  1.00  0.00    -0.392 OA
ATOM     30  H6  UNL     1      25.706  12.374  24.438  1.00  0.00     0.210 HD
ENDBRANCH  16  29
ENDBRANCH   4  10
BRANCH   1  31
HETATM   31  C6  UNL     1      21.280  11.685  24.562  1.00  0.00     0.135 C 
BRANCH  31  32
HETATM   32  C5  UNL     1      20.102  11.146  25.228  1.00  0.00     0.169 C 
BRANCH  32  33
HETATM   33  N1  UNL     1      18.748  11.453  25.183  1.00  0.00    -0.361 N 
BRANCH  33  34
HETATM   34  C2  UNL     1      18.274  12.431  24.153  1.00  0.00     0.120 C 
HETATM   35  C1  UNL     1      17.541  13.570  24.777  1.00  0.00     0.026 C 
ENDBRANCH  33  34
BRANCH  33  36
HETATM   36  C3  UNL     1      17.702  10.931  25.986  1.00  0.00     0.120 C 
HETATM   37  C4  UNL     1      16.745   9.992  25.287  1.00  0.00     0.026 C 
ENDBRANCH  33  36
ENDBRANCH  32  33
BRANCH  32  38
HETATM   38  O1  UNL     1      20.414  10.147  26.039  1.00  0.00    -0.344 OA
ATOM     39  H1  UNL     1      21.309  10.161  26.358  1.00  0.00     0.219 HD
ENDBRANCH  32  38
ENDBRANCH  31  32
BRANCH  31  40
HETATM   40  C7  UNL     1      22.255  10.803  23.960  1.00  0.00     0.176 C 
HETATM   41  C8  UNL     1      22.296  10.375  22.558  1.00  0.00     0.098 C 
HETATM   42  O2  UNL     1      23.141  10.361  24.694  1.00  0.00    -0.291 OA
ENDBRANCH  31  40
ENDBRANCH   1  31
BRANCH   9  43
HETATM   43  C26 UNL     1      20.578  13.740  27.215  1.00  0.00     0.039 C 
BRANCH  43  44
HETATM   44  C27 UNL     1      19.765  13.479  28.429  1.00  0.00    -0.020 C 
HETATM   45  C28 UNL     1      19.638  12.100  28.933  1.00  0.00     0.009 C 
HETATM   46  C29 UNL     1      18.384  14.163  28.326  1.00  0.00     0.009 C 
ENDBRANCH  43  44
ENDBRANCH   9  43
TORSDOF 15
ENDMDL
MODEL 2
REMARK VINA RESULT: -7.853104850      5.182      9.665
REMARK  15 active torsions:
REMARK  status: ('A' for Active; 'I' for Inactive)
REMARK    1  A    between atoms: C2_2  and  N1_3 
REMARK    2  A    between atoms: N1_3  and  C3_4 
REMARK    3  A    between atoms: N1_3  and  C5_6 
REMARK    4  A    between atoms: C5_6  and  O1_7 
REMARK    5  A    between atoms: C5_6  and  C6_9 
REMARK    6  A    between atoms: C6_9  and  C7_10 
REMARK    7  A    between atoms: C6_9  and  N2_13 
REMARK    8  A    between atoms: C10_16  and  C11_17 
REMARK    9  A    between atoms: C14_21  and  S1_22 
REMARK   10  A    between atoms: S1_22  and  C15_24 
REMARK   11  A    between atoms: C15_24  and  C16_25 
REMARK   12  A    between atoms: C22_32  and  O5_33 
REMARK   13  A    between atoms: C23_35  and  O6_36 
REMARK   14  A    between atoms: C25_42  and  C26_43 
REMARK   15  A    between atoms: C26_43  and  C27_44 
ROOT
HETATM    1  N2  UNL     1      28.320  15.441  23.812  1.00  0.00    -0.295 N 
HETATM    2  C9  UNL     1      27.658  14.817  22.729  1.00  0.00     0.248 C 
HETATM    3  O3  UNL     1      26.466  14.451  22.973  1.00  0.00    -0.271 OA
HETATM    4  C10 UNL     1      28.323  14.629  21.457  1.00  0.00     0.183 C 
HETATM    5  N3  UNL     1      29.739  14.761  21.581  1.00  0.00    -0.346 N 
ATOM      6  H3  UNL     1      30.323  14.448  20.805  1.00  0.00     0.163 HD
HETATM    7  C24 UNL     1      30.375  15.307  22.728  1.00  0.00     0.241 C 
HETATM    8  O7  UNL     1      31.604  15.027  22.964  1.00  0.00    -0.271 OA
HETATM    9  C25 UNL     1      29.590  16.189  23.628  1.00  0.00     0.185 C 
ENDROOT
BRANCH   4  10
HETATM   10  C11 UNL     1      27.933  13.407  20.667  1.00  0.00     0.050 C 
HETATM   11  C12 UNL     1      26.745  12.669  21.200  1.00  0.00     0.027 C 
HETATM   12  C13 UNL     1      26.585  11.404  20.387  1.00  0.00     0.077 C 
HETATM   13 BR1  UNL     1      28.181  10.330  20.678  1.00  0.00    -0.090 Br
HETATM   14  C14 UNL     1      26.398  11.682  18.922  1.00  0.00     0.125 C 
HETATM   15  C22 UNL     1      26.598  13.177  18.623  1.00  0.00     0.164 C 
HETATM   16  C23 UNL     1      27.931  13.633  19.200  1.00  0.00     0.154 C 
BRANCH  14  17
HETATM   17  S1  UNL     1      24.833  11.226  18.310  1.00  0.00     0.027 S 
HETATM   18  O4  UNL     1      24.658   9.663  17.838  1.00  0.00    -0.257 OA
BRANCH  17  19
HETATM   19  C15 UNL     1      23.458  11.973  19.071  1.00  0.00     0.147 C 
BRANCH  19  20
HETATM   20  C16 UNL     1      23.139  11.496  20.418  1.00  0.00    -0.046 A 
HETATM   21  C17 UNL     1      23.021  10.146  20.619  1.00  0.00     0.009 A 
HETATM   22  C18 UNL     1      22.724   9.676  21.880  1.00  0.00     0.024 A 
HETATM   23  C19 UNL     1      22.555  10.590  22.904  1.00  0.00     0.034 A 
HETATM   24 CL1  UNL     1      22.180   9.953  24.493  1.00  0.00    -0.084 Cl
HETATM   25  C20 UNL     1      22.668  11.941  22.728  1.00  0.00     0.024 A 
HETATM   26  C21 UNL     1      22.969  12.396  21.442  1.00  0.00     0.009 A 
ENDBRANCH  19  20
ENDBRANCH  17  19
ENDBRANCH  14  17
BRANCH  15  27
HETATM   27  O5  UNL     1      26.573  13.352  17.255  1.00  0.00    -0.392 OA
ATOM     28  H5  UNL     1      26.485  14.281  17.074  1.00  0.00     0.210 HD
ENDBRANCH  15  27
BRANCH  16  29
HETATM   29  O6  UNL     1      28.183  14.904  18.764  1.00  0.00    -0.392 OA
ATOM     30  H6  UNL     1      28.234  15.038  17.825  1.00  0.00     0.210 HD
ENDBRANCH  16  29
ENDBRANCH   4  10
BRANCH   1  31
HETATM   31  C6  UNL     1      27.743  15.411  25.179  1.00  0.00     0.135 C 
BRANCH  31  32
HETATM   32  C5  UNL     1      26.500  16.171  25.212  1.00  0.00     0.169 C 
BRANCH  32  33
HETATM   33  N1  UNL     1      26.128  17.424  24.744  1.00  0.00    -0.361 N 
BRANCH  33  34
HETATM   34  C2  UNL     1      25.009  17.511  23.753  1.00  0.00     0.120 C 
HETATM   35  C1  UNL     1      24.944  18.858  23.117  1.00  0.00     0.026 C 
ENDBRANCH  33  34
BRANCH  33  36
HETATM   36  C3  UNL     1      26.658  18.689  25.104  1.00  0.00     0.120 C 
HETATM   37  C4  UNL     1      26.337  19.160  26.503  1.00  0.00     0.026 C 
ENDBRANCH  33  36
ENDBRANCH  32  33
BRANCH  32  38
HETATM   38  O1  UNL     1      25.533  15.498  25.814  1.00  0.00    -0.344 OA
ATOM     39  H1  UNL     1      25.416  14.608  25.502  1.00  0.00     0.219 HD
ENDBRANCH  32  38
ENDBRANCH  31  32
BRANCH  31  40
HETATM   40  C7  UNL     1      28.712  15.537  26.245  1.00  0.00     0.176 C 
HETATM   41  C8  UNL     1      28.785  16.616  27.236  1.00  0.00     0.098 C 
HETATM   42  O2  UNL     1      29.567  14.654  26.334  1.00  0.00    -0.291 OA
ENDBRANCH  31  40
ENDBRANCH   1  31
BRANCH   9  43
HETATM   43  C26 UNL     1      29.334  17.494  22.969  1.00  0.00     0.039 C 
BRANCH  43  44
HETATM   44  C27 UNL     1      30.104  18.679  23.420  1.00  0.00    -0.020 C 
HETATM   45  C28 UNL     1      30.521  18.778  24.830  1.00  0.00     0.009 C 
HETATM   46  C29 UNL     1      29.434  19.987  22.945  1.00  0.00     0.009 C 
ENDBRANCH  43  44
ENDBRANCH   9  43
TORSDOF 15
ENDMDL
MODEL 3
REMARK VINA RESULT: -7.723038031      6.680     10.809
REMARK  15 active torsions:
REMARK  status: ('A' for Active; 'I' for Inactive)
REMARK    1  A    between atoms: C2_2  and  N1_3 
REMARK    2  A    between atoms: N1_3  and  C3_4 
REMARK    3  A    between atoms: N1_3  and  C5_6 
REMARK    4  A    between atoms: C5_6  and  O1_7 
REMARK    5  A    between atoms: C5_6  and  C6_9 
REMARK    6  A    between atoms: C6_9  and  C7_10 
REMARK    7  A    between atoms: C6_9  and  N2_13 
REMARK    8  A    between atoms: C10_16  and  C11_17 
REMARK    9  A    between atoms: C14_21  and  S1_22 
REMARK   10  A    between atoms: S1_22  and  C15_24 
REMARK   11  A    between atoms: C15_24  and  C16_25 
REMARK   12  A    between atoms: C22_32  and  O5_33 
REMARK   13  A    between atoms: C23_35  and  O6_36 
REMARK   14  A    between atoms: C25_42  and  C26_43 
REMARK   15  A    between atoms: C26_43  and  C27_44 
ROOT
HETATM    1  N2  UNL     1      29.737  17.795  24.709  1.00  0.00    -0.295 N 
HETATM    2  C9  UNL     1      29.349  17.306  23.440  1.00  0.00     0.248 C 
HETATM    3  O3  UNL     1      28.168  17.617  23.088  1.00  0.00    -0.271 OA
HETATM    4  C10 UNL     1      30.256  16.516  22.636  1.00  0.00     0.183 C 
HETATM    5  N3  UNL     1      31.331  15.994  23.417  1.00  0.00    -0.346 N 
ATOM      6  H3  UNL     1      31.912  15.260  23.011  1.00  0.00     0.163 HD
HETATM    7  C24 UNL     1      31.633  16.445  24.731  1.00  0.00     0.241 C 
HETATM    8  O7  UNL     1      32.303  15.690  25.521  1.00  0.00    -0.271 OA
HETATM    9  C25 UNL     1      31.156  17.786  25.152  1.00  0.00     0.185 C 
ENDROOT
BRANCH   4  10
HETATM   10  C11 UNL     1      29.634  15.466  21.752  1.00  0.00     0.050 C 
HETATM   11  C12 UNL     1      30.599  14.736  20.872  1.00  0.00     0.027 C 
HETATM   12  C13 UNL     1      29.800  13.836  19.956  1.00  0.00     0.077 C 
HETATM   13 BR1  UNL     1      28.683  14.988  18.854  1.00  0.00    -0.090 Br
HETATM   14  C14 UNL     1      28.953  12.852  20.714  1.00  0.00     0.125 C 
HETATM   15  C22 UNL     1      28.996  13.145  22.222  1.00  0.00     0.164 C 
HETATM   16  C23 UNL     1      28.652  14.609  22.461  1.00  0.00     0.154 C 
BRANCH  14  17
HETATM   17  S1  UNL     1      29.425  11.192  20.484  1.00  0.00     0.027 S 
HETATM   18  O4  UNL     1      30.264  10.493  21.710  1.00  0.00    -0.257 OA
BRANCH  17  19
HETATM   19  C15 UNL     1      28.299  10.180  19.627  1.00  0.00     0.147 C 
BRANCH  19  20
HETATM   20  C16 UNL     1      26.936  10.700  19.511  1.00  0.00    -0.046 A 
HETATM   21  C17 UNL     1      26.621  11.459  18.414  1.00  0.00     0.009 A 
HETATM   22  C18 UNL     1      25.342  11.956  18.284  1.00  0.00     0.024 A 
HETATM   23  C19 UNL     1      24.416  11.670  19.271  1.00  0.00     0.034 A 
HETATM   24 CL1  UNL     1      22.802  12.319  19.068  1.00  0.00    -0.084 Cl
HETATM   25  C20 UNL     1      24.708  10.915  20.374  1.00  0.00     0.024 A 
HETATM   26  C21 UNL     1      26.009  10.422  20.487  1.00  0.00     0.009 A 
ENDBRANCH  19  20
ENDBRANCH  17  19
ENDBRANCH  14  17
BRANCH  15  27
HETATM   27  O5  UNL     1      28.087  12.321  22.849  1.00  0.00    -0.392 OA
ATOM     28  H5  UNL     1      27.435  12.865  23.276  1.00  0.00     0.210 HD
ENDBRANCH  15  27
BRANCH  16  29
HETATM   29  O6  UNL     1      28.506  14.809  23.806  1.00  0.00    -0.392 OA
ATOM     30  H6  UNL     1      27.723  15.263  24.094  1.00  0.00     0.210 HD
ENDBRANCH  16  29
ENDBRANCH   4  10
BRANCH   1  31
HETATM   31  C6  UNL     1      28.741  18.384  25.639  1.00  0.00     0.135 C 
BRANCH  31  32
HETATM   32  C5  UNL     1      28.924  19.828  25.715  1.00  0.00     0.169 C 
BRANCH  32  33
HETATM   33  N1  UNL     1      29.401  20.685  26.698  1.00  0.00    -0.361 N 
BRANCH  33  34
HETATM   34  C2  UNL     1      28.529  21.817  27.141  1.00  0.00     0.120 C 
HETATM   35  C1  UNL     1      28.099  21.656  28.559  1.00  0.00     0.026 C 
ENDBRANCH  33  34
BRANCH  33  36
HETATM   36  C3  UNL     1      30.636  20.623  27.393  1.00  0.00     0.120 C 
HETATM   37  C4  UNL     1      31.734  21.515  26.858  1.00  0.00     0.026 C 
ENDBRANCH  33  36
ENDBRANCH  32  33
BRANCH  32  38
HETATM   38  O1  UNL     1      28.556  20.426  24.593  1.00  0.00    -0.344 OA
ATOM     39  H1  UNL     1      27.724  20.883  24.643  1.00  0.00     0.219 HD
ENDBRANCH  32  38
ENDBRANCH  31  32
BRANCH  31  40
HETATM   40  C7  UNL     1      28.499  17.608  26.834  1.00  0.00     0.176 C 
HETATM   41  C8  UNL     1      28.759  16.175  27.013  1.00  0.00     0.098 C 
HETATM   42  O2  UNL     1      28.022  18.203  27.802  1.00  0.00    -0.291 OA
ENDBRANCH  31  40
ENDBRANCH   1  31
BRANCH   9  43
HETATM   43  C26 UNL     1      31.925  18.846  24.453  1.00  0.00     0.039 C 
BRANCH  43  44
HETATM   44  C27 UNL     1      33.407  18.778  24.478  1.00  0.00    -0.020 C 
HETATM   45  C28 UNL     1      34.106  18.666  25.772  1.00  0.00     0.009 C 
HETATM   46  C29 UNL     1      34.026  19.892  23.606  1.00  0.00     0.009 C 
ENDBRANCH  43  44
ENDBRANCH   9  43
TORSDOF 15
ENDMDL
MODEL 4
REMARK VINA RESULT: -7.661601593      2.046      2.723
REMARK  15 active torsions:
REMARK  status: ('A' for Active; 'I' for Inactive)
REMARK    1  A    between atoms: C2_2  and  N1_3 
REMARK    2  A    between atoms: N1_3  and  C3_4 
REMARK    3  A    between atoms: N1_3  and  C5_6 
REMARK    4  A    between atoms: C5_6  and  O1_7 
REMARK    5  A    between atoms: C5_6  and  C6_9 
REMARK    6  A    between atoms: C6_9  and  C7_10 
REMARK    7  A    between atoms: C6_9  and  N2_13 
REMARK    8  A    between atoms: C10_16  and  C11_17 
REMARK    9  A    between atoms: C14_21  and  S1_22 
REMARK   10  A    between atoms: S1_22  and  C15_24 
REMARK   11  A    between atoms: C15_24  and  C16_25 
REMARK   12  A    between atoms: C22_32  and  O5_33 
REMARK   13  A    between atoms: C23_35  and  O6_36 
REMARK   14  A    between atoms: C25_42  and  C26_43 
REMARK   15  A    between atoms: C26_43  and  C27_44 
ROOT
HETATM    1  N2  UNL     1      21.958  12.799  25.322  1.00  0.00    -0.295 N 
HETATM    2  C9  UNL     1      22.715  13.832  24.721  1.00  0.00     0.248 C 
HETATM    3  O3  UNL     1      22.654  13.867  23.453  1.00  0.00    -0.271 OA
HETATM    4  C10 UNL     1      23.485  14.757  25.525  1.00  0.00     0.183 C 
HETATM    5  N3  UNL     1      23.691  14.258  26.846  1.00  0.00    -0.346 N 
ATOM      6  H3  UNL     1      24.387  14.718  27.434  1.00  0.00     0.163 HD
HETATM    7  C24 UNL     1      22.977  13.153  27.385  1.00  0.00     0.241 C 
HETATM    8  O7  UNL     1      23.471  12.501  28.371  1.00  0.00    -0.271 OA
HETATM    9  C25 UNL     1      21.672  12.784  26.781  1.00  0.00     0.185 C 
ENDROOT
BRANCH   4  10
HETATM   10  C11 UNL     1      24.755  15.287  24.912  1.00  0.00     0.050 C 
HETATM   11  C12 UNL     1      25.538  16.210  25.793  1.00  0.00     0.027 C 
HETATM   12  C13 UNL     1      26.689  16.759  24.979  1.00  0.00     0.077 C 
HETATM   13 BR1  UNL     1      25.918  17.781  23.514  1.00  0.00    -0.090 Br
HETATM   14  C14 UNL     1      27.586  15.675  24.450  1.00  0.00     0.125 C 
HETATM   15  C22 UNL     1      26.988  14.287  24.733  1.00  0.00     0.164 C 
HETATM   16  C23 UNL     1      25.554  14.243  24.223  1.00  0.00     0.154 C 
BRANCH  14  17
HETATM   17  S1  UNL     1      29.195  15.703  25.115  1.00  0.00     0.027 S 
HETATM   18  O4  UNL     1      29.486  14.686  26.371  1.00  0.00    -0.257 OA
BRANCH  17  19
HETATM   19  C15 UNL     1      30.494  15.944  23.984  1.00  0.00     0.147 C 
BRANCH  19  20
HETATM   20  C16 UNL     1      30.144  15.794  22.571  1.00  0.00    -0.046 A 
HETATM   21  C17 UNL     1      29.885  16.924  21.841  1.00  0.00     0.009 A 
HETATM   22  C18 UNL     1      29.557  16.805  20.507  1.00  0.00     0.024 A 
HETATM   23  C19 UNL     1      29.501  15.541  19.950  1.00  0.00     0.034 A 
HETATM   24 CL1  UNL     1      29.082  15.431  18.253  1.00  0.00    -0.084 Cl
HETATM   25  C20 UNL     1      29.755  14.399  20.658  1.00  0.00     0.024 A 
HETATM   26  C21 UNL     1      30.085  14.542  22.007  1.00  0.00     0.009 A 
ENDBRANCH  19  20
ENDBRANCH  17  19
ENDBRANCH  14  17
BRANCH  15  27
HETATM   27  O5  UNL     1      27.763  13.344  24.093  1.00  0.00    -0.392 OA
ATOM     28  H5  UNL     1      28.135  12.767  24.751  1.00  0.00     0.210 HD
ENDBRANCH  15  27
BRANCH  16  29
HETATM   29  O6  UNL     1      25.101  12.956  24.306  1.00  0.00    -0.392 OA
ATOM     30  H6  UNL     1      25.742  12.263  24.196  1.00  0.00     0.210 HD
ENDBRANCH  16  29
ENDBRANCH   4  10
BRANCH   1  31
HETATM   31  C6  UNL     1      21.376  11.705  24.507  1.00  0.00     0.135 C 
BRANCH  31  32
HETATM   32  C5  UNL     1      20.214  11.143  25.184  1.00  0.00     0.169 C 
BRANCH  32  33
HETATM   33  N1  UNL     1      18.861  11.456  25.189  1.00  0.00    -0.361 N 
BRANCH  33  34
HETATM   34  C2  UNL     1      18.350  12.421  24.165  1.00  0.00     0.120 C 
HETATM   35  C1  UNL     1      17.639  13.567  24.800  1.00  0.00     0.026 C 
ENDBRANCH  33  34
BRANCH  33  36
HETATM   36  C3  UNL     1      17.846  10.952  26.041  1.00  0.00     0.120 C 
HETATM   37  C4  UNL     1      16.808  10.076  25.378  1.00  0.00     0.026 C 
ENDBRANCH  33  36
ENDBRANCH  32  33
BRANCH  32  38
HETATM   38  O1  UNL     1      20.544  10.111  25.944  1.00  0.00    -0.344 OA
ATOM     39  H1  UNL     1      21.096  10.327  26.687  1.00  0.00     0.219 HD
ENDBRANCH  32  38
ENDBRANCH  31  32
BRANCH  31  40
HETATM   40  C7  UNL     1      22.347  10.843  23.872  1.00  0.00     0.176 C 
HETATM   41  C8  UNL     1      22.400  10.483  22.451  1.00  0.00     0.098 C 
HETATM   42  O2  UNL     1      23.220  10.355  24.593  1.00  0.00    -0.291 OA
ENDBRANCH  31  40
ENDBRANCH   1  31
BRANCH   9  43
HETATM   43  C26 UNL     1      20.646  13.802  27.120  1.00  0.00     0.039 C 
BRANCH  43  44
HETATM   44  C27 UNL     1      19.856  13.624  28.363  1.00  0.00    -0.020 C 
HETATM   45  C28 UNL     1      19.697  12.274  28.933  1.00  0.00     0.009 C 
HETATM   46  C29 UNL     1      18.497  14.350  28.263  1.00  0.00     0.009 C 
ENDBRANCH  43  44
ENDBRANCH   9  43
TORSDOF 15
ENDMDL
MODEL 5
REMARK VINA RESULT: -7.502038366      1.094      1.744
REMARK  15 active torsions:
REMARK  status: ('A' for Active; 'I' for Inactive)
REMARK    1  A    between atoms: C2_2  and  N1_3 
REMARK    2  A    between atoms: N1_3  and  C3_4 
REMARK    3  A    between atoms: N1_3  and  C5_6 
REMARK    4  A    between atoms: C5_6  and  O1_7 
REMARK    5  A    between atoms: C5_6  and  C6_9 
REMARK    6  A    between atoms: C6_9  and  C7_10 
REMARK    7  A    between atoms: C6_9  and  N2_13 
REMARK    8  A    between atoms: C10_16  and  C11_17 
REMARK    9  A    between atoms: C14_21  and  S1_22 
REMARK   10  A    between atoms: S1_22  and  C15_24 
REMARK   11  A    between atoms: C15_24  and  C16_25 
REMARK   12  A    between atoms: C22_32  and  O5_33 
REMARK   13  A    between atoms: C23_35  and  O6_36 
REMARK   14  A    between atoms: C25_42  and  C26_43 
REMARK   15  A    between atoms: C26_43  and  C27_44 
ROOT
HETATM    1  N2  UNL     1      21.879  12.785  25.202  1.00  0.00    -0.295 N 
HETATM    2  C9  UNL     1      22.621  13.860  24.660  1.00  0.00     0.248 C 
HETATM    3  O3  UNL     1      22.590  13.942  23.393  1.00  0.00    -0.271 OA
HETATM    4  C10 UNL     1      23.347  14.773  25.518  1.00  0.00     0.183 C 
HETATM    5  N3  UNL     1      23.535  14.229  26.824  1.00  0.00    -0.346 N 
ATOM      6  H3  UNL     1      24.204  14.683  27.445  1.00  0.00     0.163 HD
HETATM    7  C24 UNL     1      22.839  13.085  27.301  1.00  0.00     0.241 C 
HETATM    8  O7  UNL     1      23.327  12.408  28.274  1.00  0.00    -0.271 OA
HETATM    9  C25 UNL     1      21.559  12.705  26.651  1.00  0.00     0.185 C 
ENDROOT
BRANCH   4  10
HETATM   10  C11 UNL     1      24.617  15.359  24.958  1.00  0.00     0.050 C 
HETATM   11  C12 UNL     1      25.323  16.311  25.871  1.00  0.00     0.027 C 
HETATM   12  C13 UNL     1      26.481  16.913  25.105  1.00  0.00     0.077 C 
HETATM   13 BR1  UNL     1      25.725  17.907  23.613  1.00  0.00    -0.090 Br
HETATM   14  C14 UNL     1      27.444  15.871  24.609  1.00  0.00     0.125 C 
HETATM   15  C22 UNL     1      26.895  14.457  24.865  1.00  0.00     0.164 C 
HETATM   16  C23 UNL     1      25.487  14.353  24.298  1.00  0.00     0.154 C 
BRANCH  14  17
HETATM   17  S1  UNL     1      29.022  15.965  25.338  1.00  0.00     0.027 S 
HETATM   18  O4  UNL     1      29.486  14.681  26.251  1.00  0.00    -0.257 OA
BRANCH  17  19
HETATM   19  C15 UNL     1      30.261  16.748  24.400  1.00  0.00     0.147 C 
BRANCH  19  20
HETATM   20  C16 UNL     1      30.682  18.066  24.876  1.00  0.00    -0.046 A 
HETATM   21  C17 UNL     1      29.721  19.021  25.084  1.00  0.00     0.009 A 
HETATM   22  C18 UNL     1      30.096  20.268  25.535  1.00  0.00     0.024 A 
HETATM   23  C19 UNL     1      31.438  20.513  25.765  1.00  0.00     0.034 A 
HETATM   24 CL1  UNL     1      31.874  22.110  26.339  1.00  0.00    -0.084 Cl
HETATM   25  C20 UNL     1      32.414  19.577  25.566  1.00  0.00     0.024 A 
HETATM   26  C21 UNL     1      32.013  18.320  25.107  1.00  0.00     0.009 A 
ENDBRANCH  19  20
ENDBRANCH  17  19
ENDBRANCH  14  17
BRANCH  15  27
HETATM   27  O5  UNL     1      27.736  13.550  24.255  1.00  0.00    -0.392 OA
ATOM     28  H5  UNL     1      28.500  13.433  24.807  1.00  0.00     0.210 HD
ENDBRANCH  15  27
BRANCH  16  29
HETATM   29  O6  UNL     1      25.087  13.048  24.360  1.00  0.00    -0.392 OA
ATOM     30  H6  UNL     1      24.758  12.734  25.194  1.00  0.00     0.210 HD
ENDBRANCH  16  29
ENDBRANCH   4  10
BRANCH   1  31
HETATM   31  C6  UNL     1      21.346  11.708  24.331  1.00  0.00     0.135 C 
BRANCH  31  32
HETATM   32  C5  UNL     1      20.105  11.185  24.889  1.00  0.00     0.169 C 
BRANCH  32  33
HETATM   33  N1  UNL     1      18.768  11.536  24.752  1.00  0.00    -0.361 N 
BRANCH  33  34
HETATM   34  C2  UNL     1      17.727  10.576  25.239  1.00  0.00     0.120 C 
HETATM   35  C1  UNL     1      17.047   9.886  24.107  1.00  0.00     0.026 C 
ENDBRANCH  33  34
BRANCH  33  36
HETATM   36  C3  UNL     1      18.224  12.733  24.222  1.00  0.00     0.120 C 
HETATM   37  C4  UNL     1      17.232  13.451  25.108  1.00  0.00     0.026 C 
ENDBRANCH  33  36
ENDBRANCH  32  33
BRANCH  32  38
HETATM   38  O1  UNL     1      20.326  10.151  25.685  1.00  0.00    -0.344 OA
ATOM     39  H1  UNL     1      21.239   9.898  25.761  1.00  0.00     0.219 HD
ENDBRANCH  32  38
ENDBRANCH  31  32
BRANCH  31  40
HETATM   40  C7  UNL     1      22.348  10.815  23.795  1.00  0.00     0.176 C 
HETATM   41  C8  UNL     1      22.461  10.362  22.405  1.00  0.00     0.098 C 
HETATM   42  O2  UNL     1      23.194  10.384  24.582  1.00  0.00    -0.291 OA
ENDBRANCH  31  40
ENDBRANCH   1  31
BRANCH   9  43
HETATM   43  C26 UNL     1      20.498  13.682  27.004  1.00  0.00     0.039 C 
BRANCH  43  44
HETATM   44  C27 UNL     1      19.663  13.419  28.202  1.00  0.00    -0.020 C 
HETATM   45  C28 UNL     1      19.170  12.053  28.456  1.00  0.00     0.009 C 
HETATM   46  C29 UNL     1      18.522  14.453  28.318  1.00  0.00     0.009 C 
ENDBRANCH  43  44
ENDBRANCH   9  43
TORSDOF 15
ENDMDL
