MODEL 1
REMARK VINA RESULT: -7.332285319      0.000      0.000
REMARK  0 active torsions:
REMARK  status: ('A' for Active; 'I' for Inactive)
ROOT
HETATM    1  C1  UNL     1      35.300  -7.425 -31.494  1.00  0.00     0.018 C 
HETATM    2  C2  UNL     1      36.148  -8.122 -30.971  1.00  0.00    -0.077 C 
HETATM    3  C3  UNL     1      37.137  -8.956 -30.338  1.00  0.00     0.029 A 
HETATM    4  C4  UNL     1      38.340  -8.427 -29.903  1.00  0.00     0.022 A 
HETATM    5  C5  UNL     1      39.296  -9.214 -29.294  1.00  0.00     0.004 A 
HETATM    6  C6  UNL     1      39.030 -10.557 -29.124  1.00  0.00     0.038 A 
HETATM    7  C7  UNL     1      37.840 -11.140 -29.541  1.00  0.00     0.086 A 
HETATM    8  O1  UNL     1      37.345 -12.332 -29.508  1.00  0.00    -0.322 OA
HETATM    9  C8  UNL     1      36.149 -12.391 -30.042  1.00  0.00     0.143 A 
HETATM   10  C9  UNL     1      35.842 -11.094 -30.465  1.00  0.00     0.040 A 
HETATM   11  C10 UNL     1      36.913 -10.303 -30.147  1.00  0.00     0.018 A 
ENDROOT
TORSDOF 0
ENDMDL
MODEL 2
REMARK VINA RESULT: -7.225182771      1.000      2.747
REMARK  0 active torsions:
REMARK  status: ('A' for Active; 'I' for Inactive)
ROOT
HETATM    1  C1  UNL     1      35.368  -7.491 -31.397  1.00  0.00     0.018 C 
HETATM    2  C2  UNL     1      35.825  -8.542 -30.993  1.00  0.00    -0.077 C 
HETATM    3  C3  UNL     1      36.385  -9.784 -30.526  1.00  0.00     0.029 A 
HETATM    4  C4  UNL     1      35.659 -10.960 -30.587  1.00  0.00     0.022 A 
HETATM    5  C5  UNL     1      36.183 -12.157 -30.143  1.00  0.00     0.004 A 
HETATM    6  C6  UNL     1      37.464 -12.162 -29.629  1.00  0.00     0.038 A 
HETATM    7  C7  UNL     1      38.238 -11.011 -29.545  1.00  0.00     0.086 A 
HETATM    8  O1  UNL     1      39.427 -10.739 -29.122  1.00  0.00    -0.322 OA
HETATM    9  C8  UNL     1      39.724  -9.468 -29.252  1.00  0.00     0.143 A 
HETATM   10  C9  UNL     1      38.601  -8.857 -29.820  1.00  0.00     0.040 A 
HETATM   11  C10 UNL     1      37.661  -9.835 -30.005  1.00  0.00     0.018 A 
ENDROOT
TORSDOF 0
ENDMDL
MODEL 3
REMARK VINA RESULT: -7.001970071      2.083      3.289
REMARK  0 active torsions:
REMARK  status: ('A' for Active; 'I' for Inactive)
ROOT
HETATM    1  C1  UNL     1      34.884 -11.991 -30.219  1.00  0.00     0.018 C 
HETATM    2  C2  UNL     1      36.028 -11.632 -30.022  1.00  0.00    -0.077 C 
HETATM    3  C3  UNL     1      37.380 -11.187 -29.798  1.00  0.00     0.029 A 
HETATM    4  C4  UNL     1      38.458 -11.950 -30.211  1.00  0.00     0.022 A 
HETATM    5  C5  UNL     1      39.757 -11.536 -30.002  1.00  0.00     0.004 A 
HETATM    6  C6  UNL     1      39.968 -10.330 -29.366  1.00  0.00     0.038 A 
HETATM    7  C7  UNL     1      38.923  -9.524 -28.931  1.00  0.00     0.086 A 
HETATM    8  O1  UNL     1      38.837  -8.385 -28.328  1.00  0.00    -0.322 OA
HETATM    9  C8  UNL     1      37.593  -8.021 -28.126  1.00  0.00     0.143 A 
HETATM   10  C9  UNL     1      36.793  -9.038 -28.656  1.00  0.00     0.040 A 
HETATM   11  C10 UNL     1      37.637  -9.989 -29.166  1.00  0.00     0.018 A 
ENDROOT
TORSDOF 0
ENDMDL
MODEL 4
REMARK VINA RESULT: -6.894038582      1.528      3.995
REMARK  0 active torsions:
REMARK  status: ('A' for Active; 'I' for Inactive)
ROOT
HETATM    1  C1  UNL     1      40.633 -10.637 -29.258  1.00  0.00     0.018 C 
HETATM    2  C2  UNL     1      39.464 -10.778 -29.563  1.00  0.00    -0.077 C 
HETATM    3  C3  UNL     1      38.074 -10.927 -29.911  1.00  0.00     0.029 A 
HETATM    4  C4  UNL     1      37.437 -12.148 -29.784  1.00  0.00     0.022 A 
HETATM    5  C5  UNL     1      36.106 -12.305 -30.114  1.00  0.00     0.004 A 
HETATM    6  C6  UNL     1      35.411 -11.208 -30.579  1.00  0.00     0.038 A 
HETATM    7  C7  UNL     1      36.001  -9.959 -30.725  1.00  0.00     0.086 A 
HETATM    8  O1  UNL     1      35.599  -8.799 -31.125  1.00  0.00    -0.322 OA
HETATM    9  C8  UNL     1      36.552  -7.899 -31.084  1.00  0.00     0.143 A 
HETATM   10  C9  UNL     1      37.692  -8.553 -30.607  1.00  0.00     0.040 A 
HETATM   11  C10 UNL     1      37.342  -9.857 -30.380  1.00  0.00     0.018 A 
ENDROOT
TORSDOF 0
ENDMDL
MODEL 5
REMARK VINA RESULT: -6.797969511      1.803      2.262
REMARK  0 active torsions:
REMARK  status: ('A' for Active; 'I' for Inactive)
ROOT
HETATM    1  C1  UNL     1      37.908  -7.549 -28.037  1.00  0.00     0.018 C 
HETATM    2  C2  UNL     1      38.100  -8.636 -28.546  1.00  0.00    -0.077 C 
HETATM    3  C3  UNL     1      38.313  -9.934 -29.134  1.00  0.00     0.029 A 
HETATM    4  C4  UNL     1      39.592 -10.414 -29.355  1.00  0.00     0.022 A 
HETATM    5  C5  UNL     1      39.810 -11.655 -29.917  1.00  0.00     0.004 A 
HETATM    6  C6  UNL     1      38.716 -12.421 -30.261  1.00  0.00     0.038 A 
HETATM    7  C7  UNL     1      37.411 -11.990 -30.061  1.00  0.00     0.086 A 
HETATM    8  O1  UNL     1      36.240 -12.486 -30.282  1.00  0.00    -0.322 OA
HETATM    9  C8  UNL     1      35.276 -11.677 -29.912  1.00  0.00     0.143 A 
HETATM   10  C9  UNL     1      35.897 -10.535 -29.398  1.00  0.00     0.040 A 
HETATM   11  C10 UNL     1      37.248 -10.734 -29.493  1.00  0.00     0.018 A 
ENDROOT
TORSDOF 0
ENDMDL
