MODEL 1
REMARK VINA RESULT: -8.252236952      0.000      0.000
REMARK  11 active torsions:
REMARK  status: ('A' for Active; 'I' for Inactive)
REMARK    1  A    between atoms: N1_9  and  C7_10 
REMARK    2  A    between atoms: C7_10  and  C8_11 
REMARK    3  A    between atoms: C8_11  and  O3_12 
REMARK    4  A    between atoms: C8_11  and  C9_14 
REMARK    5  A    between atoms: C9_14  and  O4_15 
REMARK    6  A    between atoms: C9_14  and  C10_17 
REMARK    7  A    between atoms: C10_17  and  O5_18 
REMARK    8  A    between atoms: C10_17  and  C12_22 
REMARK    9  A    between atoms: C12_22  and  O6_23 
REMARK   10  A    between atoms: C12_22  and  C13_25 
REMARK   11  A    between atoms: C13_25  and  O7_26 
ROOT
HETATM    1  C10 UNL     1      13.054   4.492   4.533  1.00  0.00     0.202 C 
HETATM    2  C11 UNL     1      13.024   4.816   5.988  1.00  0.00     0.103 C 
HETATM    3  N2  UNL     1      12.980   5.073   7.118  1.00  0.00    -0.194 NA
ENDROOT
BRANCH   1   4
HETATM    4  C9  UNL     1      14.408   3.910   4.232  1.00  0.00     0.200 C 
BRANCH   4   5
HETATM    5  C8  UNL     1      14.354   2.489   3.787  1.00  0.00     0.171 C 
BRANCH   5   6
HETATM    6  C7  UNL     1      14.955   1.503   4.745  1.00  0.00     0.194 C 
BRANCH   6   7
HETATM    7  N1  UNL     1      15.485   0.374   4.006  1.00  0.00    -0.211 N 
HETATM    8  C6  UNL     1      16.735  -0.111   4.105  1.00  0.00     0.286 A 
HETATM    9  C5  UNL     1      16.815  -1.179   3.236  1.00  0.00     0.144 A 
HETATM   10  O2  UNL     1      17.653   0.326   4.846  1.00  0.00    -0.265 OA
HETATM   11  C4  UNL     1      17.786  -2.075   2.874  1.00  0.00     0.195 A 
HETATM   12  C14 UNL     1      15.584  -1.300   2.634  1.00  0.00     0.232 A 
HETATM   13  C3  UNL     1      17.503  -3.052   1.935  1.00  0.00     0.088 A 
HETATM   14  O1  UNL     1      18.915  -1.979   3.413  1.00  0.00    -0.287 OA
HETATM   15  C2  UNL     1      16.234  -3.080   1.396  1.00  0.00     0.056 A 
HETATM   16  C1  UNL     1      15.953  -4.149   0.380  1.00  0.00     0.077 C 
HETATM   17  O9  UNL     1      15.310  -2.224   1.743  1.00  0.00    -0.290 OA
HETATM   18  O8  UNL     1      14.838  -0.340   3.141  1.00  0.00    -0.205 OA
ENDBRANCH   6   7
ENDBRANCH   5   6
BRANCH   5  19
HETATM   19  O3  UNL     1      15.051   2.390   2.580  1.00  0.00    -0.391 OA
ATOM     20  H3  UNL     1      15.554   3.188   2.470  1.00  0.00     0.210 HD
ENDBRANCH   5  19
ENDBRANCH   4   5
BRANCH   4  21
HETATM   21  O4  UNL     1      15.342   4.168   5.206  1.00  0.00    -0.389 OA
ATOM     22  H4  UNL     1      14.979   4.457   6.035  1.00  0.00     0.210 HD
ENDBRANCH   4  21
ENDBRANCH   1   4
BRANCH   1  23
HETATM   23  O5  UNL     1      12.799   5.693   3.891  1.00  0.00    -0.371 OA
ATOM     24  H5  UNL     1      11.905   5.789   3.589  1.00  0.00     0.212 HD
ENDBRANCH   1  23
BRANCH   1  25
HETATM   25  C12 UNL     1      11.909   3.541   4.314  1.00  0.00     0.193 C 
BRANCH  25  26
HETATM   26  O6  UNL     1      11.361   3.302   5.589  1.00  0.00    -0.389 OA
ATOM     27  H6  UNL     1      10.451   3.075   5.441  1.00  0.00     0.210 HD
ENDBRANCH  25  26
BRANCH  25  28
HETATM   28  C13 UNL     1      10.773   4.137   3.505  1.00  0.00     0.200 C 
BRANCH  28  29
HETATM   29  O7  UNL     1       9.897   3.067   3.200  1.00  0.00    -0.398 OA
ATOM     30  H7  UNL     1       9.460   2.839   4.013  1.00  0.00     0.209 HD
ENDBRANCH  28  29
ENDBRANCH  25  28
ENDBRANCH   1  25
TORSDOF 11
ENDMDL
MODEL 2
REMARK VINA RESULT: -8.124003797      1.937      3.463
REMARK  11 active torsions:
REMARK  status: ('A' for Active; 'I' for Inactive)
REMARK    1  A    between atoms: N1_9  and  C7_10 
REMARK    2  A    between atoms: C7_10  and  C8_11 
REMARK    3  A    between atoms: C8_11  and  O3_12 
REMARK    4  A    between atoms: C8_11  and  C9_14 
REMARK    5  A    between atoms: C9_14  and  O4_15 
REMARK    6  A    between atoms: C9_14  and  C10_17 
REMARK    7  A    between atoms: C10_17  and  O5_18 
REMARK    8  A    between atoms: C10_17  and  C12_22 
REMARK    9  A    between atoms: C12_22  and  O6_23 
REMARK   10  A    between atoms: C12_22  and  C13_25 
REMARK   11  A    between atoms: C13_25  and  O7_26 
ROOT
HETATM    1  C10 UNL     1      15.186   2.737   4.675  1.00  0.00     0.202 C 
HETATM    2  C11 UNL     1      14.533   3.493   5.782  1.00  0.00     0.103 C 
HETATM    3  N2  UNL     1      14.026   4.099   6.631  1.00  0.00    -0.194 NA
ENDROOT
BRANCH   1   4
HETATM    4  C9  UNL     1      15.144   1.280   5.043  1.00  0.00     0.200 C 
BRANCH   4   5
HETATM    5  C8  UNL     1      15.662   0.385   3.970  1.00  0.00     0.171 C 
BRANCH   5   6
HETATM    6  C7  UNL     1      15.485  -1.082   4.228  1.00  0.00     0.194 C 
BRANCH   6   7
HETATM    7  N1  UNL     1      16.001  -1.837   3.104  1.00  0.00    -0.211 N 
HETATM    8  C6  UNL     1      15.296  -2.690   2.341  1.00  0.00     0.286 A 
HETATM    9  C5  UNL     1      16.166  -3.185   1.392  1.00  0.00     0.144 A 
HETATM   10  O2  UNL     1      14.079  -2.979   2.469  1.00  0.00    -0.265 OA
HETATM   11  C4  UNL     1      16.076  -4.068   0.349  1.00  0.00     0.195 A 
HETATM   12  C14 UNL     1      17.389  -2.599   1.624  1.00  0.00     0.232 A 
HETATM   13  C3  UNL     1      17.195  -4.336  -0.422  1.00  0.00     0.088 A 
HETATM   14  O1  UNL     1      14.968  -4.611   0.123  1.00  0.00    -0.287 OA
HETATM   15  C2  UNL     1      18.370  -3.691  -0.099  1.00  0.00     0.056 A 
HETATM   16  C1  UNL     1      19.568  -4.000  -0.949  1.00  0.00     0.077 C 
HETATM   17  O9  UNL     1      18.453  -2.850   0.896  1.00  0.00    -0.290 OA
HETATM   18  O8  UNL     1      17.219  -1.805   2.661  1.00  0.00    -0.205 OA
ENDBRANCH   6   7
ENDBRANCH   5   6
BRANCH   5  19
HETATM   19  O3  UNL     1      17.031   0.631   3.830  1.00  0.00    -0.391 OA
ATOM     20  H3  UNL     1      17.416   0.630   4.698  1.00  0.00     0.210 HD
ENDBRANCH   5  19
ENDBRANCH   4   5
BRANCH   4  21
HETATM   21  O4  UNL     1      13.943   0.886   5.583  1.00  0.00    -0.389 OA
ATOM     22  H4  UNL     1      14.008   0.493   6.446  1.00  0.00     0.210 HD
ENDBRANCH   4  21
ENDBRANCH   1   4
BRANCH   1  23
HETATM   23  O5  UNL     1      16.465   3.261   4.586  1.00  0.00    -0.371 OA
ATOM     24  H5  UNL     1      16.525   4.178   4.824  1.00  0.00     0.212 HD
ENDBRANCH   1  23
BRANCH   1  25
HETATM   25  C12 UNL     1      14.402   3.086   3.440  1.00  0.00     0.193 C 
BRANCH  25  26
HETATM   26  O6  UNL     1      13.048   3.065   3.826  1.00  0.00    -0.389 OA
ATOM     27  H6  UNL     1      12.585   2.628   3.122  1.00  0.00     0.210 HD
ENDBRANCH  25  26
BRANCH  25  28
HETATM   28  C13 UNL     1      14.647   4.499   2.946  1.00  0.00     0.200 C 
BRANCH  28  29
HETATM   29  O7  UNL     1      15.851   4.460   2.203  1.00  0.00    -0.398 OA
ATOM     30  H7  UNL     1      16.462   5.032   2.652  1.00  0.00     0.209 HD
ENDBRANCH  28  29
ENDBRANCH  25  28
ENDBRANCH   1  25
TORSDOF 11
ENDMDL
MODEL 3
REMARK VINA RESULT: -8.070585573      2.014      7.494
REMARK  11 active torsions:
REMARK  status: ('A' for Active; 'I' for Inactive)
REMARK    1  A    between atoms: N1_9  and  C7_10 
REMARK    2  A    between atoms: C7_10  and  C8_11 
REMARK    3  A    between atoms: C8_11  and  O3_12 
REMARK    4  A    between atoms: C8_11  and  C9_14 
REMARK    5  A    between atoms: C9_14  and  O4_15 
REMARK    6  A    between atoms: C9_14  and  C10_17 
REMARK    7  A    between atoms: C10_17  and  O5_18 
REMARK    8  A    between atoms: C10_17  and  C12_22 
REMARK    9  A    between atoms: C12_22  and  O6_23 
REMARK   10  A    between atoms: C12_22  and  C13_25 
REMARK   11  A    between atoms: C13_25  and  O7_26 
ROOT
HETATM    1  C10 UNL     1      15.465  -2.334   3.010  1.00  0.00     0.202 C 
HETATM    2  C11 UNL     1      14.836  -3.579   3.539  1.00  0.00     0.103 C 
HETATM    3  N2  UNL     1      14.355  -4.558   3.933  1.00  0.00    -0.194 NA
ENDROOT
BRANCH   1   4
HETATM    4  C9  UNL     1      15.300  -1.269   4.059  1.00  0.00     0.200 C 
BRANCH   4   5
HETATM    5  C8  UNL     1      16.059  -0.023   3.757  1.00  0.00     0.171 C 
BRANCH   5   6
HETATM    6  C7  UNL     1      16.072   0.993   4.861  1.00  0.00     0.194 C 
BRANCH   6   7
HETATM    7  N1  UNL     1      14.852   1.774   4.815  1.00  0.00    -0.211 N 
HETATM    8  C6  UNL     1      13.741   1.538   5.534  1.00  0.00     0.286 A 
HETATM    9  C5  UNL     1      12.829   2.512   5.185  1.00  0.00     0.144 A 
HETATM   10  O2  UNL     1      13.568   0.608   6.362  1.00  0.00    -0.265 OA
HETATM   11  C4  UNL     1      11.545   2.824   5.546  1.00  0.00     0.195 A 
HETATM   12  C14 UNL     1      13.438   3.316   4.250  1.00  0.00     0.232 A 
HETATM   13  C3  UNL     1      10.916   3.915   4.970  1.00  0.00     0.088 A 
HETATM   14  O1  UNL     1      10.974   2.101   6.398  1.00  0.00    -0.287 OA
HETATM   15  C2  UNL     1      11.622   4.651   4.042  1.00  0.00     0.056 A 
HETATM   16  C1  UNL     1      10.917   5.828   3.433  1.00  0.00     0.077 C 
HETATM   17  O9  UNL     1      12.847   4.351   3.700  1.00  0.00    -0.290 OA
HETATM   18  O8  UNL     1      14.645   2.817   4.075  1.00  0.00    -0.205 OA
ENDBRANCH   6   7
ENDBRANCH   5   6
BRANCH   5  19
HETATM   19  O3  UNL     1      15.476   0.574   2.636  1.00  0.00    -0.391 OA
ATOM     20  H3  UNL     1      14.957  -0.086   2.193  1.00  0.00     0.210 HD
ENDBRANCH   5  19
ENDBRANCH   4   5
BRANCH   4  21
HETATM   21  O4  UNL     1      15.457  -1.737   5.342  1.00  0.00    -0.389 OA
ATOM     22  H4  UNL     1      15.274  -2.662   5.450  1.00  0.00     0.210 HD
ENDBRANCH   4  21
ENDBRANCH   1   4
BRANCH   1  23
HETATM   23  O5  UNL     1      14.797  -2.069   1.825  1.00  0.00    -0.371 OA
ATOM     24  H5  UNL     1      14.833  -1.159   1.556  1.00  0.00     0.212 HD
ENDBRANCH   1  23
BRANCH   1  25
HETATM   25  C12 UNL     1      16.894  -2.704   2.721  1.00  0.00     0.193 C 
BRANCH  25  26
HETATM   26  O6  UNL     1      17.280  -3.578   3.755  1.00  0.00    -0.389 OA
ATOM     27  H6  UNL     1      16.702  -4.329   3.688  1.00  0.00     0.210 HD
ENDBRANCH  25  26
BRANCH  25  28
HETATM   28  C13 UNL     1      17.067  -3.505   1.446  1.00  0.00     0.200 C 
BRANCH  28  29
HETATM   29  O7  UNL     1      17.495  -4.796   1.840  1.00  0.00    -0.398 OA
ATOM     30  H7  UNL     1      17.212  -5.392   1.157  1.00  0.00     0.209 HD
ENDBRANCH  28  29
ENDBRANCH  25  28
ENDBRANCH   1  25
TORSDOF 11
ENDMDL
MODEL 4
REMARK VINA RESULT: -8.069011055      2.838      3.923
REMARK  11 active torsions:
REMARK  status: ('A' for Active; 'I' for Inactive)
REMARK    1  A    between atoms: N1_9  and  C7_10 
REMARK    2  A    between atoms: C7_10  and  C8_11 
REMARK    3  A    between atoms: C8_11  and  O3_12 
REMARK    4  A    between atoms: C8_11  and  C9_14 
REMARK    5  A    between atoms: C9_14  and  O4_15 
REMARK    6  A    between atoms: C9_14  and  C10_17 
REMARK    7  A    between atoms: C10_17  and  O5_18 
REMARK    8  A    between atoms: C10_17  and  C12_22 
REMARK    9  A    between atoms: C12_22  and  O6_23 
REMARK   10  A    between atoms: C12_22  and  C13_25 
REMARK   11  A    between atoms: C13_25  and  O7_26 
ROOT
HETATM    1  C10 UNL     1      11.597   4.880   4.463  1.00  0.00     0.202 C 
HETATM    2  C11 UNL     1      10.843   3.595   4.397  1.00  0.00     0.103 C 
HETATM    3  N2  UNL     1      10.238   2.607   4.345  1.00  0.00    -0.194 NA
ENDROOT
BRANCH   1   4
HETATM    4  C9  UNL     1      13.049   4.559   4.241  1.00  0.00     0.200 C 
BRANCH   4   5
HETATM    5  C8  UNL     1      13.973   5.466   4.979  1.00  0.00     0.171 C 
BRANCH   5   6
HETATM    6  C7  UNL     1      15.372   5.519   4.440  1.00  0.00     0.194 C 
BRANCH   6   7
HETATM    7  N1  UNL     1      16.012   4.232   4.628  1.00  0.00    -0.211 N 
HETATM    8  C6  UNL     1      17.336   4.020   4.724  1.00  0.00     0.286 A 
HETATM    9  C5  UNL     1      17.508   2.663   4.897  1.00  0.00     0.144 A 
HETATM   10  O2  UNL     1      18.240   4.892   4.666  1.00  0.00    -0.265 OA
HETATM   11  C4  UNL     1      18.581   1.826   5.054  1.00  0.00     0.195 A 
HETATM   12  C14 UNL     1      16.255   2.096   4.899  1.00  0.00     0.232 A 
HETATM   13  C3  UNL     1      18.373   0.466   5.208  1.00  0.00     0.088 A 
HETATM   14  O1  UNL     1      19.731   2.326   5.054  1.00  0.00    -0.287 OA
HETATM   15  C2  UNL     1      17.073   0.006   5.195  1.00  0.00     0.056 A 
HETATM   16  C1  UNL     1      16.875  -1.472   5.363  1.00  0.00     0.077 C 
HETATM   17  O9  UNL     1      16.052   0.807   5.044  1.00  0.00    -0.290 OA
HETATM   18  O8  UNL     1      15.408   3.091   4.734  1.00  0.00    -0.205 OA
ENDBRANCH   6   7
ENDBRANCH   5   6
BRANCH   5  19
HETATM   19  O3  UNL     1      14.043   5.022   6.302  1.00  0.00    -0.391 OA
ATOM     20  H3  UNL     1      13.188   4.685   6.541  1.00  0.00     0.210 HD
ENDBRANCH   5  19
ENDBRANCH   4   5
BRANCH   4  21
HETATM   21  O4  UNL     1      13.371   4.370   2.918  1.00  0.00    -0.389 OA
ATOM     22  H4  UNL     1      13.610   5.164   2.453  1.00  0.00     0.210 HD
ENDBRANCH   4  21
ENDBRANCH   1   4
BRANCH   1  23
HETATM   23  O5  UNL     1      11.318   5.396   5.719  1.00  0.00    -0.371 OA
ATOM     24  H5  UNL     1      10.492   5.860   5.772  1.00  0.00     0.212 HD
ENDBRANCH   1  23
BRANCH   1  25
HETATM   25  C12 UNL     1      10.986   5.754   3.403  1.00  0.00     0.193 C 
BRANCH  25  26
HETATM   26  O6  UNL     1      10.587   4.883   2.371  1.00  0.00    -0.389 OA
ATOM     27  H6  UNL     1      10.875   5.290   1.562  1.00  0.00     0.210 HD
ENDBRANCH  25  26
BRANCH  25  28
HETATM   28  C13 UNL     1       9.711   6.445   3.847  1.00  0.00     0.200 C 
BRANCH  28  29
HETATM   29  O7  UNL     1       8.752   6.202   2.833  1.00  0.00    -0.398 OA
ATOM     30  H7  UNL     1       7.903   6.380   3.221  1.00  0.00     0.209 HD
ENDBRANCH  28  29
ENDBRANCH  25  28
ENDBRANCH   1  25
TORSDOF 11
ENDMDL
MODEL 5
REMARK VINA RESULT: -8.035115676      2.532      3.365
REMARK  11 active torsions:
REMARK  status: ('A' for Active; 'I' for Inactive)
REMARK    1  A    between atoms: N1_9  and  C7_10 
REMARK    2  A    between atoms: C7_10  and  C8_11 
REMARK    3  A    between atoms: C8_11  and  O3_12 
REMARK    4  A    between atoms: C8_11  and  C9_14 
REMARK    5  A    between atoms: C9_14  and  O4_15 
REMARK    6  A    between atoms: C9_14  and  C10_17 
REMARK    7  A    between atoms: C10_17  and  O5_18 
REMARK    8  A    between atoms: C10_17  and  C12_22 
REMARK    9  A    between atoms: C12_22  and  O6_23 
REMARK   10  A    between atoms: C12_22  and  C13_25 
REMARK   11  A    between atoms: C13_25  and  O7_26 
ROOT
HETATM    1  C10 UNL     1      10.888   4.526   5.281  1.00  0.00     0.202 C 
HETATM    2  C11 UNL     1      10.341   3.601   6.314  1.00  0.00     0.103 C 
HETATM    3  N2  UNL     1       9.899   2.875   7.104  1.00  0.00    -0.194 NA
ENDROOT
BRANCH   1   4
HETATM    4  C9  UNL     1      12.206   5.039   5.793  1.00  0.00     0.200 C 
BRANCH   4   5
HETATM    5  C8  UNL     1      13.302   4.959   4.786  1.00  0.00     0.171 C 
BRANCH   5   6
HETATM    6  C7  UNL     1      14.681   4.823   5.360  1.00  0.00     0.194 C 
BRANCH   6   7
HETATM    7  N1  UNL     1      15.112   3.443   5.260  1.00  0.00    -0.211 N 
HETATM    8  C6  UNL     1      16.359   3.028   4.976  1.00  0.00     0.286 A 
HETATM    9  C5  UNL     1      16.328   1.649   4.982  1.00  0.00     0.144 A 
HETATM   10  O2  UNL     1      17.357   3.757   4.749  1.00  0.00    -0.265 OA
HETATM   11  C4  UNL     1      17.242   0.651   4.774  1.00  0.00     0.195 A 
HETATM   12  C14 UNL     1      15.037   1.277   5.276  1.00  0.00     0.232 A 
HETATM   13  C3  UNL     1      16.844  -0.673   4.863  1.00  0.00     0.088 A 
HETATM   14  O1  UNL     1      18.424   0.972   4.504  1.00  0.00    -0.287 OA
HETATM   15  C2  UNL     1      15.523  -0.930   5.164  1.00  0.00     0.056 A 
HETATM   16  C1  UNL     1      15.119  -2.373   5.255  1.00  0.00     0.077 C 
HETATM   17  O9  UNL     1      14.655   0.024   5.362  1.00  0.00    -0.290 OA
HETATM   18  O8  UNL     1      14.364   2.399   5.430  1.00  0.00    -0.205 OA
ENDBRANCH   6   7
ENDBRANCH   5   6
BRANCH   5  19
HETATM   19  O3  UNL     1      13.270   6.131   4.025  1.00  0.00    -0.391 OA
ATOM     20  H3  UNL     1      12.433   6.165   3.579  1.00  0.00     0.210 HD
ENDBRANCH   5  19
ENDBRANCH   4   5
BRANCH   4  21
HETATM   21  O4  UNL     1      12.537   4.551   7.035  1.00  0.00    -0.389 OA
ATOM     22  H4  UNL     1      12.296   3.644   7.180  1.00  0.00     0.210 HD
ENDBRANCH   4  21
ENDBRANCH   1   4
BRANCH   1  23
HETATM   23  O5  UNL     1       9.922   5.507   5.128  1.00  0.00    -0.371 OA
ATOM     24  H5  UNL     1       9.493   5.758   5.937  1.00  0.00     0.212 HD
ENDBRANCH   1  23
BRANCH   1  25
HETATM   25  C12 UNL     1      10.989   3.705   4.025  1.00  0.00     0.193 C 
BRANCH  25  26
HETATM   26  O6  UNL     1      10.338   2.489   4.310  1.00  0.00    -0.389 OA
ATOM     27  H6  UNL     1       9.449   2.590   3.989  1.00  0.00     0.210 HD
ENDBRANCH  25  26
BRANCH  25  28
HETATM   28  C13 UNL     1      10.226   4.293   2.854  1.00  0.00     0.200 C 
BRANCH  28  29
HETATM   29  O7  UNL     1      10.904   5.482   2.493  1.00  0.00    -0.398 OA
ATOM     30  H7  UNL     1      10.898   5.516   1.543  1.00  0.00     0.209 HD
ENDBRANCH  28  29
ENDBRANCH  25  28
ENDBRANCH   1  25
TORSDOF 11
ENDMDL
