MODEL 1
REMARK VINA RESULT: -8.575309879      0.000      0.000
REMARK  18 active torsions:
REMARK  status: ('A' for Active; 'I' for Inactive)
REMARK    1  A    between atoms: O1_2  and  C2_3 
REMARK    2  A    between atoms: C2_3  and  C3_5 
REMARK    3  A    between atoms: C3_5  and  O3_6 
REMARK    4  A    between atoms: C3_5  and  C8_14 
REMARK    5  A    between atoms: O3_6  and  C4_7 
REMARK    6  A    between atoms: C10_16  and  O5_17 
REMARK    7  A    between atoms: C10_16  and  N2_19 
REMARK    8  A    between atoms: N2_19  and  C11_21 
REMARK    9  A    between atoms: C14_24  and  C15_25 
REMARK   10  A    between atoms: C15_25  and  C16_26 
REMARK   11  A    between atoms: C15_25  and  C17_31 
REMARK   12  A    between atoms: C16_26  and  O6_27 
REMARK   13  A    between atoms: C16_26  and  O7_29 
REMARK   14  A    between atoms: C17_31  and  O8_32 
REMARK   15  A    between atoms: C17_31  and  O9_34 
REMARK   16  A    between atoms: C17_31  and  O10_36 
REMARK   17  A    between atoms: O10_36  and  C18_37 
REMARK   18  A    between atoms: N3_39  and  N4_41 
ROOT
HETATM    1  C11 UNL     1     -18.249 -26.046  -9.908  1.00  0.00     0.030 A 
HETATM    2  C12 UNL     1     -18.069 -27.178  -9.102  1.00  0.00     0.030 A 
HETATM    3  C13 UNL     1     -18.187 -27.065  -7.739  1.00  0.00     0.010 A 
HETATM    4  C14 UNL     1     -18.476 -25.876  -7.101  1.00  0.00    -0.041 A 
HETATM    5  C20 UNL     1     -18.648 -24.767  -7.939  1.00  0.00     0.010 A 
HETATM    6  C21 UNL     1     -18.537 -24.847  -9.315  1.00  0.00     0.030 A 
ENDROOT
BRANCH   1   7
HETATM    7  N2  UNL     1     -18.135 -26.184 -11.305  1.00  0.00    -0.358 N 
ATOM      8  H2  UNL     1     -18.898 -26.638 -11.806  1.00  0.00     0.162 HD
BRANCH   7   9
HETATM    9  C10 UNL     1     -17.020 -25.729 -12.057  1.00  0.00     0.141 C 
HETATM   10  C9  UNL     1     -17.442 -24.910 -13.260  1.00  0.00     0.080 C 
HETATM   11  C8  UNL     1     -17.912 -25.837 -14.335  1.00  0.00     0.091 C 
HETATM   12  S1  UNL     1     -16.520 -27.040 -14.294  1.00  0.00    -0.156 SA
HETATM   13  C22 UNL     1     -16.066 -26.773 -12.529  1.00  0.00     0.135 C 
BRANCH  11  14
HETATM   14  C3  UNL     1     -17.957 -25.117 -15.653  1.00  0.00     0.243 C 
BRANCH  14  15
HETATM   15  C2  UNL     1     -16.610 -24.842 -16.199  1.00  0.00     0.289 C 
HETATM   16  O2  UNL     1     -16.165 -25.412 -17.253  1.00  0.00    -0.262 OA
BRANCH  15  17
HETATM   17  O1  UNL     1     -15.728 -23.943 -15.604  1.00  0.00    -0.324 OA
HETATM   18  C1  UNL     1     -14.425 -24.335 -15.214  1.00  0.00     0.213 C 
ENDBRANCH  15  17
ENDBRANCH  14  15
BRANCH  14  19
HETATM   19  O3  UNL     1     -18.612 -23.882 -15.433  1.00  0.00    -0.321 OA
BRANCH  19  20
HETATM   20  C4  UNL     1     -18.960 -23.124 -16.530  1.00  0.00     0.138 C 
HETATM   21  N1  UNL     1     -19.766 -23.616 -17.389  1.00  0.00    -0.370 N 
HETATM   22  C5  UNL     1     -20.184 -22.876 -18.581  1.00  0.00     0.147 C 
ATOM     23  H1  UNL     1     -20.130 -24.557 -17.240  1.00  0.00     0.161 HD
HETATM   24  C6  UNL     1     -19.719 -21.448 -18.552  1.00  0.00     0.187 C 
HETATM   25  O4  UNL     1     -19.472 -20.983 -17.262  1.00  0.00    -0.382 OA
HETATM   26  C7  UNL     1     -18.423 -21.743 -16.747  1.00  0.00     0.251 C 
ENDBRANCH  19  20
ENDBRANCH  14  19
ENDBRANCH  11  14
BRANCH   9  27
HETATM   27  O5  UNL     1     -16.290 -24.818 -11.258  1.00  0.00    -0.370 OA
ATOM     28  H5  UNL     1     -16.087 -25.310 -10.471  1.00  0.00     0.212 HD
ENDBRANCH   9  27
ENDBRANCH   7   9
ENDBRANCH   1   7
BRANCH   4  29
HETATM   29  C15 UNL     1     -18.607 -25.727  -5.642  1.00  0.00     0.167 C 
BRANCH  29  30
HETATM   30  C16 UNL     1     -19.583 -24.614  -5.315  1.00  0.00     0.270 C 
BRANCH  30  31
HETATM   31  O6  UNL     1     -20.436 -24.911  -4.288  1.00  0.00    -0.370 OA
ATOM     32  H6  UNL     1     -21.110 -24.256  -4.148  1.00  0.00     0.212 HD
ENDBRANCH  30  31
BRANCH  30  33
HETATM   33  O7  UNL     1     -18.810 -23.506  -4.902  1.00  0.00    -0.370 OA
ATOM     34  H7  UNL     1     -19.137 -23.247  -4.049  1.00  0.00     0.212 HD
ENDBRANCH  30  33
ENDBRANCH  29  30
BRANCH  29  35
HETATM   35  C17 UNL     1     -17.285 -25.579  -4.958  1.00  0.00     0.296 C 
BRANCH  35  36
HETATM   36  O8  UNL     1     -16.559 -26.757  -5.217  1.00  0.00    -0.342 OA
ATOM     37  H8  UNL     1     -15.893 -26.823  -4.543  1.00  0.00     0.215 HD
ENDBRANCH  35  36
BRANCH  35  38
HETATM   38  O9  UNL     1     -16.585 -24.518  -5.479  1.00  0.00    -0.342 OA
ATOM     39  H9  UNL     1     -16.529 -23.811  -4.848  1.00  0.00     0.215 HD
ENDBRANCH  35  38
BRANCH  35  40
HETATM   40  O10 UNL     1     -17.422 -25.392  -3.558  1.00  0.00    -0.276 OA
BRANCH  40  41
HETATM   41  C18 UNL     1     -16.462 -25.892  -2.718  1.00  0.00     0.134 C 
HETATM   42  C19 UNL     1     -16.668 -27.177  -2.006  1.00  0.00     0.099 C 
HETATM   43  N3  UNL     1     -15.373 -25.239  -2.548  1.00  0.00    -0.290 N 
ATOM     44  H3  UNL     1     -15.221 -24.354  -3.033  1.00  0.00     0.188 HD
BRANCH  43  45
HETATM   45  N4  UNL     1     -14.400 -25.753  -1.693  1.00  0.00    -0.343 N 
ATOM     46  H42 UNL     1     -14.648 -26.492  -1.035  1.00  0.00     0.176 HD
ATOM     47  H41 UNL     1     -13.451 -25.381  -1.740  1.00  0.00     0.176 HD
ENDBRANCH  43  45
ENDBRANCH  40  41
ENDBRANCH  35  40
ENDBRANCH  29  35
ENDBRANCH   4  29
TORSDOF 18
ENDMDL
MODEL 2
REMARK VINA RESULT: -8.391356384      1.524      2.098
REMARK  18 active torsions:
REMARK  status: ('A' for Active; 'I' for Inactive)
REMARK    1  A    between atoms: O1_2  and  C2_3 
REMARK    2  A    between atoms: C2_3  and  C3_5 
REMARK    3  A    between atoms: C3_5  and  O3_6 
REMARK    4  A    between atoms: C3_5  and  C8_14 
REMARK    5  A    between atoms: O3_6  and  C4_7 
REMARK    6  A    between atoms: C10_16  and  O5_17 
REMARK    7  A    between atoms: C10_16  and  N2_19 
REMARK    8  A    between atoms: N2_19  and  C11_21 
REMARK    9  A    between atoms: C14_24  and  C15_25 
REMARK   10  A    between atoms: C15_25  and  C16_26 
REMARK   11  A    between atoms: C15_25  and  C17_31 
REMARK   12  A    between atoms: C16_26  and  O6_27 
REMARK   13  A    between atoms: C16_26  and  O7_29 
REMARK   14  A    between atoms: C17_31  and  O8_32 
REMARK   15  A    between atoms: C17_31  and  O9_34 
REMARK   16  A    between atoms: C17_31  and  O10_36 
REMARK   17  A    between atoms: O10_36  and  C18_37 
REMARK   18  A    between atoms: N3_39  and  N4_41 
ROOT
HETATM    1  C11 UNL     1     -18.174 -26.114  -9.924  1.00  0.00     0.030 A 
HETATM    2  C12 UNL     1     -17.978 -27.235  -9.105  1.00  0.00     0.030 A 
HETATM    3  C13 UNL     1     -18.105 -27.110  -7.744  1.00  0.00     0.010 A 
HETATM    4  C14 UNL     1     -18.418 -25.921  -7.120  1.00  0.00    -0.041 A 
HETATM    5  C20 UNL     1     -18.607 -24.824  -7.970  1.00  0.00     0.010 A 
HETATM    6  C21 UNL     1     -18.487 -24.915  -9.345  1.00  0.00     0.030 A 
ENDROOT
BRANCH   1   7
HETATM    7  N2  UNL     1     -18.050 -26.265 -11.319  1.00  0.00    -0.358 N 
ATOM      8  H2  UNL     1     -18.749 -26.827 -11.805  1.00  0.00     0.162 HD
BRANCH   7   9
HETATM    9  C10 UNL     1     -17.011 -25.679 -12.089  1.00  0.00     0.141 C 
HETATM   10  C9  UNL     1     -17.551 -24.793 -13.192  1.00  0.00     0.080 C 
HETATM   11  C8  UNL     1     -18.029 -25.657 -14.316  1.00  0.00     0.091 C 
HETATM   12  S1  UNL     1     -16.569 -26.769 -14.453  1.00  0.00    -0.156 SA
HETATM   13  C22 UNL     1     -16.027 -26.619 -12.700  1.00  0.00     0.135 C 
BRANCH  11  14
HETATM   14  C3  UNL     1     -18.195 -24.836 -15.563  1.00  0.00     0.243 C 
BRANCH  14  15
HETATM   15  C2  UNL     1     -18.248 -23.383 -15.286  1.00  0.00     0.289 C 
HETATM   16  O2  UNL     1     -17.208 -22.641 -15.304  1.00  0.00    -0.262 OA
BRANCH  15  17
HETATM   17  O1  UNL     1     -19.434 -22.719 -14.985  1.00  0.00    -0.324 OA
HETATM   18  C1  UNL     1     -19.517 -21.306 -15.012  1.00  0.00     0.213 C 
ENDBRANCH  15  17
ENDBRANCH  14  15
BRANCH  14  19
HETATM   19  O3  UNL     1     -19.419 -25.222 -16.160  1.00  0.00    -0.321 OA
BRANCH  19  20
HETATM   20  C4  UNL     1     -19.430 -25.487 -17.512  1.00  0.00     0.138 C 
HETATM   21  N1  UNL     1     -19.368 -26.701 -17.903  1.00  0.00    -0.370 N 
HETATM   22  C5  UNL     1     -19.374 -27.066 -19.322  1.00  0.00     0.147 C 
ATOM     23  H1  UNL     1     -19.313 -27.442 -17.204  1.00  0.00     0.161 HD
HETATM   24  C6  UNL     1     -19.656 -25.886 -20.207  1.00  0.00     0.187 C 
HETATM   25  O4  UNL     1     -20.343 -24.866 -19.552  1.00  0.00    -0.382 OA
HETATM   26  C7  UNL     1     -19.510 -24.399 -18.537  1.00  0.00     0.251 C 
ENDBRANCH  19  20
ENDBRANCH  14  19
ENDBRANCH  11  14
BRANCH   9  27
HETATM   27  O5  UNL     1     -16.289 -24.792 -11.256  1.00  0.00    -0.370 OA
ATOM     28  H5  UNL     1     -15.396 -25.112 -11.296  1.00  0.00     0.212 HD
ENDBRANCH   9  27
ENDBRANCH   7   9
ENDBRANCH   1   7
BRANCH   4  29
HETATM   29  C15 UNL     1     -18.560 -25.760  -5.663  1.00  0.00     0.167 C 
BRANCH  29  30
HETATM   30  C16 UNL     1     -19.550 -24.654  -5.352  1.00  0.00     0.270 C 
BRANCH  30  31
HETATM   31  O6  UNL     1     -20.387 -24.940  -4.310  1.00  0.00    -0.370 OA
ATOM     32  H6  UNL     1     -20.754 -24.170  -3.891  1.00  0.00     0.212 HD
ENDBRANCH  30  31
BRANCH  30  33
HETATM   33  O7  UNL     1     -18.790 -23.525  -4.974  1.00  0.00    -0.370 OA
ATOM     34  H7  UNL     1     -18.457 -23.139  -5.776  1.00  0.00     0.212 HD
ENDBRANCH  30  33
ENDBRANCH  29  30
BRANCH  29  35
HETATM   35  C17 UNL     1     -17.244 -25.591  -4.973  1.00  0.00     0.296 C 
BRANCH  35  36
HETATM   36  O8  UNL     1     -16.506 -26.767  -5.210  1.00  0.00    -0.342 OA
ATOM     37  H8  UNL     1     -16.834 -27.423  -4.607  1.00  0.00     0.215 HD
ENDBRANCH  35  36
BRANCH  35  38
HETATM   38  O9  UNL     1     -16.548 -24.532  -5.505  1.00  0.00    -0.342 OA
ATOM     39  H9  UNL     1     -16.101 -24.047  -4.822  1.00  0.00     0.215 HD
ENDBRANCH  35  38
BRANCH  35  40
HETATM   40  O10 UNL     1     -17.391 -25.384  -3.577  1.00  0.00    -0.276 OA
BRANCH  40  41
HETATM   41  C18 UNL     1     -16.443 -25.882  -2.721  1.00  0.00     0.134 C 
HETATM   42  C19 UNL     1     -16.666 -27.156  -1.996  1.00  0.00     0.099 C 
HETATM   43  N3  UNL     1     -15.351 -25.235  -2.550  1.00  0.00    -0.290 N 
ATOM     44  H3  UNL     1     -15.186 -24.358  -3.045  1.00  0.00     0.188 HD
BRANCH  43  45
HETATM   45  N4  UNL     1     -14.389 -25.747  -1.679  1.00  0.00    -0.343 N 
ATOM     46  H42 UNL     1     -14.569 -26.624  -1.191  1.00  0.00     0.176 HD
ATOM     47  H41 UNL     1     -13.518 -25.233  -1.545  1.00  0.00     0.176 HD
ENDBRANCH  43  45
ENDBRANCH  40  41
ENDBRANCH  35  40
ENDBRANCH  29  35
ENDBRANCH   4  29
TORSDOF 18
ENDMDL
MODEL 3
REMARK VINA RESULT: -8.288477583      1.395      2.379
REMARK  18 active torsions:
REMARK  status: ('A' for Active; 'I' for Inactive)
REMARK    1  A    between atoms: O1_2  and  C2_3 
REMARK    2  A    between atoms: C2_3  and  C3_5 
REMARK    3  A    between atoms: C3_5  and  O3_6 
REMARK    4  A    between atoms: C3_5  and  C8_14 
REMARK    5  A    between atoms: O3_6  and  C4_7 
REMARK    6  A    between atoms: C10_16  and  O5_17 
REMARK    7  A    between atoms: C10_16  and  N2_19 
REMARK    8  A    between atoms: N2_19  and  C11_21 
REMARK    9  A    between atoms: C14_24  and  C15_25 
REMARK   10  A    between atoms: C15_25  and  C16_26 
REMARK   11  A    between atoms: C15_25  and  C17_31 
REMARK   12  A    between atoms: C16_26  and  O6_27 
REMARK   13  A    between atoms: C16_26  and  O7_29 
REMARK   14  A    between atoms: C17_31  and  O8_32 
REMARK   15  A    between atoms: C17_31  and  O9_34 
REMARK   16  A    between atoms: C17_31  and  O10_36 
REMARK   17  A    between atoms: O10_36  and  C18_37 
REMARK   18  A    between atoms: N3_39  and  N4_41 
ROOT
HETATM    1  C11 UNL     1     -18.155 -26.039  -9.978  1.00  0.00     0.030 A 
HETATM    2  C12 UNL     1     -18.461 -24.805  -9.389  1.00  0.00     0.030 A 
HETATM    3  C13 UNL     1     -18.602 -24.721  -8.026  1.00  0.00     0.010 A 
HETATM    4  C14 UNL     1     -18.458 -25.804  -7.184  1.00  0.00    -0.041 A 
HETATM    5  C20 UNL     1     -18.152 -27.019  -7.808  1.00  0.00     0.010 A 
HETATM    6  C21 UNL     1     -18.004 -27.138  -9.178  1.00  0.00     0.030 A 
ENDROOT
BRANCH   1   7
HETATM    7  N2  UNL     1     -18.005 -26.102 -11.377  1.00  0.00    -0.358 N 
ATOM      8  H2  UNL     1     -18.744 -26.548 -11.919  1.00  0.00     0.162 HD
BRANCH   7   9
HETATM    9  C10 UNL     1     -16.884 -25.582 -12.078  1.00  0.00     0.141 C 
HETATM   10  C9  UNL     1     -17.293 -24.580 -13.138  1.00  0.00     0.080 C 
HETATM   11  C8  UNL     1     -17.815 -25.321 -14.328  1.00  0.00     0.091 C 
HETATM   12  S1  UNL     1     -16.470 -26.566 -14.492  1.00  0.00    -0.156 SA
HETATM   13  C22 UNL     1     -15.979 -26.579 -12.718  1.00  0.00     0.135 C 
BRANCH  11  14
HETATM   14  C3  UNL     1     -17.852 -24.413 -15.524  1.00  0.00     0.243 C 
BRANCH  14  15
HETATM   15  C2  UNL     1     -18.875 -23.351 -15.403  1.00  0.00     0.289 C 
HETATM   16  O2  UNL     1     -20.032 -23.446 -15.938  1.00  0.00    -0.262 OA
BRANCH  15  17
HETATM   17  O1  UNL     1     -18.652 -22.171 -14.699  1.00  0.00    -0.324 OA
HETATM   18  C1  UNL     1     -19.574 -21.097 -14.745  1.00  0.00     0.213 C 
ENDBRANCH  15  17
ENDBRANCH  14  15
BRANCH  14  19
HETATM   19  O3  UNL     1     -18.170 -25.213 -16.648  1.00  0.00    -0.321 OA
BRANCH  19  20
HETATM   20  C4  UNL     1     -17.521 -24.956 -17.836  1.00  0.00     0.138 C 
HETATM   21  N1  UNL     1     -17.952 -24.013 -18.581  1.00  0.00    -0.370 N 
HETATM   22  C5  UNL     1     -17.319 -23.676 -19.859  1.00  0.00     0.147 C 
ATOM     23  H1  UNL     1     -18.763 -23.475 -18.277  1.00  0.00     0.161 HD
HETATM   24  C6  UNL     1     -16.032 -24.423 -20.066  1.00  0.00     0.187 C 
HETATM   25  O4  UNL     1     -15.449 -24.842 -18.872  1.00  0.00    -0.382 OA
HETATM   26  C7  UNL     1     -16.331 -25.746 -18.282  1.00  0.00     0.251 C 
ENDBRANCH  19  20
ENDBRANCH  14  19
ENDBRANCH  11  14
BRANCH   9  27
HETATM   27  O5  UNL     1     -16.107 -24.826 -11.169  1.00  0.00    -0.370 OA
ATOM     28  H5  UNL     1     -16.346 -25.171 -10.317  1.00  0.00     0.212 HD
ENDBRANCH   9  27
ENDBRANCH   7   9
ENDBRANCH   1   7
BRANCH   4  29
HETATM   29  C15 UNL     1     -18.603 -25.742  -5.720  1.00  0.00     0.167 C 
BRANCH  29  30
HETATM   30  C16 UNL     1     -19.592 -24.658  -5.336  1.00  0.00     0.270 C 
BRANCH  30  31
HETATM   31  O6  UNL     1     -20.384 -24.985  -4.271  1.00  0.00    -0.370 OA
ATOM     32  H6  UNL     1     -20.147 -24.539  -3.466  1.00  0.00     0.212 HD
ENDBRANCH  30  31
BRANCH  30  33
HETATM   33  O7  UNL     1     -18.830 -23.531  -4.955  1.00  0.00    -0.370 OA
ATOM     34  H7  UNL     1     -17.947 -23.679  -5.271  1.00  0.00     0.212 HD
ENDBRANCH  30  33
ENDBRANCH  29  30
BRANCH  29  35
HETATM   35  C17 UNL     1     -17.288 -25.622  -5.016  1.00  0.00     0.296 C 
BRANCH  35  36
HETATM   36  O8  UNL     1     -16.588 -26.819  -5.256  1.00  0.00    -0.342 OA
ATOM     37  H8  UNL     1     -15.891 -26.863  -4.613  1.00  0.00     0.215 HD
ENDBRANCH  35  36
BRANCH  35  38
HETATM   38  O9  UNL     1     -16.553 -24.582  -5.533  1.00  0.00    -0.342 OA
ATOM     39  H9  UNL     1     -15.628 -24.794  -5.537  1.00  0.00     0.215 HD
ENDBRANCH  35  38
BRANCH  35  40
HETATM   40  O10 UNL     1     -17.441 -25.421  -3.619  1.00  0.00    -0.276 OA
BRANCH  40  41
HETATM   41  C18 UNL     1     -16.486 -25.905  -2.764  1.00  0.00     0.134 C 
HETATM   42  C19 UNL     1     -16.689 -27.183  -2.041  1.00  0.00     0.099 C 
HETATM   43  N3  UNL     1     -15.405 -25.239  -2.590  1.00  0.00    -0.290 N 
ATOM     44  H3  UNL     1     -15.255 -24.359  -3.082  1.00  0.00     0.188 HD
BRANCH  43  45
HETATM   45  N4  UNL     1     -14.436 -25.737  -1.718  1.00  0.00    -0.343 N 
ATOM     46  H42 UNL     1     -14.098 -26.692  -1.835  1.00  0.00     0.176 HD
ATOM     47  H41 UNL     1     -14.081 -25.134  -0.977  1.00  0.00     0.176 HD
ENDBRANCH  43  45
ENDBRANCH  40  41
ENDBRANCH  35  40
ENDBRANCH  29  35
ENDBRANCH   4  29
TORSDOF 18
ENDMDL
MODEL 4
REMARK VINA RESULT: -8.197577883      4.642      7.504
REMARK  18 active torsions:
REMARK  status: ('A' for Active; 'I' for Inactive)
REMARK    1  A    between atoms: O1_2  and  C2_3 
REMARK    2  A    between atoms: C2_3  and  C3_5 
REMARK    3  A    between atoms: C3_5  and  O3_6 
REMARK    4  A    between atoms: C3_5  and  C8_14 
REMARK    5  A    between atoms: O3_6  and  C4_7 
REMARK    6  A    between atoms: C10_16  and  O5_17 
REMARK    7  A    between atoms: C10_16  and  N2_19 
REMARK    8  A    between atoms: N2_19  and  C11_21 
REMARK    9  A    between atoms: C14_24  and  C15_25 
REMARK   10  A    between atoms: C15_25  and  C16_26 
REMARK   11  A    between atoms: C15_25  and  C17_31 
REMARK   12  A    between atoms: C16_26  and  O6_27 
REMARK   13  A    between atoms: C16_26  and  O7_29 
REMARK   14  A    between atoms: C17_31  and  O8_32 
REMARK   15  A    between atoms: C17_31  and  O9_34 
REMARK   16  A    between atoms: C17_31  and  O10_36 
REMARK   17  A    between atoms: O10_36  and  C18_37 
REMARK   18  A    between atoms: N3_39  and  N4_41 
ROOT
HETATM    1  C11 UNL     1     -18.580 -23.011 -15.757  1.00  0.00     0.030 A 
HETATM    2  C12 UNL     1     -19.207 -24.233 -15.478  1.00  0.00     0.030 A 
HETATM    3  C13 UNL     1     -18.619 -25.112 -14.604  1.00  0.00     0.010 A 
HETATM    4  C14 UNL     1     -17.420 -24.860 -13.970  1.00  0.00    -0.041 A 
HETATM    5  C20 UNL     1     -16.823 -23.630 -14.272  1.00  0.00     0.010 A 
HETATM    6  C21 UNL     1     -17.389 -22.721 -15.149  1.00  0.00     0.030 A 
ENDROOT
BRANCH   1   7
HETATM    7  N2  UNL     1     -19.204 -22.117 -16.649  1.00  0.00    -0.358 N 
ATOM      8  H2  UNL     1     -19.844 -21.424 -16.263  1.00  0.00     0.162 HD
BRANCH   7   9
HETATM    9  C10 UNL     1     -18.994 -22.124 -18.053  1.00  0.00     0.141 C 
HETATM   10  C9  UNL     1     -20.298 -22.135 -18.822  1.00  0.00     0.080 C 
HETATM   11  C8  UNL     1     -20.859 -23.522 -18.802  1.00  0.00     0.091 C 
HETATM   12  S1  UNL     1     -19.335 -24.445 -19.263  1.00  0.00    -0.156 SA
HETATM   13  C22 UNL     1     -18.137 -23.219 -18.591  1.00  0.00     0.135 C 
BRANCH  11  14
HETATM   14  C3  UNL     1     -21.913 -23.667 -19.863  1.00  0.00     0.243 C 
BRANCH  14  15
HETATM   15  C2  UNL     1     -22.876 -24.751 -19.567  1.00  0.00     0.289 C 
HETATM   16  O2  UNL     1     -24.063 -24.522 -19.152  1.00  0.00    -0.262 OA
BRANCH  15  17
HETATM   17  O1  UNL     1     -22.558 -26.098 -19.717  1.00  0.00    -0.324 OA
HETATM   18  C1  UNL     1     -23.234 -26.916 -20.654  1.00  0.00     0.213 C 
ENDBRANCH  15  17
ENDBRANCH  14  15
BRANCH  14  19
HETATM   19  O3  UNL     1     -21.249 -23.977 -21.074  1.00  0.00    -0.321 OA
BRANCH  19  20
HETATM   20  C4  UNL     1     -21.636 -23.315 -22.219  1.00  0.00     0.138 C 
HETATM   21  N1  UNL     1     -22.195 -23.978 -23.156  1.00  0.00    -0.370 N 
HETATM   22  C5  UNL     1     -22.635 -23.349 -24.403  1.00  0.00     0.147 C 
ATOM     23  H1  UNL     1     -22.339 -24.980 -23.032  1.00  0.00     0.161 HD
HETATM   24  C6  UNL     1     -22.530 -21.851 -24.347  1.00  0.00     0.187 C 
HETATM   25  O4  UNL     1     -22.555 -21.352 -23.047  1.00  0.00    -0.382 OA
HETATM   26  C7  UNL     1     -21.423 -21.844 -22.399  1.00  0.00     0.251 C 
ENDBRANCH  19  20
ENDBRANCH  14  19
ENDBRANCH  11  14
BRANCH   9  27
HETATM   27  O5  UNL     1     -18.390 -20.897 -18.415  1.00  0.00    -0.370 OA
ATOM     28  H5  UNL     1     -18.283 -20.960 -19.357  1.00  0.00     0.212 HD
ENDBRANCH   9  27
ENDBRANCH   7   9
ENDBRANCH   1   7
BRANCH   4  29
HETATM   29  C15 UNL     1     -16.768 -25.785 -13.028  1.00  0.00     0.167 C 
BRANCH  29  30
HETATM   30  C16 UNL     1     -16.584 -27.145 -13.673  1.00  0.00     0.270 C 
BRANCH  30  31
HETATM   31  O6  UNL     1     -15.480 -27.821 -13.232  1.00  0.00    -0.370 OA
ATOM     32  H6  UNL     1     -15.390 -27.832 -12.286  1.00  0.00     0.212 HD
ENDBRANCH  30  31
BRANCH  30  33
HETATM   33  O7  UNL     1     -17.712 -27.919 -13.317  1.00  0.00    -0.370 OA
ATOM     34  H7  UNL     1     -17.508 -28.330 -12.485  1.00  0.00     0.212 HD
ENDBRANCH  30  33
ENDBRANCH  29  30
BRANCH  29  35
HETATM   35  C17 UNL     1     -17.463 -25.844 -11.705  1.00  0.00     0.296 C 
BRANCH  35  36
HETATM   36  O8  UNL     1     -16.864 -26.888 -10.976  1.00  0.00    -0.342 OA
ATOM     37  H8  UNL     1     -17.535 -27.545 -10.835  1.00  0.00     0.215 HD
ENDBRANCH  35  36
BRANCH  35  38
HETATM   38  O9  UNL     1     -17.281 -24.673 -11.009  1.00  0.00    -0.342 OA
ATOM     39  H9  UNL     1     -18.108 -24.223 -10.887  1.00  0.00     0.215 HD
ENDBRANCH  35  38
BRANCH  35  40
HETATM   40  O10 UNL     1     -18.856 -26.082 -11.839  1.00  0.00    -0.276 OA
BRANCH  40  41
HETATM   41  C18 UNL     1     -19.568 -26.521 -10.753  1.00  0.00     0.134 C 
HETATM   42  C19 UNL     1     -20.764 -27.381 -10.925  1.00  0.00     0.099 C 
HETATM   43  N3  UNL     1     -19.192 -26.181  -9.577  1.00  0.00    -0.290 N 
ATOM     44  H3  UNL     1     -18.371 -25.590  -9.448  1.00  0.00     0.188 HD
BRANCH  43  45
HETATM   45  N4  UNL     1     -19.920 -26.631  -8.476  1.00  0.00    -0.343 N 
ATOM     46  H42 UNL     1     -20.589 -27.392  -8.593  1.00  0.00     0.176 HD
ATOM     47  H41 UNL     1     -19.771 -26.190  -7.569  1.00  0.00     0.176 HD
ENDBRANCH  43  45
ENDBRANCH  40  41
ENDBRANCH  35  40
ENDBRANCH  29  35
ENDBRANCH   4  29
TORSDOF 18
ENDMDL
MODEL 5
REMARK VINA RESULT: -8.175374648      2.764      4.229
REMARK  18 active torsions:
REMARK  status: ('A' for Active; 'I' for Inactive)
REMARK    1  A    between atoms: O1_2  and  C2_3 
REMARK    2  A    between atoms: C2_3  and  C3_5 
REMARK    3  A    between atoms: C3_5  and  O3_6 
REMARK    4  A    between atoms: C3_5  and  C8_14 
REMARK    5  A    between atoms: O3_6  and  C4_7 
REMARK    6  A    between atoms: C10_16  and  O5_17 
REMARK    7  A    between atoms: C10_16  and  N2_19 
REMARK    8  A    between atoms: N2_19  and  C11_21 
REMARK    9  A    between atoms: C14_24  and  C15_25 
REMARK   10  A    between atoms: C15_25  and  C16_26 
REMARK   11  A    between atoms: C15_25  and  C17_31 
REMARK   12  A    between atoms: C16_26  and  O6_27 
REMARK   13  A    between atoms: C16_26  and  O7_29 
REMARK   14  A    between atoms: C17_31  and  O8_32 
REMARK   15  A    between atoms: C17_31  and  O9_34 
REMARK   16  A    between atoms: C17_31  and  O10_36 
REMARK   17  A    between atoms: O10_36  and  C18_37 
REMARK   18  A    between atoms: N3_39  and  N4_41 
ROOT
HETATM    1  C11 UNL     1     -16.834 -25.614 -12.917  1.00  0.00     0.030 A 
HETATM    2  C12 UNL     1     -16.980 -24.837 -11.760  1.00  0.00     0.030 A 
HETATM    3  C13 UNL     1     -17.818 -25.263 -10.760  1.00  0.00     0.010 A 
HETATM    4  C14 UNL     1     -18.540 -26.436 -10.827  1.00  0.00    -0.041 A 
HETATM    5  C20 UNL     1     -18.368 -27.186 -11.997  1.00  0.00     0.010 A 
HETATM    6  C21 UNL     1     -17.533 -26.785 -13.024  1.00  0.00     0.030 A 
ENDROOT
BRANCH   1   7
HETATM    7  N2  UNL     1     -15.962 -25.165 -13.929  1.00  0.00    -0.358 N 
ATOM      8  H2  UNL     1     -15.187 -24.560 -13.660  1.00  0.00     0.162 HD
BRANCH   7   9
HETATM    9  C10 UNL     1     -16.099 -25.506 -15.300  1.00  0.00     0.141 C 
HETATM   10  C9  UNL     1     -16.385 -24.292 -16.161  1.00  0.00     0.080 C 
HETATM   11  C8  UNL     1     -17.826 -23.922 -16.010  1.00  0.00     0.091 C 
HETATM   12  S1  UNL     1     -18.568 -25.591 -16.231  1.00  0.00    -0.156 SA
HETATM   13  C22 UNL     1     -17.114 -26.547 -15.629  1.00  0.00     0.135 C 
BRANCH  11  14
HETATM   14  C3  UNL     1     -18.240 -23.001 -17.123  1.00  0.00     0.243 C 
BRANCH  14  15
HETATM   15  C2  UNL     1     -19.162 -21.937 -16.669  1.00  0.00     0.289 C 
HETATM   16  O2  UNL     1     -19.413 -20.898 -17.371  1.00  0.00    -0.262 OA
BRANCH  15  17
HETATM   17  O1  UNL     1     -19.823 -21.988 -15.445  1.00  0.00    -0.324 OA
HETATM   18  C1  UNL     1     -19.770 -20.907 -14.531  1.00  0.00     0.213 C 
ENDBRANCH  15  17
ENDBRANCH  14  15
BRANCH  14  19
HETATM   19  O3  UNL     1     -18.908 -23.788 -18.091  1.00  0.00    -0.321 OA
BRANCH  19  20
HETATM   20  C4  UNL     1     -19.111 -23.249 -19.343  1.00  0.00     0.138 C 
HETATM   21  N1  UNL     1     -20.307 -23.054 -19.744  1.00  0.00    -0.370 N 
HETATM   22  C5  UNL     1     -20.607 -22.485 -21.060  1.00  0.00     0.147 C 
ATOM     23  H1  UNL     1     -21.080 -23.301 -19.127  1.00  0.00     0.161 HD
HETATM   24  C6  UNL     1     -19.370 -21.997 -21.759  1.00  0.00     0.187 C 
HETATM   25  O4  UNL     1     -18.331 -21.696 -20.880  1.00  0.00    -0.382 OA
HETATM   26  C7  UNL     1     -17.975 -22.886 -20.248  1.00  0.00     0.251 C 
ENDBRANCH  19  20
ENDBRANCH  14  19
ENDBRANCH  11  14
BRANCH   9  27
HETATM   27  O5  UNL     1     -14.847 -25.972 -15.767  1.00  0.00    -0.370 OA
ATOM     28  H5  UNL     1     -15.066 -26.717 -16.314  1.00  0.00     0.212 HD
ENDBRANCH   9  27
ENDBRANCH   7   9
ENDBRANCH   1   7
BRANCH   4  29
HETATM   29  C15 UNL     1     -19.444 -26.916  -9.769  1.00  0.00     0.167 C 
BRANCH  29  30
HETATM   30  C16 UNL     1     -20.838 -26.358  -9.977  1.00  0.00     0.270 C 
BRANCH  30  31
HETATM   31  O6  UNL     1     -21.836 -27.270  -9.771  1.00  0.00    -0.370 OA
ATOM     32  H6  UNL     1     -22.397 -27.064  -9.033  1.00  0.00     0.212 HD
ENDBRANCH  30  31
BRANCH  30  33
HETATM   33  O7  UNL     1     -21.011 -25.333  -9.019  1.00  0.00    -0.370 OA
ATOM     34  H7  UNL     1     -21.787 -25.556  -8.519  1.00  0.00     0.212 HD
ENDBRANCH  30  33
ENDBRANCH  29  30
BRANCH  29  35
HETATM   35  C17 UNL     1     -18.904 -26.670  -8.396  1.00  0.00     0.296 C 
BRANCH  35  36
HETATM   36  O8  UNL     1     -19.827 -27.224  -7.489  1.00  0.00    -0.342 OA
ATOM     37  H8  UNL     1     -20.464 -26.547  -7.297  1.00  0.00     0.215 HD
ENDBRANCH  35  36
BRANCH  35  38
HETATM   38  O9  UNL     1     -17.699 -27.308  -8.226  1.00  0.00    -0.342 OA
ATOM     39  H9  UNL     1     -17.705 -27.834  -7.435  1.00  0.00     0.215 HD
ENDBRANCH  35  38
BRANCH  35  40
HETATM   40  O10 UNL     1     -18.729 -25.288  -8.126  1.00  0.00    -0.276 OA
BRANCH  40  41
HETATM   41  C18 UNL     1     -18.736 -24.852  -6.826  1.00  0.00     0.134 C 
HETATM   42  C19 UNL     1     -17.482 -24.789  -6.038  1.00  0.00     0.099 C 
HETATM   43  N3  UNL     1     -19.843 -24.496  -6.290  1.00  0.00    -0.290 N 
ATOM     44  H3  UNL     1     -20.713 -24.535  -6.823  1.00  0.00     0.188 HD
BRANCH  43  45
HETATM   45  N4  UNL     1     -19.844 -24.053  -4.967  1.00  0.00    -0.343 N 
ATOM     46  H42 UNL     1     -20.673 -23.592  -4.593  1.00  0.00     0.176 HD
ATOM     47  H41 UNL     1     -19.013 -24.199  -4.395  1.00  0.00     0.176 HD
ENDBRANCH  43  45
ENDBRANCH  40  41
ENDBRANCH  35  40
ENDBRANCH  29  35
ENDBRANCH   4  29
TORSDOF 18
ENDMDL
