MODEL 1
REMARK VINA RESULT: -4.449765221      0.000      0.000
REMARK  2 active torsions:
REMARK  status: ('A' for Active; 'I' for Inactive)
REMARK    1  A    between atoms: N1_3  and  C3_5 
REMARK    2  A    between atoms: C3_5  and  N2_7 
ROOT
HETATM    1  C1  UNL     1      18.483  13.443  19.988  1.00  0.00     0.037 C 
HETATM    2  C2  UNL     1      18.159  14.593  19.873  1.00  0.00     0.001 C 
HETATM    3  N1  UNL     1      17.787  15.957  19.750  1.00  0.00    -0.292 N 
ATOM      4  H1  UNL     1      18.087  16.492  18.936  1.00  0.00     0.178 HD
ENDROOT
BRANCH   3   5
HETATM    5  C3  UNL     1      17.011  16.573  20.738  1.00  0.00     0.192 C 
HETATM    6  S1  UNL     1      16.108  15.714  21.775  1.00  0.00    -0.039 SA
BRANCH   5   7
HETATM    7  N2  UNL     1      17.006  17.979  20.841  1.00  0.00    -0.269 N 
HETATM    8  C4  UNL     1      16.526  18.627  22.006  1.00  0.00     0.184 C 
HETATM    9  N3  UNL     1      16.141  19.170  22.956  1.00  0.00    -0.172 NA
ATOM     10  H2  UNL     1      17.356  18.540  20.064  1.00  0.00     0.180 HD
ENDBRANCH   5   7
ENDBRANCH   3   5
TORSDOF 2
ENDMDL
MODEL 2
REMARK VINA RESULT: -4.255298922      2.403      2.814
REMARK  2 active torsions:
REMARK  status: ('A' for Active; 'I' for Inactive)
REMARK    1  A    between atoms: N1_3  and  C3_5 
REMARK    2  A    between atoms: C3_5  and  N2_7 
ROOT
HETATM    1  C1  UNL     1      18.266  14.733  19.794  1.00  0.00     0.037 C 
HETATM    2  C2  UNL     1      17.654  15.738  20.036  1.00  0.00     0.001 C 
HETATM    3  N1  UNL     1      16.943  16.928  20.334  1.00  0.00    -0.292 N 
ATOM      4  H1  UNL     1      16.897  17.676  19.643  1.00  0.00     0.178 HD
ENDROOT
BRANCH   3   5
HETATM    5  C3  UNL     1      16.304  17.085  21.569  1.00  0.00     0.192 C 
HETATM    6  S1  UNL     1      16.537  18.398  22.491  1.00  0.00    -0.039 SA
BRANCH   5   7
HETATM    7  N2  UNL     1      15.433  16.079  22.033  1.00  0.00    -0.269 N 
HETATM    8  C4  UNL     1      15.925  14.946  22.729  1.00  0.00     0.184 C 
HETATM    9  N3  UNL     1      16.313  14.018  23.304  1.00  0.00    -0.172 NA
ATOM     10  H2  UNL     1      14.431  16.167  21.866  1.00  0.00     0.180 HD
ENDBRANCH   5   7
ENDBRANCH   3   5
TORSDOF 2
ENDMDL
MODEL 3
REMARK VINA RESULT: -4.034860832      1.203      1.203
REMARK  2 active torsions:
REMARK  status: ('A' for Active; 'I' for Inactive)
REMARK    1  A    between atoms: N1_3  and  C3_5 
REMARK    2  A    between atoms: C3_5  and  N2_7 
ROOT
HETATM    1  C1  UNL     1      18.573  14.047  19.660  1.00  0.00     0.037 C 
HETATM    2  C2  UNL     1      17.920  14.967  20.069  1.00  0.00     0.001 C 
HETATM    3  N1  UNL     1      17.157  16.054  20.568  1.00  0.00    -0.292 N 
ATOM      4  H1  UNL     1      17.281  16.984  20.170  1.00  0.00     0.178 HD
ENDROOT
BRANCH   3   5
HETATM    5  C3  UNL     1      16.234  15.859  21.603  1.00  0.00     0.192 C 
HETATM    6  S1  UNL     1      16.126  14.449  22.396  1.00  0.00    -0.039 SA
BRANCH   5   7
HETATM    7  N2  UNL     1      15.372  16.911  21.972  1.00  0.00    -0.269 N 
HETATM    8  C4  UNL     1      15.883  18.165  22.389  1.00  0.00     0.184 C 
HETATM    9  N3  UNL     1      16.287  19.199  22.726  1.00  0.00    -0.172 NA
ATOM     10  H2  UNL     1      14.363  16.767  21.938  1.00  0.00     0.180 HD
ENDBRANCH   5   7
ENDBRANCH   3   5
TORSDOF 2
ENDMDL
MODEL 4
REMARK VINA RESULT: -3.985963425      2.218      2.343
REMARK  2 active torsions:
REMARK  status: ('A' for Active; 'I' for Inactive)
REMARK    1  A    between atoms: N1_3  and  C3_5 
REMARK    2  A    between atoms: C3_5  and  N2_7 
ROOT
HETATM    1  C1  UNL     1      16.005  13.524  22.816  1.00  0.00     0.037 C 
HETATM    2  C2  UNL     1      15.776  14.649  22.462  1.00  0.00     0.001 C 
HETATM    3  N1  UNL     1      15.507  15.972  22.028  1.00  0.00    -0.292 N 
ATOM      4  H1  UNL     1      14.613  16.407  22.256  1.00  0.00     0.178 HD
ENDROOT
BRANCH   3   5
HETATM    5  C3  UNL     1      16.456  16.686  21.288  1.00  0.00     0.192 C 
HETATM    6  S1  UNL     1      17.410  15.959  20.196  1.00  0.00    -0.039 SA
BRANCH   5   7
HETATM    7  N2  UNL     1      16.595  18.073  21.491  1.00  0.00    -0.269 N 
HETATM    8  C4  UNL     1      16.538  18.634  22.791  1.00  0.00     0.184 C 
HETATM    9  N3  UNL     1      16.500  19.105  23.850  1.00  0.00    -0.172 NA
ATOM     10  H2  UNL     1      16.739  18.685  20.687  1.00  0.00     0.180 HD
ENDBRANCH   5   7
ENDBRANCH   3   5
TORSDOF 2
ENDMDL
MODEL 5
REMARK VINA RESULT: -3.941801466      3.644      4.198
REMARK  2 active torsions:
REMARK  status: ('A' for Active; 'I' for Inactive)
REMARK    1  A    between atoms: N1_3  and  C3_5 
REMARK    2  A    between atoms: C3_5  and  N2_7 
ROOT
HETATM    1  C1  UNL     1      16.887  17.338  20.656  1.00  0.00     0.037 C 
HETATM    2  C2  UNL     1      16.162  16.663  21.334  1.00  0.00     0.001 C 
HETATM    3  N1  UNL     1      15.314  15.869  22.148  1.00  0.00    -0.292 N 
ATOM      4  H1  UNL     1      14.353  16.164  22.316  1.00  0.00     0.178 HD
ENDROOT
BRANCH   3   5
HETATM    5  C3  UNL     1      15.787  14.684  22.724  1.00  0.00     0.192 C 
HETATM    6  S1  UNL     1      16.646  13.604  21.872  1.00  0.00    -0.039 SA
BRANCH   5   7
HETATM    7  N2  UNL     1      15.514  14.412  24.079  1.00  0.00    -0.269 N 
HETATM    8  C4  UNL     1      16.556  14.337  25.036  1.00  0.00     0.184 C 
HETATM    9  N3  UNL     1      17.399  14.278  25.831  1.00  0.00    -0.172 NA
ATOM     10  H2  UNL     1      14.549  14.268  24.377  1.00  0.00     0.180 HD
ENDBRANCH   5   7
ENDBRANCH   3   5
TORSDOF 2
ENDMDL
