MODEL 1
REMARK VINA RESULT: -8.812016544      0.000      0.000
REMARK  4 active torsions:
REMARK  status: ('A' for Active; 'I' for Inactive)
REMARK    1  A    between atoms: C2_2  and  C3_3 
REMARK    2  A    between atoms: C14_14  and  C16_16 
REMARK    3  A    between atoms: C17_17  and  C18_18 
REMARK    4  A    between atoms: C18_18  and  C19_20 
ROOT
HETATM    1  C3  UNL     1      28.929   3.733  32.633  1.00  0.00     0.007 C 
HETATM    2  C4  UNL     1      27.507   3.939  32.193  1.00  0.00     0.025 C 
HETATM    3  C5  UNL     1      29.889   3.523  31.510  1.00  0.00     0.019 C 
HETATM    4  C6  UNL     1      31.003   2.616  32.033  1.00  0.00     0.008 C 
HETATM    5  C7  UNL     1      30.459   1.206  32.090  1.00  0.00     0.011 C 
HETATM    6  C8  UNL     1      29.359   1.192  33.110  1.00  0.00    -0.004 C 
HETATM    7  C9  UNL     1      28.067   0.634  32.491  1.00  0.00     0.021 C 
HETATM    8  C10 UNL     1      29.649   0.354  34.309  1.00  0.00     0.015 C 
HETATM    9  C11 UNL     1      31.058   0.549  34.742  1.00  0.00     0.006 C 
HETATM   10  C12 UNL     1      31.995   0.027  33.696  1.00  0.00    -0.006 C 
HETATM   11  C13 UNL     1      32.297  -1.425  34.034  1.00  0.00     0.011 C 
HETATM   12  C14 UNL     1      31.506   0.158  32.292  1.00  0.00    -0.018 C 
HETATM   13  C15 UNL     1      30.958  -1.174  31.763  1.00  0.00     0.020 C 
HETATM   14  C20 UNL     1      29.013   2.572  33.565  1.00  0.00     0.008 C 
HETATM   15  S1  UNL     1      28.735   2.879  34.956  1.00  0.00    -0.088 SA
ENDROOT
BRANCH  12  16
HETATM   16  C16 UNL     1      32.652   0.486  31.412  1.00  0.00    -0.013 C 
HETATM   17  C17 UNL     1      33.921   0.450  31.760  1.00  0.00     0.048 C 
BRANCH  17  18
HETATM   18  C18 UNL     1      34.942   0.801  30.782  1.00  0.00     0.162 C 
HETATM   19  O1  UNL     1      34.594   1.264  29.669  1.00  0.00    -0.292 OA
BRANCH  18  20
HETATM   20  C19 UNL     1      36.390   0.632  31.049  1.00  0.00     0.197 C 
HETATM   21 CL1  UNL     1      37.344   1.962  30.371  1.00  0.00    -0.122 Cl
ENDBRANCH  18  20
ENDBRANCH  17  18
ENDBRANCH  12  16
BRANCH   1  22
HETATM   22  C2  UNL     1      29.352   4.997  33.342  1.00  0.00    -0.022 C 
HETATM   23  C1  UNL     1      28.613   6.083  33.308  1.00  0.00     0.008 C 
ENDBRANCH   1  22
TORSDOF 4
ENDMDL
MODEL 2
REMARK VINA RESULT: -8.717127045      3.138      5.958
REMARK  4 active torsions:
REMARK  status: ('A' for Active; 'I' for Inactive)
REMARK    1  A    between atoms: C2_2  and  C3_3 
REMARK    2  A    between atoms: C14_14  and  C16_16 
REMARK    3  A    between atoms: C17_17  and  C18_18 
REMARK    4  A    between atoms: C18_18  and  C19_20 
ROOT
HETATM    1  C3  UNL     1      33.267   0.557  32.038  1.00  0.00     0.007 C 
HETATM    2  C4  UNL     1      33.707  -0.768  32.593  1.00  0.00     0.025 C 
HETATM    3  C5  UNL     1      32.732   1.499  33.064  1.00  0.00     0.019 C 
HETATM    4  C6  UNL     1      31.684   2.372  32.374  1.00  0.00     0.008 C 
HETATM    5  C7  UNL     1      30.432   1.540  32.204  1.00  0.00     0.011 C 
HETATM    6  C8  UNL     1      30.765   0.418  31.265  1.00  0.00    -0.004 C 
HETATM    7  C9  UNL     1      30.416  -0.934  31.908  1.00  0.00     0.021 C 
HETATM    8  C10 UNL     1      30.033   0.470  29.967  1.00  0.00     0.015 C 
HETATM    9  C11 UNL     1      29.984   1.868  29.463  1.00  0.00     0.006 C 
HETATM   10  C12 UNL     1      29.162   2.719  30.381  1.00  0.00    -0.006 C 
HETATM   11  C13 UNL     1      27.729   2.691  29.871  1.00  0.00     0.011 C 
HETATM   12  C14 UNL     1      29.223   2.330  31.821  1.00  0.00    -0.018 C 
HETATM   13  C15 UNL     1      27.979   1.537  32.241  1.00  0.00     0.020 C 
HETATM   14  C20 UNL     1      32.232   0.353  30.984  1.00  0.00     0.008 C 
HETATM   15  S1  UNL     1      32.751   0.084  29.655  1.00  0.00    -0.088 SA
ENDROOT
BRANCH  12  16
HETATM   16  C16 UNL     1      29.203   3.558  32.651  1.00  0.00    -0.013 C 
HETATM   17  C17 UNL     1      29.374   4.786  32.209  1.00  0.00     0.048 C 
BRANCH  17  18
HETATM   18  C18 UNL     1      29.327   5.899  33.148  1.00  0.00     0.162 C 
HETATM   19  O1  UNL     1      28.292   6.080  33.834  1.00  0.00    -0.292 OA
BRANCH  18  20
HETATM   20  C19 UNL     1      30.462   6.834  33.331  1.00  0.00     0.197 C 
HETATM   21 CL1  UNL     1      31.864   6.365  32.356  1.00  0.00    -0.122 Cl
ENDBRANCH  18  20
ENDBRANCH  17  18
ENDBRANCH  12  16
BRANCH   1  22
HETATM   22  C2  UNL     1      34.491   1.207  31.440  1.00  0.00    -0.022 C 
HETATM   23  C1  UNL     1      35.680   0.658  31.546  1.00  0.00     0.008 C 
ENDBRANCH   1  22
TORSDOF 4
ENDMDL
MODEL 3
REMARK VINA RESULT: -8.673453305      1.050      1.050
REMARK  4 active torsions:
REMARK  status: ('A' for Active; 'I' for Inactive)
REMARK    1  A    between atoms: C2_2  and  C3_3 
REMARK    2  A    between atoms: C14_14  and  C16_16 
REMARK    3  A    between atoms: C17_17  and  C18_18 
REMARK    4  A    between atoms: C18_18  and  C19_20 
ROOT
HETATM    1  C3  UNL     1      29.310   3.685  32.360  1.00  0.00     0.007 C 
HETATM    2  C4  UNL     1      27.924   3.941  31.839  1.00  0.00     0.025 C 
HETATM    3  C5  UNL     1      30.317   3.402  31.297  1.00  0.00     0.019 C 
HETATM    4  C6  UNL     1      31.360   2.463  31.901  1.00  0.00     0.008 C 
HETATM    5  C7  UNL     1      30.751   1.079  31.964  1.00  0.00     0.011 C 
HETATM    6  C8  UNL     1      29.599   1.141  32.924  1.00  0.00    -0.004 C 
HETATM    7  C9  UNL     1      28.318   0.624  32.250  1.00  0.00     0.021 C 
HETATM    8  C10 UNL     1      29.787   0.325  34.158  1.00  0.00     0.015 C 
HETATM    9  C11 UNL     1      31.179   0.470  34.660  1.00  0.00     0.006 C 
HETATM   10  C12 UNL     1      32.145  -0.120  33.680  1.00  0.00    -0.006 C 
HETATM   11  C13 UNL     1      32.363  -1.575  34.071  1.00  0.00     0.011 C 
HETATM   12  C14 UNL     1      31.737  -0.007  32.249  1.00  0.00    -0.018 C 
HETATM   13  C15 UNL     1      31.158  -1.328  31.725  1.00  0.00     0.020 C 
HETATM   14  C20 UNL     1      29.292   2.548  33.324  1.00  0.00     0.008 C 
HETATM   15  S1  UNL     1      28.955   2.905  34.691  1.00  0.00    -0.088 SA
ENDROOT
BRANCH  12  16
HETATM   16  C16 UNL     1      32.942   0.246  31.424  1.00  0.00    -0.013 C 
HETATM   17  C17 UNL     1      34.176   0.323  31.873  1.00  0.00     0.048 C 
BRANCH  17  18
HETATM   18  C18 UNL     1      35.264   0.578  30.938  1.00  0.00     0.162 C 
HETATM   19  O1  UNL     1      35.456   1.746  30.523  1.00  0.00    -0.292 OA
BRANCH  18  20
HETATM   20  C19 UNL     1      36.164  -0.495  30.452  1.00  0.00     0.197 C 
HETATM   21 CL1  UNL     1      35.758  -2.065  31.163  1.00  0.00    -0.122 Cl
ENDBRANCH  18  20
ENDBRANCH  17  18
ENDBRANCH  12  16
BRANCH   1  22
HETATM   22  C2  UNL     1      29.751   4.948  33.059  1.00  0.00    -0.022 C 
HETATM   23  C1  UNL     1      28.960   5.993  33.153  1.00  0.00     0.008 C 
ENDBRANCH   1  22
TORSDOF 4
ENDMDL
MODEL 4
REMARK VINA RESULT: -8.604236048      3.224      6.017
REMARK  4 active torsions:
REMARK  status: ('A' for Active; 'I' for Inactive)
REMARK    1  A    between atoms: C2_2  and  C3_3 
REMARK    2  A    between atoms: C14_14  and  C16_16 
REMARK    3  A    between atoms: C17_17  and  C18_18 
REMARK    4  A    between atoms: C18_18  and  C19_20 
ROOT
HETATM    1  C3  UNL     1      34.393   0.458  31.900  1.00  0.00     0.007 C 
HETATM    2  C4  UNL     1      35.394  -0.419  32.598  1.00  0.00     0.025 C 
HETATM    3  C5  UNL     1      34.073   1.717  32.633  1.00  0.00     0.019 C 
HETATM    4  C6  UNL     1      32.627   2.081  32.295  1.00  0.00     0.008 C 
HETATM    5  C7  UNL     1      31.725   1.161  33.087  1.00  0.00     0.011 C 
HETATM    6  C8  UNL     1      31.961  -0.235  32.589  1.00  0.00    -0.004 C 
HETATM    7  C9  UNL     1      32.324  -1.163  33.759  1.00  0.00     0.021 C 
HETATM    8  C10 UNL     1      30.782  -0.849  31.912  1.00  0.00     0.015 C 
HETATM    9  C11 UNL     1      30.118   0.149  31.033  1.00  0.00     0.006 C 
HETATM   10  C12 UNL     1      29.532   1.253  31.858  1.00  0.00    -0.006 C 
HETATM   11  C13 UNL     1      28.095   0.871  32.180  1.00  0.00     0.011 C 
HETATM   12  C14 UNL     1      30.290   1.579  33.102  1.00  0.00    -0.018 C 
HETATM   13  C15 UNL     1      29.624   0.965  34.340  1.00  0.00     0.020 C 
HETATM   14  C20 UNL     1      33.130  -0.296  31.661  1.00  0.00     0.008 C 
HETATM   15  S1  UNL     1      33.114  -1.102  30.452  1.00  0.00    -0.088 SA
ENDROOT
BRANCH  12  16
HETATM   16  C16 UNL     1      30.247   3.044  33.320  1.00  0.00    -0.013 C 
HETATM   17  C17 UNL     1      30.046   3.953  32.390  1.00  0.00     0.048 C 
BRANCH  17  18
HETATM   18  C18 UNL     1      30.030   5.363  32.757  1.00  0.00     0.162 C 
HETATM   19  O1  UNL     1      31.059   6.058  32.574  1.00  0.00    -0.292 OA
BRANCH  18  20
HETATM   20  C19 UNL     1      28.838   6.018  33.344  1.00  0.00     0.197 C 
HETATM   21 CL1  UNL     1      27.346   5.154  32.938  1.00  0.00    -0.122 Cl
ENDBRANCH  18  20
ENDBRANCH  17  18
ENDBRANCH  12  16
BRANCH   1  22
HETATM   22  C2  UNL     1      35.012   0.861  30.584  1.00  0.00    -0.022 C 
HETATM   23  C1  UNL     1      36.211   1.396  30.524  1.00  0.00     0.008 C 
ENDBRANCH   1  22
TORSDOF 4
ENDMDL
MODEL 5
REMARK VINA RESULT: -8.542933624      2.959      5.674
REMARK  4 active torsions:
REMARK  status: ('A' for Active; 'I' for Inactive)
REMARK    1  A    between atoms: C2_2  and  C3_3 
REMARK    2  A    between atoms: C14_14  and  C16_16 
REMARK    3  A    between atoms: C17_17  and  C18_18 
REMARK    4  A    between atoms: C18_18  and  C19_20 
ROOT
HETATM    1  C3  UNL     1      33.082   0.574  32.229  1.00  0.00     0.007 C 
HETATM    2  C4  UNL     1      34.166  -0.255  32.859  1.00  0.00     0.025 C 
HETATM    3  C5  UNL     1      32.922   1.927  32.835  1.00  0.00     0.019 C 
HETATM    4  C6  UNL     1      31.449   2.312  32.699  1.00  0.00     0.008 C 
HETATM    5  C7  UNL     1      30.674   1.539  33.744  1.00  0.00     0.011 C 
HETATM    6  C8  UNL     1      30.787   0.083  33.398  1.00  0.00    -0.004 C 
HETATM    7  C9  UNL     1      31.323  -0.709  34.602  1.00  0.00     0.021 C 
HETATM    8  C10 UNL     1      29.496  -0.557  33.013  1.00  0.00     0.015 C 
HETATM    9  C11 UNL     1      28.716   0.355  32.135  1.00  0.00     0.006 C 
HETATM   10  C12 UNL     1      28.306   1.578  32.895  1.00  0.00    -0.006 C 
HETATM   11  C13 UNL     1      26.937   1.305  33.500  1.00  0.00     0.011 C 
HETATM   12  C14 UNL     1      29.273   2.020  33.943  1.00  0.00    -0.018 C 
HETATM   13  C15 UNL     1      28.815   1.596  35.344  1.00  0.00     0.020 C 
HETATM   14  C20 UNL     1      31.779  -0.147  32.304  1.00  0.00     0.008 C 
HETATM   15  S1  UNL     1      31.537  -1.094  31.230  1.00  0.00    -0.088 SA
ENDROOT
BRANCH  12  16
HETATM   16  C16 UNL     1      29.303   3.502  33.973  1.00  0.00    -0.013 C 
HETATM   17  C17 UNL     1      28.980   4.296  32.976  1.00  0.00     0.048 C 
BRANCH  17  18
HETATM   18  C18 UNL     1      29.059   5.741  33.155  1.00  0.00     0.162 C 
HETATM   19  O1  UNL     1      28.007   6.393  33.361  1.00  0.00    -0.292 OA
BRANCH  18  20
HETATM   20  C19 UNL     1      30.343   6.479  33.105  1.00  0.00     0.197 C 
HETATM   21 CL1  UNL     1      31.541   5.647  32.099  1.00  0.00    -0.122 Cl
ENDBRANCH  18  20
ENDBRANCH  17  18
ENDBRANCH  12  16
BRANCH   1  22
HETATM   22  C2  UNL     1      33.476   0.781  30.787  1.00  0.00    -0.022 C 
HETATM   23  C1  UNL     1      34.736   0.878  30.427  1.00  0.00     0.008 C 
ENDBRANCH   1  22
TORSDOF 4
ENDMDL
