MODEL 1
REMARK VINA RESULT: -9.078023296      0.000      0.000
REMARK  3 active torsions:
REMARK  status: ('A' for Active; 'I' for Inactive)
REMARK    1  A    between atoms: O1_2  and  C2_3 
REMARK    2  A    between atoms: C2_3  and  C3_4 
REMARK    3  A    between atoms: C3_4  and  N1_5 
ROOT
HETATM    1  N1  UNL     1      32.658  -2.133  32.404  1.00  0.00    -0.391 N 
HETATM    2  C4  UNL     1      31.570  -2.135  31.500  1.00  0.00     0.122 C 
HETATM    3  C5  UNL     1      30.654  -0.995  31.820  1.00  0.00     0.029 C 
HETATM    4  C6  UNL     1      31.313   0.345  31.683  1.00  0.00    -0.035 C 
HETATM    5  C7  UNL     1      31.621   0.589  30.232  1.00  0.00     0.010 C 
HETATM    6  C8  UNL     1      30.423   0.587  29.342  1.00  0.00     0.001 C 
HETATM    7  C9  UNL     1      30.272   1.916  28.588  1.00  0.00     0.000 C 
HETATM    8  C10 UNL     1      29.222   2.796  29.282  1.00  0.00     0.001 C 
HETATM    9  C11 UNL     1      29.832   3.886  30.064  1.00  0.00     0.016 C 
HETATM   10  C12 UNL     1      29.754   3.731  31.565  1.00  0.00     0.008 C 
HETATM   11  C13 UNL     1      30.142   5.083  32.096  1.00  0.00    -0.012 C 
HETATM   12  C14 UNL     1      29.559   5.683  33.108  1.00  0.00    -0.087 C 
HETATM   13  C15 UNL     1      30.027   7.046  33.564  1.00  0.00     0.043 C 
HETATM   14  C16 UNL     1      28.422   5.092  33.866  1.00  0.00     0.036 C 
HETATM   15  C17 UNL     1      28.385   3.610  33.579  1.00  0.00     0.042 C 
HETATM   16  C18 UNL     1      28.367   3.476  32.055  1.00  0.00     0.182 C 
HETATM   17  F1  UNL     1      27.567   4.520  31.602  1.00  0.00    -0.248 F 
HETATM   18  C19 UNL     1      30.777   2.765  32.098  1.00  0.00     0.017 C 
HETATM   19  C20 UNL     1      30.325   1.366  32.239  1.00  0.00     0.011 C 
HETATM   20  C21 UNL     1      32.593   0.327  32.458  1.00  0.00     0.054 C 
HETATM   21  C22 UNL     1      32.830  -0.977  33.189  1.00  0.00     0.059 C 
ENDROOT
BRANCH   1  22
HETATM   22  C3  UNL     1      33.826  -2.813  31.975  1.00  0.00     0.148 C 
BRANCH  22  23
HETATM   23  C2  UNL     1      34.627  -2.156  30.926  1.00  0.00     0.186 C 
BRANCH  23  24
HETATM   24  O1  UNL     1      35.900  -1.879  31.361  1.00  0.00    -0.394 OA
HETATM   25  C1  UNL     1      36.083  -0.526  31.580  1.00  0.00     0.201 C 
ENDBRANCH  23  24
ENDBRANCH  22  23
ENDBRANCH   1  22
TORSDOF 3
ENDMDL
MODEL 2
REMARK VINA RESULT: -8.731920036      1.526      2.036
REMARK  3 active torsions:
REMARK  status: ('A' for Active; 'I' for Inactive)
REMARK    1  A    between atoms: O1_2  and  C2_3 
REMARK    2  A    between atoms: C2_3  and  C3_4 
REMARK    3  A    between atoms: C3_4  and  N1_5 
ROOT
HETATM    1  N1  UNL     1      34.555  -1.311  31.770  1.00  0.00    -0.391 N 
HETATM    2  C4  UNL     1      33.751  -1.628  30.651  1.00  0.00     0.122 C 
HETATM    3  C5  UNL     1      32.364  -1.111  30.869  1.00  0.00     0.029 C 
HETATM    4  C6  UNL     1      32.309   0.380  31.018  1.00  0.00    -0.035 C 
HETATM    5  C7  UNL     1      32.674   1.012  29.705  1.00  0.00     0.010 C 
HETATM    6  C8  UNL     1      31.774   0.643  28.574  1.00  0.00     0.001 C 
HETATM    7  C9  UNL     1      31.117   1.878  27.942  1.00  0.00     0.000 C 
HETATM    8  C10 UNL     1      29.683   2.036  28.467  1.00  0.00     0.001 C 
HETATM    9  C11 UNL     1      29.568   3.109  29.471  1.00  0.00     0.016 C 
HETATM   10  C12 UNL     1      29.350   2.647  30.893  1.00  0.00     0.008 C 
HETATM   11  C13 UNL     1      28.956   3.897  31.630  1.00  0.00    -0.012 C 
HETATM   12  C14 UNL     1      28.011   3.960  32.540  1.00  0.00    -0.087 C 
HETATM   13  C15 UNL     1      27.691   5.270  33.224  1.00  0.00     0.043 C 
HETATM   14  C16 UNL     1      27.200   2.784  32.962  1.00  0.00     0.036 C 
HETATM   15  C17 UNL     1      27.925   1.533  32.528  1.00  0.00     0.042 C 
HETATM   16  C18 UNL     1      28.202   1.704  31.032  1.00  0.00     0.182 C 
HETATM   17  F1  UNL     1      27.076   2.339  30.518  1.00  0.00    -0.248 F 
HETATM   18  C19 UNL     1      30.619   2.164  31.542  1.00  0.00     0.017 C 
HETATM   19  C20 UNL     1      30.881   0.715  31.438  1.00  0.00     0.011 C 
HETATM   20  C21 UNL     1      33.307   0.792  32.054  1.00  0.00     0.054 C 
HETATM   21  C22 UNL     1      34.030  -0.378  32.686  1.00  0.00     0.059 C 
ENDROOT
BRANCH   1  22
HETATM   22  C3  UNL     1      35.955  -1.293  31.548  1.00  0.00     0.148 C 
BRANCH  22  23
HETATM   23  C2  UNL     1      36.609   0.029  31.553  1.00  0.00     0.186 C 
BRANCH  23  24
HETATM   24  O1  UNL     1      36.405   0.699  30.371  1.00  0.00    -0.394 OA
HETATM   25  C1  UNL     1      37.102   1.893  30.333  1.00  0.00     0.201 C 
ENDBRANCH  23  24
ENDBRANCH  22  23
ENDBRANCH   1  22
TORSDOF 3
ENDMDL
MODEL 3
REMARK VINA RESULT: -7.869677153      3.539      7.309
REMARK  3 active torsions:
REMARK  status: ('A' for Active; 'I' for Inactive)
REMARK    1  A    between atoms: O1_2  and  C2_3 
REMARK    2  A    between atoms: C2_3  and  C3_4 
REMARK    3  A    between atoms: C3_4  and  N1_5 
ROOT
HETATM    1  N1  UNL     1      27.801   3.487  31.836  1.00  0.00    -0.391 N 
HETATM    2  C4  UNL     1      27.507   2.326  32.590  1.00  0.00     0.122 C 
HETATM    3  C5  UNL     1      28.400   1.207  32.152  1.00  0.00     0.029 C 
HETATM    4  C6  UNL     1      29.855   1.495  32.372  1.00  0.00    -0.035 C 
HETATM    5  C7  UNL     1      30.121   1.547  33.850  1.00  0.00     0.010 C 
HETATM    6  C8  UNL     1      29.801   0.283  34.576  1.00  0.00     0.001 C 
HETATM    7  C9  UNL     1      31.029  -0.284  35.302  1.00  0.00     0.000 C 
HETATM    8  C10 UNL     1      31.649  -1.420  34.476  1.00  0.00     0.001 C 
HETATM    9  C11 UNL     1      32.878  -1.001  33.779  1.00  0.00     0.016 C 
HETATM   10  C12 UNL     1      32.755  -0.848  32.280  1.00  0.00     0.008 C 
HETATM   11  C13 UNL     1      34.176  -0.738  31.804  1.00  0.00    -0.012 C 
HETATM   12  C14 UNL     1      34.648  -1.317  30.723  1.00  0.00    -0.087 C 
HETATM   13  C15 UNL     1      36.097  -1.143  30.331  1.00  0.00     0.043 C 
HETATM   14  C16 UNL     1      33.822  -2.168  29.823  1.00  0.00     0.036 C 
HETATM   15  C17 UNL     1      32.367  -1.877  30.105  1.00  0.00     0.042 C 
HETATM   16  C18 UNL     1      32.186  -2.056  31.614  1.00  0.00     0.182 C 
HETATM   17  F1  UNL     1      32.990  -3.138  31.957  1.00  0.00    -0.248 F 
HETATM   18  C19 UNL     1      32.083   0.440  31.888  1.00  0.00     0.017 C 
HETATM   19  C20 UNL     1      30.622   0.366  31.690  1.00  0.00     0.011 C 
HETATM   20  C21 UNL     1      30.172   2.829  31.771  1.00  0.00     0.054 C 
HETATM   21  C22 UNL     1      28.988   3.469  31.079  1.00  0.00     0.059 C 
ENDROOT
BRANCH   1  22
HETATM   22  C3  UNL     1      27.412   4.721  32.415  1.00  0.00     0.148 C 
BRANCH  22  23
HETATM   23  C2  UNL     1      28.164   5.160  33.605  1.00  0.00     0.186 C 
BRANCH  23  24
HETATM   24  O1  UNL     1      28.718   6.404  33.423  1.00  0.00    -0.394 OA
HETATM   25  C1  UNL     1      30.049   6.322  33.054  1.00  0.00     0.201 C 
ENDBRANCH  23  24
ENDBRANCH  22  23
ENDBRANCH   1  22
TORSDOF 3
ENDMDL
MODEL 4
REMARK VINA RESULT: -7.811701646      3.481      6.678
REMARK  3 active torsions:
REMARK  status: ('A' for Active; 'I' for Inactive)
REMARK    1  A    between atoms: O1_2  and  C2_3 
REMARK    2  A    between atoms: C2_3  and  C3_4 
REMARK    3  A    between atoms: C3_4  and  N1_5 
ROOT
HETATM    1  N1  UNL     1      27.998   1.579  33.829  1.00  0.00    -0.391 N 
HETATM    2  C4  UNL     1      28.383   2.519  32.845  1.00  0.00     0.122 C 
HETATM    3  C5  UNL     1      29.858   2.423  32.611  1.00  0.00     0.029 C 
HETATM    4  C6  UNL     1      30.286   1.080  32.101  1.00  0.00    -0.035 C 
HETATM    5  C7  UNL     1      29.738   0.890  30.714  1.00  0.00     0.010 C 
HETATM    6  C8  UNL     1      30.198   1.910  29.728  1.00  0.00     0.001 C 
HETATM    7  C9  UNL     1      30.926   1.266  28.539  1.00  0.00     0.000 C 
HETATM    8  C10 UNL     1      32.445   1.388  28.726  1.00  0.00     0.001 C 
HETATM    9  C11 UNL     1      33.062   0.117  29.147  1.00  0.00     0.016 C 
HETATM   10  C12 UNL     1      33.539   0.071  30.580  1.00  0.00     0.008 C 
HETATM   11  C13 UNL     1      34.387  -1.169  30.646  1.00  0.00    -0.012 C 
HETATM   12  C14 UNL     1      35.528  -1.260  31.290  1.00  0.00    -0.087 C 
HETATM   13  C15 UNL     1      36.306  -2.556  31.294  1.00  0.00     0.043 C 
HETATM   14  C16 UNL     1      36.134  -0.128  32.045  1.00  0.00     0.036 C 
HETATM   15  C17 UNL     1      35.057   0.899  32.299  1.00  0.00     0.042 C 
HETATM   16  C18 UNL     1      34.439   1.208  30.934  1.00  0.00     0.182 C 
HETATM   17  F1  UNL     1      35.501   1.193  30.036  1.00  0.00    -0.248 F 
HETATM   18  C19 UNL     1      32.413  -0.143  31.555  1.00  0.00     0.017 C 
HETATM   19  C20 UNL     1      31.812   1.082  32.119  1.00  0.00     0.011 C 
HETATM   20  C21 UNL     1      29.719   0.026  32.999  1.00  0.00     0.054 C 
HETATM   21  C22 UNL     1      28.945   0.593  34.169  1.00  0.00     0.059 C 
ENDROOT
BRANCH   1  22
HETATM   22  C3  UNL     1      26.631   1.203  33.832  1.00  0.00     0.148 C 
BRANCH  22  23
HETATM   23  C2  UNL     1      25.870   1.464  32.597  1.00  0.00     0.186 C 
BRANCH  23  24
HETATM   24  O1  UNL     1      26.085   0.487  31.654  1.00  0.00    -0.394 OA
HETATM   25  C1  UNL     1      26.169   1.017  30.380  1.00  0.00     0.201 C 
ENDBRANCH  23  24
ENDBRANCH  22  23
ENDBRANCH   1  22
TORSDOF 3
ENDMDL
MODEL 5
REMARK VINA RESULT: -7.671302636      1.894      3.372
REMARK  3 active torsions:
REMARK  status: ('A' for Active; 'I' for Inactive)
REMARK    1  A    between atoms: O1_2  and  C2_3 
REMARK    2  A    between atoms: C2_3  and  C3_4 
REMARK    3  A    between atoms: C3_4  and  N1_5 
ROOT
HETATM    1  N1  UNL     1      33.815  -1.954  30.353  1.00  0.00    -0.391 N 
HETATM    2  C4  UNL     1      33.933  -0.590  29.998  1.00  0.00     0.122 C 
HETATM    3  C5  UNL     1      32.570   0.016  29.879  1.00  0.00     0.029 C 
HETATM    4  C6  UNL     1      31.797  -0.019  31.164  1.00  0.00    -0.035 C 
HETATM    5  C7  UNL     1      32.460   0.896  32.154  1.00  0.00     0.010 C 
HETATM    6  C8  UNL     1      32.536   2.321  31.717  1.00  0.00     0.001 C 
HETATM    7  C9  UNL     1      31.830   3.258  32.707  1.00  0.00     0.000 C 
HETATM    8  C10 UNL     1      30.433   3.620  32.182  1.00  0.00     0.001 C 
HETATM    9  C11 UNL     1      29.363   2.890  32.885  1.00  0.00     0.016 C 
HETATM   10  C12 UNL     1      28.678   1.809  32.082  1.00  0.00     0.008 C 
HETATM   11  C13 UNL     1      27.461   1.463  32.893  1.00  0.00    -0.012 C 
HETATM   12  C14 UNL     1      26.270   1.229  32.390  1.00  0.00    -0.087 C 
HETATM   13  C15 UNL     1      25.109   0.889  33.294  1.00  0.00     0.043 C 
HETATM   14  C16 UNL     1      25.973   1.281  30.931  1.00  0.00     0.036 C 
HETATM   15  C17 UNL     1      27.281   1.193  30.181  1.00  0.00     0.042 C 
HETATM   16  C18 UNL     1      28.174   2.291  30.762  1.00  0.00     0.182 C 
HETATM   17  F1  UNL     1      27.326   3.366  31.008  1.00  0.00    -0.248 F 
HETATM   18  C19 UNL     1      29.496   0.548  32.000  1.00  0.00     0.017 C 
HETATM   19  C20 UNL     1      30.380   0.433  30.822  1.00  0.00     0.011 C 
HETATM   20  C21 UNL     1      31.823  -1.418  31.697  1.00  0.00     0.054 C 
HETATM   21  C22 UNL     1      32.549  -2.389  30.791  1.00  0.00     0.059 C 
ENDROOT
BRANCH   1  22
HETATM   22  C3  UNL     1      34.954  -2.542  30.958  1.00  0.00     0.148 C 
BRANCH  22  23
HETATM   23  C2  UNL     1      36.215  -1.781  30.876  1.00  0.00     0.186 C 
BRANCH  23  24
HETATM   24  O1  UNL     1      36.632  -1.359  32.115  1.00  0.00    -0.394 OA
HETATM   25  C1  UNL     1      35.999  -0.190  32.497  1.00  0.00     0.201 C 
ENDBRANCH  23  24
ENDBRANCH  22  23
ENDBRANCH   1  22
TORSDOF 3
ENDMDL
