MODEL 1
REMARK VINA RESULT: -6.526522023      0.000      0.000
REMARK  5 active torsions:
REMARK  status: ('A' for Active; 'I' for Inactive)
REMARK    1  A    between atoms: N1_2  and  C2_3 
REMARK       I    between atoms: N1_2  and  C11_16 
REMARK    2  A    between atoms: C2_3  and  C3_4 
REMARK    3  A    between atoms: C3_4  and  O1_5 
REMARK    4  A    between atoms: C5_8  and  S1_9 
REMARK    5  A    between atoms: S1_9  and  C6_10 
ROOT
HETATM    1  C3  UNL     1      13.979   8.248  81.209  1.00  0.00     0.179 C 
HETATM    2  C4  UNL     1      13.464   9.391  81.984  1.00  0.00     0.087 C 
HETATM    3  C5  UNL     1      13.661   8.935  83.397  1.00  0.00     0.077 C 
HETATM    4  C10 UNL     1      13.653   7.433  83.265  1.00  0.00     0.187 C 
HETATM    5  O2  UNL     1      14.236   7.155  82.055  1.00  0.00    -0.352 OA
ENDROOT
BRANCH   1   6
HETATM    6  C2  UNL     1      15.306   8.652  80.550  1.00  0.00     0.196 C 
BRANCH   6   7
HETATM    7  N1  UNL     1      15.202   9.984  80.007  1.00  0.00    -0.326 N 
HETATM    8  C1  UNL     1      14.444  10.281  78.816  1.00  0.00     0.156 C 
HETATM    9  C11 UNL     1      15.895  11.028  80.676  1.00  0.00     0.285 C 
HETATM   10  O3  UNL     1      16.554  10.748  81.713  1.00  0.00    -0.630 OA
HETATM   11  O4  UNL     1      15.878  12.332  80.241  1.00  0.00    -0.630 OA
ENDBRANCH   6   7
ENDBRANCH   1   6
BRANCH   1  12
HETATM   12  O1  UNL     1      13.103   7.824  80.227  1.00  0.00    -0.364 OA
ATOM     13  H1  UNL     1      12.402   8.461  80.146  1.00  0.00     0.213 HD
ENDBRANCH   1  12
BRANCH   3  14
HETATM   14  S1  UNL     1      12.488   9.587  84.574  1.00  0.00    -0.153 SA
BRANCH  14  15
HETATM   15  C6  UNL     1      13.396  10.845  85.560  1.00  0.00    -0.003 C 
HETATM   16  C7  UNL     1      14.361   9.998  86.415  1.00  0.00     0.026 C 
HETATM   17  C8  UNL     1      14.181  11.696  84.591  1.00  0.00     0.026 C 
HETATM   18  C9  UNL     1      12.496  11.639  86.443  1.00  0.00     0.026 C 
ENDBRANCH  14  15
ENDBRANCH   3  14
TORSDOF 5
ENDMDL
MODEL 2
REMARK VINA RESULT: -6.473297617      1.181      1.857
REMARK  5 active torsions:
REMARK  status: ('A' for Active; 'I' for Inactive)
REMARK    1  A    between atoms: N1_2  and  C2_3 
REMARK       I    between atoms: N1_2  and  C11_16 
REMARK    2  A    between atoms: C2_3  and  C3_4 
REMARK    3  A    between atoms: C3_4  and  O1_5 
REMARK    4  A    between atoms: C5_8  and  S1_9 
REMARK    5  A    between atoms: S1_9  and  C6_10 
ROOT
HETATM    1  C3  UNL     1      13.615   8.651  81.422  1.00  0.00     0.179 C 
HETATM    2  C4  UNL     1      13.483   9.432  82.665  1.00  0.00     0.087 C 
HETATM    3  C5  UNL     1      13.405   8.362  83.709  1.00  0.00     0.077 C 
HETATM    4  C10 UNL     1      12.878   7.181  82.935  1.00  0.00     0.187 C 
HETATM    5  O2  UNL     1      13.409   7.284  81.675  1.00  0.00    -0.352 OA
ENDROOT
BRANCH   1   6
HETATM    6  C2  UNL     1      15.042   8.817  80.880  1.00  0.00     0.196 C 
BRANCH   6   7
HETATM    7  N1  UNL     1      15.142  10.038  80.118  1.00  0.00    -0.326 N 
HETATM    8  C1  UNL     1      14.505  10.208  78.835  1.00  0.00     0.156 C 
HETATM    9  C11 UNL     1      15.917  11.097  80.662  1.00  0.00     0.285 C 
HETATM   10  O3  UNL     1      16.469  10.928  81.783  1.00  0.00    -0.630 OA
HETATM   11  O4  UNL     1      16.093  12.298  80.018  1.00  0.00    -0.630 OA
ENDBRANCH   6   7
ENDBRANCH   1   6
BRANCH   1  12
HETATM   12  O1  UNL     1      12.718   9.038  80.444  1.00  0.00    -0.364 OA
ATOM     13  H1  UNL     1      11.849   9.087  80.827  1.00  0.00     0.213 HD
ENDBRANCH   1  12
BRANCH   3  14
HETATM   14  S1  UNL     1      12.456   8.787  85.161  1.00  0.00    -0.153 SA
BRANCH  14  15
HETATM   15  C6  UNL     1      13.572   8.522  86.597  1.00  0.00    -0.003 C 
HETATM   16  C7  UNL     1      14.330   9.861  86.711  1.00  0.00     0.026 C 
HETATM   17  C8  UNL     1      12.701   8.320  87.814  1.00  0.00     0.026 C 
HETATM   18  C9  UNL     1      14.537   7.408  86.375  1.00  0.00     0.026 C 
ENDBRANCH  14  15
ENDBRANCH   3  14
TORSDOF 5
ENDMDL
MODEL 3
REMARK VINA RESULT: -6.438615240      1.210      1.709
REMARK  5 active torsions:
REMARK  status: ('A' for Active; 'I' for Inactive)
REMARK    1  A    between atoms: N1_2  and  C2_3 
REMARK       I    between atoms: N1_2  and  C11_16 
REMARK    2  A    between atoms: C2_3  and  C3_4 
REMARK    3  A    between atoms: C3_4  and  O1_5 
REMARK    4  A    between atoms: C5_8  and  S1_9 
REMARK    5  A    between atoms: S1_9  and  C6_10 
ROOT
HETATM    1  C3  UNL     1      13.650   8.603  81.434  1.00  0.00     0.179 C 
HETATM    2  C4  UNL     1      13.489   9.316  82.714  1.00  0.00     0.087 C 
HETATM    3  C5  UNL     1      13.427   8.191  83.700  1.00  0.00     0.077 C 
HETATM    4  C10 UNL     1      12.933   7.040  82.862  1.00  0.00     0.187 C 
HETATM    5  O2  UNL     1      13.472   7.221  81.614  1.00  0.00    -0.352 OA
ENDROOT
BRANCH   1   6
HETATM    6  C2  UNL     1      15.077   8.829  80.915  1.00  0.00     0.196 C 
BRANCH   6   7
HETATM    7  N1  UNL     1      15.144  10.065  80.175  1.00  0.00    -0.326 N 
HETATM    8  C1  UNL     1      14.584  10.212  78.853  1.00  0.00     0.156 C 
HETATM    9  C11 UNL     1      15.806  11.166  80.781  1.00  0.00     0.285 C 
HETATM   10  O3  UNL     1      16.293  11.018  81.935  1.00  0.00    -0.630 OA
HETATM   11  O4  UNL     1      15.942  12.386  80.164  1.00  0.00    -0.630 OA
ENDBRANCH   6   7
ENDBRANCH   1   6
BRANCH   1  12
HETATM   12  O1  UNL     1      12.752   9.021  80.468  1.00  0.00    -0.364 OA
ATOM     13  H1  UNL     1      12.029   8.405  80.435  1.00  0.00     0.213 HD
ENDBRANCH   1  12
BRANCH   3  14
HETATM   14  S1  UNL     1      12.457   8.519  85.163  1.00  0.00    -0.153 SA
BRANCH  14  15
HETATM   15  C6  UNL     1      13.638   8.524  86.571  1.00  0.00    -0.003 C 
HETATM   16  C7  UNL     1      12.736   8.266  87.795  1.00  0.00     0.026 C 
HETATM   17  C8  UNL     1      14.581   7.361  86.373  1.00  0.00     0.026 C 
HETATM   18  C9  UNL     1      14.341   9.830  86.724  1.00  0.00     0.026 C 
ENDBRANCH  14  15
ENDBRANCH   3  14
TORSDOF 5
ENDMDL
MODEL 4
REMARK VINA RESULT: -6.259422451      0.665      1.292
REMARK  5 active torsions:
REMARK  status: ('A' for Active; 'I' for Inactive)
REMARK    1  A    between atoms: N1_2  and  C2_3 
REMARK       I    between atoms: N1_2  and  C11_16 
REMARK    2  A    between atoms: C2_3  and  C3_4 
REMARK    3  A    between atoms: C3_4  and  O1_5 
REMARK    4  A    between atoms: C5_8  and  S1_9 
REMARK    5  A    between atoms: S1_9  and  C6_10 
ROOT
HETATM    1  C3  UNL     1      14.390   8.015  81.537  1.00  0.00     0.179 C 
HETATM    2  C4  UNL     1      13.591   9.119  82.099  1.00  0.00     0.087 C 
HETATM    3  C5  UNL     1      13.650   8.840  83.568  1.00  0.00     0.077 C 
HETATM    4  C10 UNL     1      13.902   7.355  83.616  1.00  0.00     0.187 C 
HETATM    5  O2  UNL     1      14.692   7.069  82.532  1.00  0.00    -0.352 OA
ENDROOT
BRANCH   1   6
HETATM    6  C2  UNL     1      15.717   8.580  81.010  1.00  0.00     0.196 C 
BRANCH   6   7
HETATM    7  N1  UNL     1      15.477   9.791  80.265  1.00  0.00    -0.326 N 
HETATM    8  C1  UNL     1      14.822   9.796  78.979  1.00  0.00     0.156 C 
HETATM    9  C11 UNL     1      15.925  11.016  80.828  1.00  0.00     0.285 C 
HETATM   10  O3  UNL     1      16.499  10.991  81.950  1.00  0.00    -0.630 OA
HETATM   11  O4  UNL     1      15.763  12.228  80.201  1.00  0.00    -0.630 OA
ENDBRANCH   6   7
ENDBRANCH   1   6
BRANCH   1  12
HETATM   12  O1  UNL     1      13.746   7.353  80.508  1.00  0.00    -0.364 OA
ATOM     13  H1  UNL     1      12.812   7.513  80.577  1.00  0.00     0.213 HD
ENDBRANCH   1  12
BRANCH   3  14
HETATM   14  S1  UNL     1      12.227   9.386  84.500  1.00  0.00    -0.153 SA
BRANCH  14  15
HETATM   15  C6  UNL     1      12.747  10.913  85.381  1.00  0.00    -0.003 C 
HETATM   16  C7  UNL     1      11.463  11.768  85.400  1.00  0.00     0.026 C 
HETATM   17  C8  UNL     1      13.121  10.517  86.789  1.00  0.00     0.026 C 
HETATM   18  C9  UNL     1      13.834  11.643  84.668  1.00  0.00     0.026 C 
ENDBRANCH  14  15
ENDBRANCH   3  14
TORSDOF 5
ENDMDL
MODEL 5
REMARK VINA RESULT: -6.226125406      2.668      4.345
REMARK  5 active torsions:
REMARK  status: ('A' for Active; 'I' for Inactive)
REMARK    1  A    between atoms: N1_2  and  C2_3 
REMARK       I    between atoms: N1_2  and  C11_16 
REMARK    2  A    between atoms: C2_3  and  C3_4 
REMARK    3  A    between atoms: C3_4  and  O1_5 
REMARK    4  A    between atoms: C5_8  and  S1_9 
REMARK    5  A    between atoms: S1_9  and  C6_10 
ROOT
HETATM    1  C3  UNL     1      15.762   9.678  81.192  1.00  0.00     0.179 C 
HETATM    2  C4  UNL     1      15.856   8.270  81.618  1.00  0.00     0.087 C 
HETATM    3  C5  UNL     1      14.416   7.876  81.739  1.00  0.00     0.077 C 
HETATM    4  C10 UNL     1      13.731   9.195  81.989  1.00  0.00     0.187 C 
HETATM    5  O2  UNL     1      14.434  10.130  81.274  1.00  0.00    -0.352 OA
ENDROOT
BRANCH   1   6
HETATM    6  C2  UNL     1      16.203   9.783  79.725  1.00  0.00     0.196 C 
BRANCH   6   7
HETATM    7  N1  UNL     1      15.151  10.370  78.933  1.00  0.00    -0.326 N 
HETATM    8  C1  UNL     1      14.159   9.579  78.248  1.00  0.00     0.156 C 
HETATM    9  C11 UNL     1      15.117  11.786  78.822  1.00  0.00     0.285 C 
HETATM   10  O3  UNL     1      15.994  12.461  79.425  1.00  0.00    -0.630 OA
HETATM   11  O4  UNL     1      14.168  12.453  78.084  1.00  0.00    -0.630 OA
ENDBRANCH   6   7
ENDBRANCH   1   6
BRANCH   1  12
HETATM   12  O1  UNL     1      16.544  10.524  81.955  1.00  0.00    -0.364 OA
ATOM     13  H1  UNL     1      17.195  10.931  81.394  1.00  0.00     0.213 HD
ENDBRANCH   1  12
BRANCH   3  14
HETATM   14  S1  UNL     1      14.075   6.615  82.957  1.00  0.00    -0.153 SA
BRANCH  14  15
HETATM   15  C6  UNL     1      13.530   5.132  82.020  1.00  0.00    -0.003 C 
HETATM   16  C7  UNL     1      13.456   5.637  80.564  1.00  0.00     0.026 C 
HETATM   17  C8  UNL     1      14.617   4.092  82.148  1.00  0.00     0.026 C 
HETATM   18  C9  UNL     1      12.192   4.639  82.456  1.00  0.00     0.026 C 
ENDBRANCH  14  15
ENDBRANCH   3  14
TORSDOF 5
ENDMDL
