MODEL 1
REMARK VINA RESULT: -7.506766246      0.000      0.000
REMARK  3 active torsions:
REMARK  status: ('A' for Active; 'I' for Inactive)
REMARK    1  A    between atoms: C2_2  and  C3_3 
REMARK    2  A    between atoms: N1_7  and  C6_9 
REMARK    3  A    between atoms: C6_9  and  C7_10 
ROOT
HETATM    1  C7  UNL     1      15.737  10.359  78.267  1.00  0.00     0.143 C 
HETATM    2  C8  UNL     1      15.835  11.518  79.125  1.00  0.00     0.060 C 
HETATM    3  N2  UNL     1      15.923  12.448  79.818  1.00  0.00    -0.197 NA
ENDROOT
BRANCH   1   4
HETATM    4  C6  UNL     1      14.555   9.480  78.623  1.00  0.00     0.137 C 
BRANCH   4   5
HETATM    5  N1  UNL     1      13.936   9.915  79.860  1.00  0.00    -0.349 N 
HETATM    6  C5  UNL     1      13.802   9.061  80.819  1.00  0.00     0.270 A 
HETATM    7  O1  UNL     1      14.131   7.811  80.905  1.00  0.00    -0.284 OA
HETATM    8  O2  UNL     1      13.245   9.389  81.981  1.00  0.00    -0.275 OA
HETATM    9  C4  UNL     1      13.806   7.317  82.082  1.00  0.00     0.180 A 
HETATM   10  C3  UNL     1      13.230   8.347  82.778  1.00  0.00     0.089 A 
ATOM     11  H1  UNL     1      13.613  10.876  79.971  1.00  0.00     0.163 HD
BRANCH  10  12
HETATM   12  C2  UNL     1      12.674   8.345  84.177  1.00  0.00     0.022 C 
HETATM   13  C1  UNL     1      11.434   7.513  84.166  1.00  0.00     0.024 C 
HETATM   14  C9  UNL     1      13.716   7.893  85.148  1.00  0.00     0.040 C 
HETATM   15  C10 UNL     1      13.361   8.355  86.548  1.00  0.00     0.096 C 
HETATM   16  C11 UNL     1      14.040   9.681  86.883  1.00  0.00     0.038 C 
HETATM   17  N4  UNL     1      11.951   8.768  86.603  1.00  0.00    -0.160 NA
HETATM   18  C12 UNL     1      12.970  10.719  86.659  1.00  0.00     0.111 C 
HETATM   19  N3  UNL     1      11.993   9.975  85.887  1.00  0.00    -0.233 NA
HETATM   20  C13 UNL     1      12.379   9.812  84.520  1.00  0.00     0.125 C 
ENDBRANCH  10  12
ENDBRANCH   4   5
ENDBRANCH   1   4
TORSDOF 3
ENDMDL
MODEL 2
REMARK VINA RESULT: -7.261873486      1.897      6.608
REMARK  3 active torsions:
REMARK  status: ('A' for Active; 'I' for Inactive)
REMARK    1  A    between atoms: C2_2  and  C3_3 
REMARK    2  A    between atoms: N1_7  and  C6_9 
REMARK    3  A    between atoms: C6_9  and  C7_10 
ROOT
HETATM    1  C7  UNL     1      12.835   9.337  87.335  1.00  0.00     0.143 C 
HETATM    2  C8  UNL     1      13.992   8.559  86.955  1.00  0.00     0.060 C 
HETATM    3  N2  UNL     1      14.926   7.932  86.656  1.00  0.00    -0.197 NA
ENDROOT
BRANCH   1   4
HETATM    4  C6  UNL     1      12.787  10.677  86.629  1.00  0.00     0.137 C 
BRANCH   4   5
HETATM    5  N1  UNL     1      13.855  10.792  85.655  1.00  0.00    -0.349 N 
HETATM    6  C5  UNL     1      13.665  10.319  84.469  1.00  0.00     0.270 A 
HETATM    7  O1  UNL     1      12.645   9.722  83.938  1.00  0.00    -0.284 OA
HETATM    8  O2  UNL     1      14.599  10.389  83.526  1.00  0.00    -0.275 OA
HETATM    9  C4  UNL     1      12.885   9.403  82.683  1.00  0.00     0.180 A 
HETATM   10  C3  UNL     1      14.157   9.839  82.419  1.00  0.00     0.089 A 
ATOM     11  H1  UNL     1      14.739  11.238  85.901  1.00  0.00     0.163 HD
BRANCH  10  12
HETATM   12  C2  UNL     1      14.943   9.736  81.139  1.00  0.00     0.022 C 
HETATM   13  C1  UNL     1      15.769   8.495  81.218  1.00  0.00     0.024 C 
HETATM   14  C9  UNL     1      14.025   9.798  79.962  1.00  0.00     0.040 C 
HETATM   15  C10 UNL     1      14.795  10.199  78.718  1.00  0.00     0.096 C 
HETATM   16  C11 UNL     1      14.723  11.706  78.484  1.00  0.00     0.038 C 
HETATM   17  N4  UNL     1      16.238  10.042  78.946  1.00  0.00    -0.160 NA
HETATM   18  C12 UNL     1      16.028  12.233  79.024  1.00  0.00     0.111 C 
HETATM   19  N3  UNL     1      16.495  11.112  79.819  1.00  0.00    -0.233 NA
HETATM   20  C13 UNL     1      15.811  11.000  81.069  1.00  0.00     0.125 C 
ENDBRANCH  10  12
ENDBRANCH   4   5
ENDBRANCH   1   4
TORSDOF 3
ENDMDL
MODEL 3
REMARK VINA RESULT: -7.238700665      1.826      6.786
REMARK  3 active torsions:
REMARK  status: ('A' for Active; 'I' for Inactive)
REMARK    1  A    between atoms: C2_2  and  C3_3 
REMARK    2  A    between atoms: N1_7  and  C6_9 
REMARK    3  A    between atoms: C6_9  and  C7_10 
ROOT
HETATM    1  C7  UNL     1      13.079   9.410  87.407  1.00  0.00     0.143 C 
HETATM    2  C8  UNL     1      11.989   8.468  87.284  1.00  0.00     0.060 C 
HETATM    3  N2  UNL     1      11.117   7.705  87.183  1.00  0.00    -0.197 NA
ENDROOT
BRANCH   1   4
HETATM    4  C6  UNL     1      12.827  10.683  86.624  1.00  0.00     0.137 C 
BRANCH   4   5
HETATM    5  N1  UNL     1      13.846  10.883  85.612  1.00  0.00    -0.349 N 
HETATM    6  C5  UNL     1      13.701  10.309  84.465  1.00  0.00     0.270 A 
HETATM    7  O1  UNL     1      12.767   9.538  84.005  1.00  0.00    -0.284 OA
HETATM    8  O2  UNL     1      14.595  10.448  83.491  1.00  0.00    -0.275 OA
HETATM    9  C4  UNL     1      13.024   9.173  82.766  1.00  0.00     0.180 A 
HETATM   10  C3  UNL     1      14.213   9.767  82.436  1.00  0.00     0.089 A 
ATOM     11  H1  UNL     1      14.661  11.467  85.802  1.00  0.00     0.163 HD
BRANCH  10  12
HETATM   12  C2  UNL     1      14.978   9.691  81.141  1.00  0.00     0.022 C 
HETATM   13  C1  UNL     1      15.811   8.453  81.184  1.00  0.00     0.024 C 
HETATM   14  C9  UNL     1      14.041   9.769  79.980  1.00  0.00     0.040 C 
HETATM   15  C10 UNL     1      14.788  10.197  78.732  1.00  0.00     0.096 C 
HETATM   16  C11 UNL     1      14.706  11.707  78.526  1.00  0.00     0.038 C 
HETATM   17  N4  UNL     1      16.236  10.043  78.933  1.00  0.00    -0.160 NA
HETATM   18  C12 UNL     1      16.017  12.231  79.054  1.00  0.00     0.111 C 
HETATM   19  N3  UNL     1      16.502  11.098  79.821  1.00  0.00    -0.233 NA
HETATM   20  C13 UNL     1      15.839  10.960  81.080  1.00  0.00     0.125 C 
ENDBRANCH  10  12
ENDBRANCH   4   5
ENDBRANCH   1   4
TORSDOF 3
ENDMDL
MODEL 4
REMARK VINA RESULT: -7.078492225      1.896      2.987
REMARK  3 active torsions:
REMARK  status: ('A' for Active; 'I' for Inactive)
REMARK    1  A    between atoms: C2_2  and  C3_3 
REMARK    2  A    between atoms: N1_7  and  C6_9 
REMARK    3  A    between atoms: C6_9  and  C7_10 
ROOT
HETATM    1  C7  UNL     1      15.352  11.531  78.877  1.00  0.00     0.143 C 
HETATM    2  C8  UNL     1      14.711  10.282  78.530  1.00  0.00     0.060 C 
HETATM    3  N2  UNL     1      14.188   9.281  78.250  1.00  0.00    -0.197 NA
ENDROOT
BRANCH   1   4
HETATM    4  C6  UNL     1      16.012  11.478  80.241  1.00  0.00     0.137 C 
BRANCH   4   5
HETATM    5  N1  UNL     1      15.319  10.555  81.120  1.00  0.00    -0.349 N 
HETATM    6  C5  UNL     1      14.936  10.974  82.279  1.00  0.00     0.270 A 
HETATM    7  O1  UNL     1      15.052  12.129  82.854  1.00  0.00    -0.284 OA
HETATM    8  O2  UNL     1      14.295  10.184  83.136  1.00  0.00    -0.275 OA
HETATM    9  C4  UNL     1      14.510  12.115  84.054  1.00  0.00     0.180 A 
HETATM   10  C3  UNL     1      14.019  10.849  84.233  1.00  0.00     0.089 A 
ATOM     11  H1  UNL     1      15.138   9.595  80.828  1.00  0.00     0.163 HD
BRANCH  10  12
HETATM   12  C2  UNL     1      13.299  10.275  85.425  1.00  0.00     0.022 C 
HETATM   13  C1  UNL     1      12.619  11.405  86.125  1.00  0.00     0.024 C 
HETATM   14  C9  UNL     1      12.389   9.170  84.997  1.00  0.00     0.040 C 
HETATM   15  C10 UNL     1      12.060   8.277  86.178  1.00  0.00     0.096 C 
HETATM   16  C11 UNL     1      13.005   7.079  86.245  1.00  0.00     0.038 C 
HETATM   17  N4  UNL     1      12.411   8.952  87.435  1.00  0.00    -0.160 NA
HETATM   18  C12 UNL     1      14.028   7.465  87.284  1.00  0.00     0.111 C 
HETATM   19  N3  UNL     1      13.813   8.896  87.394  1.00  0.00    -0.233 NA
HETATM   20  C13 UNL     1      14.378   9.623  86.301  1.00  0.00     0.125 C 
ENDBRANCH  10  12
ENDBRANCH   4   5
ENDBRANCH   1   4
TORSDOF 3
ENDMDL
MODEL 5
REMARK VINA RESULT: -6.622686990      1.141      1.837
REMARK  3 active torsions:
REMARK  status: ('A' for Active; 'I' for Inactive)
REMARK    1  A    between atoms: C2_2  and  C3_3 
REMARK    2  A    between atoms: N1_7  and  C6_9 
REMARK    3  A    between atoms: C6_9  and  C7_10 
ROOT
HETATM    1  C7  UNL     1      15.297  10.283  78.385  1.00  0.00     0.143 C 
HETATM    2  C8  UNL     1      15.743  11.483  79.057  1.00  0.00     0.060 C 
HETATM    3  N2  UNL     1      16.110  12.446  79.596  1.00  0.00    -0.197 NA
ENDROOT
BRANCH   1   4
HETATM    4  C6  UNL     1      14.438   9.411  79.279  1.00  0.00     0.137 C 
BRANCH   4   5
HETATM    5  N1  UNL     1      14.288  10.001  80.595  1.00  0.00    -0.349 N 
HETATM    6  C5  UNL     1      13.757   9.292  81.534  1.00  0.00     0.270 A 
HETATM    7  O1  UNL     1      13.301   8.080  81.539  1.00  0.00    -0.284 OA
HETATM    8  O2  UNL     1      13.590   9.767  82.765  1.00  0.00    -0.275 OA
HETATM    9  C4  UNL     1      12.843   7.752  82.729  1.00  0.00     0.180 A 
HETATM   10  C3  UNL     1      13.033   8.852  83.523  1.00  0.00     0.089 A 
ATOM     11  H1  UNL     1      14.596  10.956  80.775  1.00  0.00     0.163 HD
BRANCH  10  12
HETATM   12  C2  UNL     1      12.692   9.036  84.978  1.00  0.00     0.022 C 
HETATM   13  C1  UNL     1      12.334  10.472  85.178  1.00  0.00     0.024 C 
HETATM   14  C9  UNL     1      11.629   8.069  85.387  1.00  0.00     0.040 C 
HETATM   15  C10 UNL     1      11.636   7.889  86.893  1.00  0.00     0.096 C 
HETATM   16  C11 UNL     1      12.481   6.686  87.304  1.00  0.00     0.038 C 
HETATM   17  N4  UNL     1      12.403   8.971  87.527  1.00  0.00    -0.160 NA
HETATM   18  C12 UNL     1      13.799   7.279  87.730  1.00  0.00     0.111 C 
HETATM   19  N3  UNL     1      13.716   8.617  87.174  1.00  0.00    -0.233 NA
HETATM   20  C13 UNL     1      13.950   8.643  85.764  1.00  0.00     0.125 C 
ENDBRANCH  10  12
ENDBRANCH   4   5
ENDBRANCH   1   4
TORSDOF 3
ENDMDL
