MODEL 1
REMARK VINA RESULT: -6.198603988      0.000      0.000
REMARK  7 active torsions:
REMARK  status: ('A' for Active; 'I' for Inactive)
REMARK    1  A    between atoms: N1_2  and  C2_4 
REMARK    2  A    between atoms: N3_8  and  C4_9 
REMARK    3  A    between atoms: C4_9  and  N4_10 
REMARK    4  A    between atoms: N5_13  and  C7_14 
REMARK    5  A    between atoms: C7_14  and  C8_15 
REMARK    6  A    between atoms: N6_17  and  O1_19 
REMARK    7  A    between atoms: C12_23  and  C13_24 
ROOT
HETATM    1  C4  UNL     1      -3.895   3.475  11.486  1.00  0.00     0.420 C 
ENDROOT
BRANCH   1   2
HETATM    2  N3  UNL     1      -2.546   3.203  11.025  1.00  0.00    -0.263 N 
HETATM    3  N2  UNL     1      -1.826   2.154  11.465  1.00  0.00    -0.306 N 
HETATM    4  C3  UNL     1      -0.637   2.178  10.901  1.00  0.00     0.138 A 
ATOM      5  H2  UNL     1      -2.151   1.451  12.129  1.00  0.00     0.186 HD
HETATM    6  C2  UNL     1      -0.579   3.274  10.072  1.00  0.00     0.072 A 
HETATM    7  C12 UNL     1      -1.815   3.906  10.174  1.00  0.00     0.096 A 
BRANCH   6   8
HETATM    8  N1  UNL     1       0.565   3.643   9.298  1.00  0.00    -0.391 N 
HETATM    9  C1  UNL     1       1.808   3.997   9.950  1.00  0.00     0.146 C 
ATOM     10  H1  UNL     1       0.505   3.658   8.280  1.00  0.00     0.159 HD
ENDBRANCH   6   8
BRANCH   7  11
HETATM   11  C13 UNL     1      -2.097   5.117   9.378  1.00  0.00     0.155 C 
HETATM   12  C14 UNL     1      -1.253   6.292   9.824  1.00  0.00     0.057 C 
HETATM   13 CL1  UNL     1      -3.754   5.642   9.302  1.00  0.00    -0.095 Cl
HETATM   14 CL2  UNL     1      -1.572   4.750   7.691  1.00  0.00    -0.095 Cl
ENDBRANCH   7  11
ENDBRANCH   1   2
BRANCH   1  15
HETATM   15  N4  UNL     1      -3.927   3.329  12.917  1.00  0.00     0.111 N 
HETATM   16  C5  UNL     1      -4.849   2.314  13.366  1.00  0.00     0.305 C 
HETATM   17  C6  UNL     1      -5.717   2.891  14.448  1.00  0.00     0.303 C 
HETATM   18  N5  UNL     1      -4.956   3.302  15.629  1.00  0.00     0.097 N 
HETATM   19  C10 UNL     1      -3.926   4.191  15.141  1.00  0.00     0.303 C 
HETATM   20  C11 UNL     1      -4.088   4.536  13.657  1.00  0.00     0.305 C 
BRANCH  18  21
HETATM   21  C7  UNL     1      -4.457   2.106  16.246  1.00  0.00     0.326 C 
BRANCH  21  22
HETATM   22  C8  UNL     1      -5.406   1.332  17.031  1.00  0.00     0.034 C 
HETATM   23  C9  UNL     1      -6.174   1.931  18.136  1.00  0.00     0.067 C 
HETATM   24  N6  UNL     1      -5.601   0.087  16.776  1.00  0.00    -0.276 N 
ATOM     25  H6  UNL     1      -6.267  -0.454  17.328  1.00  0.00     0.193 HD
BRANCH  24  26
HETATM   26  O1  UNL     1      -4.904  -0.505  15.753  1.00  0.00    -0.290 OA
ATOM     27  H1  UNL     1      -4.795  -0.037  14.934  1.00  0.00     0.244 HD
ENDBRANCH  24  26
ENDBRANCH  21  22
ENDBRANCH  18  21
ENDBRANCH   1  15
TORSDOF 7
ENDMDL
MODEL 2
REMARK VINA RESULT: -6.149353704      2.276      2.496
REMARK  7 active torsions:
REMARK  status: ('A' for Active; 'I' for Inactive)
REMARK    1  A    between atoms: N1_2  and  C2_4 
REMARK    2  A    between atoms: N3_8  and  C4_9 
REMARK    3  A    between atoms: C4_9  and  N4_10 
REMARK    4  A    between atoms: N5_13  and  C7_14 
REMARK    5  A    between atoms: C7_14  and  C8_15 
REMARK    6  A    between atoms: N6_17  and  O1_19 
REMARK    7  A    between atoms: C12_23  and  C13_24 
ROOT
HETATM    1  C4  UNL     1      -3.830   4.511  11.873  1.00  0.00     0.420 C 
ENDROOT
BRANCH   1   2
HETATM    2  N3  UNL     1      -2.385   4.385  11.811  1.00  0.00    -0.263 N 
HETATM    3  N2  UNL     1      -1.772   3.265  11.385  1.00  0.00    -0.306 N 
HETATM    4  C3  UNL     1      -0.469   3.428  11.467  1.00  0.00     0.138 A 
ATOM      5  H2  UNL     1      -2.242   2.423  11.052  1.00  0.00     0.186 HD
HETATM    6  C2  UNL     1      -0.225   4.688  11.961  1.00  0.00     0.072 A 
HETATM    7  C12 UNL     1      -1.470   5.273  12.168  1.00  0.00     0.096 A 
BRANCH   6   8
HETATM    8  N1  UNL     1       1.079   5.224  12.205  1.00  0.00    -0.391 N 
HETATM    9  C1  UNL     1       2.220   4.746  11.453  1.00  0.00     0.146 C 
ATOM     10  H1  UNL     1       1.205   5.946  12.913  1.00  0.00     0.159 HD
ENDBRANCH   6   8
BRANCH   7  11
HETATM   11  C13 UNL     1      -1.566   6.657  12.674  1.00  0.00     0.155 C 
HETATM   12  C14 UNL     1      -2.717   7.409  12.040  1.00  0.00     0.057 C 
HETATM   13 CL1  UNL     1      -0.139   7.643  12.544  1.00  0.00    -0.095 Cl
HETATM   14 CL2  UNL     1      -1.972   6.529  14.427  1.00  0.00    -0.095 Cl
ENDBRANCH   7  11
ENDBRANCH   1   2
BRANCH   1  15
HETATM   15  N4  UNL     1      -4.256   4.235  13.219  1.00  0.00     0.111 N 
HETATM   16  C5  UNL     1      -4.641   2.860  13.425  1.00  0.00     0.305 C 
HETATM   17  C6  UNL     1      -5.981   2.827  14.103  1.00  0.00     0.303 C 
HETATM   18  N5  UNL     1      -5.964   3.449  15.428  1.00  0.00     0.097 N 
HETATM   19  C10 UNL     1      -5.416   4.772  15.232  1.00  0.00     0.303 C 
HETATM   20  C11 UNL     1      -5.228   5.129  13.755  1.00  0.00     0.305 C 
BRANCH  18  21
HETATM   21  C7  UNL     1      -5.173   2.605  16.279  1.00  0.00     0.326 C 
BRANCH  21  22
HETATM   22  C8  UNL     1      -5.775   1.347  16.690  1.00  0.00     0.034 C 
HETATM   23  C9  UNL     1      -7.182   1.260  17.119  1.00  0.00     0.067 C 
HETATM   24  N6  UNL     1      -5.084   0.263  16.692  1.00  0.00    -0.276 N 
ATOM     25  H6  UNL     1      -5.508  -0.618  16.982  1.00  0.00     0.193 HD
BRANCH  24  26
HETATM   26  O1  UNL     1      -3.770   0.305  16.299  1.00  0.00    -0.290 OA
ATOM     27  H1  UNL     1      -3.142  -0.270  16.720  1.00  0.00     0.244 HD
ENDBRANCH  24  26
ENDBRANCH  21  22
ENDBRANCH  18  21
ENDBRANCH   1  15
TORSDOF 7
ENDMDL
MODEL 3
REMARK VINA RESULT: -6.088760940      1.949      2.487
REMARK  7 active torsions:
REMARK  status: ('A' for Active; 'I' for Inactive)
REMARK    1  A    between atoms: N1_2  and  C2_4 
REMARK    2  A    between atoms: N3_8  and  C4_9 
REMARK    3  A    between atoms: C4_9  and  N4_10 
REMARK    4  A    between atoms: N5_13  and  C7_14 
REMARK    5  A    between atoms: C7_14  and  C8_15 
REMARK    6  A    between atoms: N6_17  and  O1_19 
REMARK    7  A    between atoms: C12_23  and  C13_24 
ROOT
HETATM    1  C4  UNL     1      -4.005   5.296  12.388  1.00  0.00     0.420 C 
ENDROOT
BRANCH   1   2
HETATM    2  N3  UNL     1      -2.556   5.344  12.465  1.00  0.00    -0.263 N 
HETATM    3  N2  UNL     1      -1.900   6.182  13.289  1.00  0.00    -0.306 N 
HETATM    4  C3  UNL     1      -0.604   6.027  13.122  1.00  0.00     0.138 A 
ATOM      5  H2  UNL     1      -2.338   6.834  13.941  1.00  0.00     0.186 HD
HETATM    6  C2  UNL     1      -0.408   5.062  12.162  1.00  0.00     0.072 A 
HETATM    7  C12 UNL     1      -1.675   4.646  11.764  1.00  0.00     0.096 A 
BRANCH   6   8
HETATM    8  N1  UNL     1       0.874   4.630  11.697  1.00  0.00    -0.391 N 
HETATM    9  C1  UNL     1       2.027   5.495  11.821  1.00  0.00     0.146 C 
ATOM     10  H1  UNL     1       0.975   3.707  11.276  1.00  0.00     0.159 HD
ENDBRANCH   6   8
BRANCH   7  11
HETATM   11  C13 UNL     1      -1.823   3.583  10.750  1.00  0.00     0.155 C 
HETATM   12  C14 UNL     1      -1.725   2.202  11.364  1.00  0.00     0.057 C 
HETATM   13 CL1  UNL     1      -0.750   3.643   9.383  1.00  0.00    -0.095 Cl
HETATM   14 CL2  UNL     1      -3.508   3.717  10.117  1.00  0.00    -0.095 Cl
ENDBRANCH   7  11
ENDBRANCH   1   2
BRANCH   1  15
HETATM   15  N4  UNL     1      -4.510   4.758  13.623  1.00  0.00     0.111 N 
HETATM   16  C5  UNL     1      -4.556   3.316  13.639  1.00  0.00     0.305 C 
HETATM   17  C6  UNL     1      -5.918   2.879  14.100  1.00  0.00     0.303 C 
HETATM   18  N5  UNL     1      -6.223   3.313  15.464  1.00  0.00     0.097 N 
HETATM   19  C10 UNL     1      -6.009   4.742  15.477  1.00  0.00     0.303 C 
HETATM   20  C11 UNL     1      -5.736   5.319  14.085  1.00  0.00     0.305 C 
BRANCH  18  21
HETATM   21  C7  UNL     1      -5.357   2.580  16.343  1.00  0.00     0.326 C 
BRANCH  21  22
HETATM   22  C8  UNL     1      -5.795   1.248  16.729  1.00  0.00     0.034 C 
HETATM   23  C9  UNL     1      -7.176   0.978  17.164  1.00  0.00     0.067 C 
HETATM   24  N6  UNL     1      -4.974   0.258  16.701  1.00  0.00    -0.276 N 
ATOM     25  H6  UNL     1      -5.283  -0.675  16.973  1.00  0.00     0.193 HD
BRANCH  24  26
HETATM   26  O1  UNL     1      -3.679   0.472  16.302  1.00  0.00    -0.290 OA
ATOM     27  H1  UNL     1      -3.267  -0.148  15.712  1.00  0.00     0.244 HD
ENDBRANCH  24  26
ENDBRANCH  21  22
ENDBRANCH  18  21
ENDBRANCH   1  15
TORSDOF 7
ENDMDL
MODEL 4
REMARK VINA RESULT: -6.066958664      4.408      7.064
REMARK  7 active torsions:
REMARK  status: ('A' for Active; 'I' for Inactive)
REMARK    1  A    between atoms: N1_2  and  C2_4 
REMARK    2  A    between atoms: N3_8  and  C4_9 
REMARK    3  A    between atoms: C4_9  and  N4_10 
REMARK    4  A    between atoms: N5_13  and  C7_14 
REMARK    5  A    between atoms: C7_14  and  C8_15 
REMARK    6  A    between atoms: N6_17  and  O1_19 
REMARK    7  A    between atoms: C12_23  and  C13_24 
ROOT
HETATM    1  C4  UNL     1      -3.075   4.567  12.044  1.00  0.00     0.420 C 
ENDROOT
BRANCH   1   2
HETATM    2  N3  UNL     1      -3.532   3.770  13.168  1.00  0.00    -0.263 N 
HETATM    3  N2  UNL     1      -3.692   4.281  14.402  1.00  0.00    -0.306 N 
HETATM    4  C3  UNL     1      -4.083   3.326  15.218  1.00  0.00     0.138 A 
ATOM      5  H2  UNL     1      -3.536   5.255  14.664  1.00  0.00     0.186 HD
HETATM    6  C2  UNL     1      -4.180   2.159  14.497  1.00  0.00     0.072 A 
HETATM    7  C12 UNL     1      -3.823   2.478  13.191  1.00  0.00     0.096 A 
BRANCH   6   8
HETATM    8  N1  UNL     1      -4.563   0.896  15.048  1.00  0.00    -0.391 N 
HETATM    9  C1  UNL     1      -5.298   0.833  16.293  1.00  0.00     0.146 C 
ATOM     10  H1  UNL     1      -4.317   0.035  14.561  1.00  0.00     0.159 HD
ENDBRANCH   6   8
BRANCH   7  11
HETATM   11  C13 UNL     1      -3.848   1.441  12.140  1.00  0.00     0.155 C 
HETATM   12  C14 UNL     1      -4.862   1.758  11.061  1.00  0.00     0.057 C 
HETATM   13 CL1  UNL     1      -4.106  -0.199  12.658  1.00  0.00    -0.095 Cl
HETATM   14 CL2  UNL     1      -2.237   1.501  11.329  1.00  0.00    -0.095 Cl
ENDBRANCH   7  11
ENDBRANCH   1   2
BRANCH   1  15
HETATM   15  N4  UNL     1      -4.206   5.257  11.483  1.00  0.00     0.111 N 
HETATM   16  C5  UNL     1      -4.209   5.266  10.040  1.00  0.00     0.305 C 
HETATM   17  C6  UNL     1      -4.434   6.673   9.564  1.00  0.00     0.303 C 
HETATM   18  N5  UNL     1      -5.730   7.213   9.978  1.00  0.00     0.097 N 
HETATM   19  C10 UNL     1      -5.783   7.043  11.413  1.00  0.00     0.303 C 
HETATM   20  C11 UNL     1      -4.458   6.557  12.007  1.00  0.00     0.305 C 
BRANCH  18  21
HETATM   21  C7  UNL     1      -6.739   6.486   9.262  1.00  0.00     0.326 C 
BRANCH  21  22
HETATM   22  C8  UNL     1      -7.481   7.225   8.253  1.00  0.00     0.034 C 
HETATM   23  C9  UNL     1      -8.458   8.268   8.612  1.00  0.00     0.067 C 
HETATM   24  N6  UNL     1      -7.302   6.981   7.003  1.00  0.00    -0.276 N 
ATOM     25  H6  UNL     1      -7.825   7.499   6.297  1.00  0.00     0.193 HD
BRANCH  24  26
HETATM   26  O1  UNL     1      -6.401   6.016   6.630  1.00  0.00    -0.290 OA
ATOM     27  H1  UNL     1      -5.544   6.279   6.315  1.00  0.00     0.244 HD
ENDBRANCH  24  26
ENDBRANCH  21  22
ENDBRANCH  18  21
ENDBRANCH   1  15
TORSDOF 7
ENDMDL
MODEL 5
REMARK VINA RESULT: -6.023028687      1.001      1.017
REMARK  7 active torsions:
REMARK  status: ('A' for Active; 'I' for Inactive)
REMARK    1  A    between atoms: N1_2  and  C2_4 
REMARK    2  A    between atoms: N3_8  and  C4_9 
REMARK    3  A    between atoms: C4_9  and  N4_10 
REMARK    4  A    between atoms: N5_13  and  C7_14 
REMARK    5  A    between atoms: C7_14  and  C8_15 
REMARK    6  A    between atoms: N6_17  and  O1_19 
REMARK    7  A    between atoms: C12_23  and  C13_24 
ROOT
HETATM    1  C4  UNL     1      -2.905   2.984  11.458  1.00  0.00     0.420 C 
ENDROOT
BRANCH   1   2
HETATM    2  N3  UNL     1      -1.577   3.529  11.241  1.00  0.00    -0.263 N 
HETATM    3  N2  UNL     1      -0.505   3.134  11.953  1.00  0.00    -0.306 N 
HETATM    4  C3  UNL     1       0.549   3.818  11.563  1.00  0.00     0.138 A 
ATOM      5  H2  UNL     1      -0.509   2.419  12.681  1.00  0.00     0.186 HD
HETATM    6  C2  UNL     1       0.155   4.683  10.569  1.00  0.00     0.072 A 
HETATM    7  C12 UNL     1      -1.208   4.472  10.387  1.00  0.00     0.096 A 
BRANCH   6   8
HETATM    8  N1  UNL     1       1.025   5.605   9.906  1.00  0.00    -0.391 N 
HETATM    9  C1  UNL     1       2.136   5.123   9.113  1.00  0.00     0.146 C 
ATOM     10  H1  UNL     1       0.861   6.607   9.993  1.00  0.00     0.159 HD
ENDBRANCH   6   8
BRANCH   7  11
HETATM   11  C13 UNL     1      -1.947   5.232   9.359  1.00  0.00     0.155 C 
HETATM   12  C14 UNL     1      -1.651   6.715   9.436  1.00  0.00     0.057 C 
HETATM   13 CL1  UNL     1      -3.673   5.028   9.317  1.00  0.00    -0.095 Cl
HETATM   14 CL2  UNL     1      -1.302   4.688   7.765  1.00  0.00    -0.095 Cl
ENDBRANCH   7  11
ENDBRANCH   1   2
BRANCH   1  15
HETATM   15  N4  UNL     1      -3.164   2.962  12.873  1.00  0.00     0.111 N 
HETATM   16  C5  UNL     1      -4.142   1.973  13.258  1.00  0.00     0.305 C 
HETATM   17  C6  UNL     1      -5.174   2.626  14.133  1.00  0.00     0.303 C 
HETATM   18  N5  UNL     1      -4.613   3.152  15.379  1.00  0.00     0.097 N 
HETATM   19  C10 UNL     1      -3.522   4.013  14.983  1.00  0.00     0.303 C 
HETATM   20  C11 UNL     1      -3.446   4.225  13.469  1.00  0.00     0.305 C 
BRANCH  18  21
HETATM   21  C7  UNL     1      -4.215   2.022  16.170  1.00  0.00     0.326 C 
BRANCH  21  22
HETATM   22  C8  UNL     1      -5.268   1.332  16.897  1.00  0.00     0.034 C 
HETATM   23  C9  UNL     1      -6.062   2.000  17.942  1.00  0.00     0.067 C 
HETATM   24  N6  UNL     1      -5.537   0.100  16.641  1.00  0.00    -0.276 N 
ATOM     25  H6  UNL     1      -6.275  -0.383  17.152  1.00  0.00     0.193 HD
BRANCH  24  26
HETATM   26  O1  UNL     1      -4.818  -0.556  15.674  1.00  0.00    -0.290 OA
ATOM     27  H1  UNL     1      -5.242  -0.781  14.854  1.00  0.00     0.244 HD
ENDBRANCH  24  26
ENDBRANCH  21  22
ENDBRANCH  18  21
ENDBRANCH   1  15
TORSDOF 7
ENDMDL
