MODEL 1
REMARK VINA RESULT: -8.431301847      0.000      0.000
REMARK  9 active torsions:
REMARK  status: ('A' for Active; 'I' for Inactive)
REMARK    1  A    between atoms: N1_1  and  C1_5 
REMARK    2  A    between atoms: C1_5  and  O1_6 
REMARK    3  A    between atoms: C2_13  and  N5_14 
REMARK    4  A    between atoms: N5_14  and  C3_16 
REMARK    5  A    between atoms: C3_16  and  C4_17 
REMARK    6  A    between atoms: C6_23  and  N8_24 
REMARK    7  A    between atoms: C7_26  and  C8_27 
REMARK    8  A    between atoms: C12_31  and  C13_32 
REMARK    9  A    between atoms: C13_32  and  O2_33 
ROOT
HETATM    1  C4  UNL     1      24.961  -9.099  16.387  1.00  0.00     0.072 A 
HETATM    2  N6  UNL     1      25.339  -9.811  17.439  1.00  0.00    -0.351 N 
ATOM      3  H6  UNL     1      26.252 -10.247  17.567  1.00  0.00     0.166 HD
HETATM    4  C5  UNL     1      24.309  -9.860  18.312  1.00  0.00     0.182 A 
HETATM    5  N7  UNL     1      23.267  -9.180  17.822  1.00  0.00    -0.337 N 
ATOM      6  H7  UNL     1      22.358  -9.049  18.266  1.00  0.00     0.168 HD
HETATM    7  C6  UNL     1      23.661  -8.697  16.617  1.00  0.00     0.130 A 
ENDROOT
BRANCH   1   8
HETATM    8  C3  UNL     1      25.694  -8.730  15.139  1.00  0.00     0.184 C 
BRANCH   8   9
HETATM    9  N5  UNL     1      26.881  -9.494  14.946  1.00  0.00    -0.349 N 
ATOM     10  H5  UNL     1      27.777  -9.041  15.123  1.00  0.00     0.163 HD
BRANCH   9  11
HETATM   11  C2  UNL     1      26.891 -10.853  14.522  1.00  0.00     0.240 C 
HETATM   12  N4  UNL     1      27.230 -11.205  13.313  1.00  0.00    -0.253 N 
HETATM   13  N3  UNL     1      27.223 -12.549  12.949  1.00  0.00    -0.237 N 
ATOM     14  H4  UNL     1      27.501 -10.494  12.633  1.00  0.00     0.191 HD
HETATM   15  N2  UNL     1      27.442 -13.510  13.931  1.00  0.00    -0.029 NA
ATOM     16  H3  UNL     1      27.060 -12.824  11.980  1.00  0.00     0.204 HD
HETATM   17  C1  UNL     1      26.566 -13.239  15.034  1.00  0.00     0.443 C 
HETATM   18  O3  UNL     1      26.536 -11.863  15.390  1.00  0.00    -0.242 OA
BRANCH  17  19
HETATM   19  N1  UNL     1      25.235 -13.623  14.671  1.00  0.00    -0.003 N 
ATOM     20  H13 UNL     1      24.593 -13.517  15.457  1.00  0.00     0.282 HD
ATOM     21  H12 UNL     1      24.818 -12.949  14.029  1.00  0.00     0.282 HD
ATOM     22  H11 UNL     1      25.198 -14.568  14.290  1.00  0.00     0.282 HD
ENDBRANCH  17  19
BRANCH  17  23
HETATM   23  O1  UNL     1      27.046 -13.968  16.134  1.00  0.00    -0.328 OA
ATOM     24  H1  UNL     1      27.244 -13.408  16.876  1.00  0.00     0.216 HD
ENDBRANCH  17  23
ENDBRANCH   9  11
ENDBRANCH   8   9
ENDBRANCH   1   8
BRANCH   7  25
HETATM   25  N8  UNL     1      22.822  -7.914  15.780  1.00  0.00    -0.348 N 
HETATM   26  C7  UNL     1      22.080  -8.429  14.856  1.00  0.00     0.119 C 
ATOM     27  H8  UNL     1      22.805  -6.903  15.914  1.00  0.00     0.167 HD
BRANCH  26  28
HETATM   28  C8  UNL     1      21.252  -7.546  14.048  1.00  0.00     0.048 A 
HETATM   29  C9  UNL     1      20.493  -8.030  13.012  1.00  0.00     0.031 A 
HETATM   30  C10 UNL     1      19.734  -7.115  12.295  1.00  0.00     0.004 A 
HETATM   31  C11 UNL     1      19.748  -5.771  12.616  1.00  0.00     0.027 A 
HETATM   32  C12 UNL     1      20.530  -5.334  13.669  1.00  0.00     0.033 A 
HETATM   33  N9  UNL     1      21.244  -6.234  14.334  1.00  0.00    -0.357 N 
ATOM     34  H9  UNL     1      21.820  -5.910  15.111  1.00  0.00     0.166 HD
BRANCH  32  35
HETATM   35  C13 UNL     1      20.577  -3.892  14.054  1.00  0.00     0.221 C 
BRANCH  35  36
HETATM   36  O2  UNL     1      21.724  -3.616  14.804  1.00  0.00    -0.395 OA
ATOM     37  H2  UNL     1      22.344  -3.105  14.297  1.00  0.00     0.209 HD
ENDBRANCH  35  36
ENDBRANCH  32  35
ENDBRANCH  26  28
ENDBRANCH   7  25
TORSDOF 9
ENDMDL
MODEL 2
REMARK VINA RESULT: -7.562689390      1.103      1.421
REMARK  9 active torsions:
REMARK  status: ('A' for Active; 'I' for Inactive)
REMARK    1  A    between atoms: N1_1  and  C1_5 
REMARK    2  A    between atoms: C1_5  and  O1_6 
REMARK    3  A    between atoms: C2_13  and  N5_14 
REMARK    4  A    between atoms: N5_14  and  C3_16 
REMARK    5  A    between atoms: C3_16  and  C4_17 
REMARK    6  A    between atoms: C6_23  and  N8_24 
REMARK    7  A    between atoms: C7_26  and  C8_27 
REMARK    8  A    between atoms: C12_31  and  C13_32 
REMARK    9  A    between atoms: C13_32  and  O2_33 
ROOT
HETATM    1  C4  UNL     1      24.754  -9.037  16.629  1.00  0.00     0.072 A 
HETATM    2  N6  UNL     1      25.083  -9.730  17.709  1.00  0.00    -0.351 N 
ATOM      3  H6  UNL     1      25.991 -10.160  17.888  1.00  0.00     0.166 HD
HETATM    4  C5  UNL     1      24.013  -9.769  18.532  1.00  0.00     0.182 A 
HETATM    5  N7  UNL     1      22.993  -9.100  17.983  1.00  0.00    -0.337 N 
ATOM      6  H7  UNL     1      22.064  -8.966  18.380  1.00  0.00     0.168 HD
HETATM    7  C6  UNL     1      23.443  -8.636  16.790  1.00  0.00     0.130 A 
ENDROOT
BRANCH   1   8
HETATM    8  C3  UNL     1      25.545  -8.685  15.412  1.00  0.00     0.184 C 
BRANCH   8   9
HETATM    9  N5  UNL     1      26.653  -9.554  15.200  1.00  0.00    -0.349 N 
ATOM     10  H5  UNL     1      27.487  -9.169  14.757  1.00  0.00     0.163 HD
BRANCH   9  11
HETATM   11  C2  UNL     1      26.667 -10.929  15.568  1.00  0.00     0.240 C 
HETATM   12  N4  UNL     1      27.135 -11.340  16.713  1.00  0.00    -0.253 N 
HETATM   13  N3  UNL     1      27.125 -12.698  17.025  1.00  0.00    -0.237 N 
ATOM     14  H4  UNL     1      27.509 -10.667  17.382  1.00  0.00     0.191 HD
HETATM   15  N2  UNL     1      26.147 -13.508  16.458  1.00  0.00    -0.029 NA
ATOM     16  H3  UNL     1      27.823 -13.091  17.657  1.00  0.00     0.204 HD
HETATM   17  C1  UNL     1      26.128 -13.273  15.043  1.00  0.00     0.443 C 
HETATM   18  O3  UNL     1      26.177 -11.891  14.712  1.00  0.00    -0.242 OA
BRANCH  17  19
HETATM   19  N1  UNL     1      27.274 -13.900  14.455  1.00  0.00    -0.003 N 
ATOM     20  H13 UNL     1      28.099 -13.789  15.045  1.00  0.00     0.282 HD
ATOM     21  H12 UNL     1      27.192 -14.917  14.482  1.00  0.00     0.282 HD
ATOM     22  H11 UNL     1      27.450 -13.568  13.508  1.00  0.00     0.282 HD
ENDBRANCH  17  19
BRANCH  17  23
HETATM   23  O1  UNL     1      24.924 -13.802  14.551  1.00  0.00    -0.328 OA
ATOM     24  H1  UNL     1      24.215 -13.171  14.587  1.00  0.00     0.216 HD
ENDBRANCH  17  23
ENDBRANCH   9  11
ENDBRANCH   8   9
ENDBRANCH   1   8
BRANCH   7  25
HETATM   25  N8  UNL     1      22.643  -7.870  15.901  1.00  0.00    -0.348 N 
HETATM   26  C7  UNL     1      21.982  -8.398  14.924  1.00  0.00     0.119 C 
ATOM     27  H8  UNL     1      22.588  -6.860  16.040  1.00  0.00     0.167 HD
BRANCH  26  28
HETATM   28  C8  UNL     1      21.188  -7.531  14.066  1.00  0.00     0.048 A 
HETATM   29  C9  UNL     1      20.479  -8.035  13.004  1.00  0.00     0.031 A 
HETATM   30  C10 UNL     1      19.749  -7.134  12.239  1.00  0.00     0.004 A 
HETATM   31  C11 UNL     1      19.742  -5.786  12.540  1.00  0.00     0.027 A 
HETATM   32  C12 UNL     1      20.473  -5.329  13.621  1.00  0.00     0.033 A 
HETATM   33  N9  UNL     1      21.160  -6.214  14.332  1.00  0.00    -0.357 N 
ATOM     34  H9  UNL     1      21.698  -5.876  15.129  1.00  0.00     0.166 HD
BRANCH  32  35
HETATM   35  C13 UNL     1      20.496  -3.881  13.985  1.00  0.00     0.221 C 
BRANCH  35  36
HETATM   36  O2  UNL     1      21.609  -3.586  14.778  1.00  0.00    -0.395 OA
ATOM     37  H2  UNL     1      21.535  -2.716  15.153  1.00  0.00     0.209 HD
ENDBRANCH  35  36
ENDBRANCH  32  35
ENDBRANCH  26  28
ENDBRANCH   7  25
TORSDOF 9
ENDMDL
MODEL 3
REMARK VINA RESULT: -7.329763177      1.384      1.913
REMARK  9 active torsions:
REMARK  status: ('A' for Active; 'I' for Inactive)
REMARK    1  A    between atoms: N1_1  and  C1_5 
REMARK    2  A    between atoms: C1_5  and  O1_6 
REMARK    3  A    between atoms: C2_13  and  N5_14 
REMARK    4  A    between atoms: N5_14  and  C3_16 
REMARK    5  A    between atoms: C3_16  and  C4_17 
REMARK    6  A    between atoms: C6_23  and  N8_24 
REMARK    7  A    between atoms: C7_26  and  C8_27 
REMARK    8  A    between atoms: C12_31  and  C13_32 
REMARK    9  A    between atoms: C13_32  and  O2_33 
ROOT
HETATM    1  C4  UNL     1      25.257  -9.168  16.058  1.00  0.00     0.072 A 
HETATM    2  N6  UNL     1      25.797  -9.913  17.011  1.00  0.00    -0.351 N 
ATOM      3  H6  UNL     1      26.690 -10.403  16.951  1.00  0.00     0.166 HD
HETATM    4  C5  UNL     1      24.964  -9.914  18.075  1.00  0.00     0.182 A 
HETATM    5  N7  UNL     1      23.887  -9.168  17.807  1.00  0.00    -0.337 N 
ATOM      6  H7  UNL     1      23.096  -8.991  18.426  1.00  0.00     0.168 HD
HETATM    7  C6  UNL     1      24.057  -8.694  16.547  1.00  0.00     0.130 A 
ENDROOT
BRANCH   1   8
HETATM    8  C3  UNL     1      25.743  -8.826  14.688  1.00  0.00     0.184 C 
BRANCH   8   9
HETATM    9  N5  UNL     1      26.918  -9.544  14.321  1.00  0.00    -0.349 N 
ATOM     10  H5  UNL     1      27.784  -9.019  14.207  1.00  0.00     0.163 HD
BRANCH   9  11
HETATM   11  C2  UNL     1      26.955 -10.949  14.103  1.00  0.00     0.240 C 
HETATM   12  N4  UNL     1      27.340 -11.472  12.973  1.00  0.00    -0.253 N 
HETATM   13  N3  UNL     1      27.357 -12.855  12.812  1.00  0.00    -0.237 N 
ATOM     14  H4  UNL     1      27.628 -10.866  12.204  1.00  0.00     0.191 HD
HETATM   15  N2  UNL     1      27.550 -13.657  13.932  1.00  0.00    -0.029 NA
ATOM     16  H3  UNL     1      27.231 -13.273  11.890  1.00  0.00     0.204 HD
HETATM   17  C1  UNL     1      26.633 -13.238  14.953  1.00  0.00     0.443 C 
HETATM   18  O3  UNL     1      26.578 -11.825  15.099  1.00  0.00    -0.242 OA
BRANCH  17  19
HETATM   19  N1  UNL     1      25.319 -13.690  14.607  1.00  0.00    -0.003 N 
ATOM     20  H13 UNL     1      25.272 -13.975  13.628  1.00  0.00     0.282 HD
ATOM     21  H12 UNL     1      25.109 -14.586  15.046  1.00  0.00     0.282 HD
ATOM     22  H11 UNL     1      24.605 -12.995  14.823  1.00  0.00     0.282 HD
ENDBRANCH  17  19
BRANCH  17  23
HETATM   23  O1  UNL     1      27.081 -13.789  16.164  1.00  0.00    -0.328 OA
ATOM     24  H1  UNL     1      26.952 -13.198  16.896  1.00  0.00     0.216 HD
ENDBRANCH  17  23
ENDBRANCH   9  11
ENDBRANCH   8   9
ENDBRANCH   1   8
BRANCH   7  25
HETATM   25  N8  UNL     1      23.114  -7.853  15.898  1.00  0.00    -0.348 N 
HETATM   26  C7  UNL     1      23.445  -6.741  15.329  1.00  0.00     0.119 C 
ATOM     27  H8  UNL     1      22.134  -8.139  15.882  1.00  0.00     0.167 HD
BRANCH  26  28
HETATM   28  C8  UNL     1      22.408  -5.946  14.688  1.00  0.00     0.048 A 
HETATM   29  C9  UNL     1      22.350  -4.584  14.855  1.00  0.00     0.031 A 
HETATM   30  C10 UNL     1      21.326  -3.906  14.206  1.00  0.00     0.004 A 
HETATM   31  C11 UNL     1      20.406  -4.581  13.427  1.00  0.00     0.027 A 
HETATM   32  C12 UNL     1      20.509  -5.953  13.292  1.00  0.00     0.033 A 
HETATM   33  N9  UNL     1      21.498  -6.572  13.924  1.00  0.00    -0.357 N 
ATOM     34  H9  UNL     1      21.573  -7.584  13.823  1.00  0.00     0.166 HD
BRANCH  32  35
HETATM   35  C13 UNL     1      19.538  -6.725  12.461  1.00  0.00     0.221 C 
BRANCH  35  36
HETATM   36  O2  UNL     1      19.882  -8.081  12.427  1.00  0.00    -0.395 OA
ATOM     37  H2  UNL     1      20.321  -8.296  11.613  1.00  0.00     0.209 HD
ENDBRANCH  35  36
ENDBRANCH  32  35
ENDBRANCH  26  28
ENDBRANCH   7  25
TORSDOF 9
ENDMDL
MODEL 4
REMARK VINA RESULT: -7.238374449      1.129      1.498
REMARK  9 active torsions:
REMARK  status: ('A' for Active; 'I' for Inactive)
REMARK    1  A    between atoms: N1_1  and  C1_5 
REMARK    2  A    between atoms: C1_5  and  O1_6 
REMARK    3  A    between atoms: C2_13  and  N5_14 
REMARK    4  A    between atoms: N5_14  and  C3_16 
REMARK    5  A    between atoms: C3_16  and  C4_17 
REMARK    6  A    between atoms: C6_23  and  N8_24 
REMARK    7  A    between atoms: C7_26  and  C8_27 
REMARK    8  A    between atoms: C12_31  and  C13_32 
REMARK    9  A    between atoms: C13_32  and  O2_33 
ROOT
HETATM    1  C4  UNL     1      24.768  -9.043  16.753  1.00  0.00     0.072 A 
HETATM    2  N6  UNL     1      25.059  -9.746  17.837  1.00  0.00    -0.351 N 
ATOM      3  H6  UNL     1      25.966 -10.157  18.056  1.00  0.00     0.166 HD
HETATM    4  C5  UNL     1      23.948  -9.825  18.603  1.00  0.00     0.182 A 
HETATM    5  N7  UNL     1      22.942  -9.172  18.011  1.00  0.00    -0.337 N 
ATOM      6  H7  UNL     1      21.990  -9.067  18.362  1.00  0.00     0.168 HD
HETATM    7  C6  UNL     1      23.441  -8.676  16.851  1.00  0.00     0.130 A 
ENDROOT
BRANCH   1   8
HETATM    8  C3  UNL     1      25.612  -8.651  15.584  1.00  0.00     0.184 C 
BRANCH   8   9
HETATM    9  N5  UNL     1      26.770  -9.468  15.437  1.00  0.00    -0.349 N 
ATOM     10  H5  UNL     1      27.679  -9.052  15.638  1.00  0.00     0.163 HD
BRANCH   9  11
HETATM   11  C2  UNL     1      26.735 -10.830  15.027  1.00  0.00     0.240 C 
HETATM   12  N4  UNL     1      26.685 -11.816  15.879  1.00  0.00    -0.253 N 
HETATM   13  N3  UNL     1      26.652 -13.132  15.424  1.00  0.00    -0.237 N 
ATOM     14  H4  UNL     1      26.671 -11.623  16.881  1.00  0.00     0.191 HD
HETATM   15  N2  UNL     1      26.093 -13.396  14.178  1.00  0.00    -0.029 NA
ATOM     16  H3  UNL     1      27.032 -13.888  15.994  1.00  0.00     0.204 HD
HETATM   17  C1  UNL     1      26.677 -12.502  13.220  1.00  0.00     0.443 C 
HETATM   18  O3  UNL     1      26.751 -11.162  13.689  1.00  0.00    -0.242 OA
BRANCH  17  19
HETATM   19  N1  UNL     1      28.012 -12.937  12.937  1.00  0.00    -0.003 N 
ATOM     20  H13 UNL     1      28.296 -13.691  13.564  1.00  0.00     0.282 HD
ATOM     21  H12 UNL     1      28.056 -13.439  12.050  1.00  0.00     0.282 HD
ATOM     22  H11 UNL     1      28.680 -12.167  12.960  1.00  0.00     0.282 HD
ENDBRANCH  17  19
BRANCH  17  23
HETATM   23  O1  UNL     1      25.859 -12.525  12.079  1.00  0.00    -0.328 OA
ATOM     24  H1  UNL     1      25.209 -11.833  12.091  1.00  0.00     0.216 HD
ENDBRANCH  17  23
ENDBRANCH   9  11
ENDBRANCH   8   9
ENDBRANCH   1   8
BRANCH   7  25
HETATM   25  N8  UNL     1      22.669  -7.914  15.934  1.00  0.00    -0.348 N 
HETATM   26  C7  UNL     1      21.953  -8.456  15.005  1.00  0.00     0.119 C 
ATOM     27  H8  UNL     1      22.681  -6.897  16.012  1.00  0.00     0.167 HD
BRANCH  26  28
HETATM   28  C8  UNL     1      21.194  -7.593  14.112  1.00  0.00     0.048 A 
HETATM   29  C9  UNL     1      20.513  -8.104  13.035  1.00  0.00     0.031 A 
HETATM   30  C10 UNL     1      19.817  -7.206  12.237  1.00  0.00     0.004 A 
HETATM   31  C11 UNL     1      19.813  -5.854  12.521  1.00  0.00     0.027 A 
HETATM   32  C12 UNL     1      20.515  -5.390  13.619  1.00  0.00     0.033 A 
HETATM   33  N9  UNL     1      21.170  -6.273  14.361  1.00  0.00    -0.357 N 
ATOM     34  H9  UNL     1      21.687  -5.930  15.170  1.00  0.00     0.166 HD
BRANCH  32  35
HETATM   35  C13 UNL     1      20.540  -3.938  13.966  1.00  0.00     0.221 C 
BRANCH  35  36
HETATM   36  O2  UNL     1      21.647  -3.638  14.765  1.00  0.00    -0.395 OA
ATOM     37  H2  UNL     1      21.545  -2.788  15.176  1.00  0.00     0.209 HD
ENDBRANCH  35  36
ENDBRANCH  32  35
ENDBRANCH  26  28
ENDBRANCH   7  25
TORSDOF 9
ENDMDL
MODEL 5
REMARK VINA RESULT: -6.775939629      2.502      4.890
REMARK  9 active torsions:
REMARK  status: ('A' for Active; 'I' for Inactive)
REMARK    1  A    between atoms: N1_1  and  C1_5 
REMARK    2  A    between atoms: C1_5  and  O1_6 
REMARK    3  A    between atoms: C2_13  and  N5_14 
REMARK    4  A    between atoms: N5_14  and  C3_16 
REMARK    5  A    between atoms: C3_16  and  C4_17 
REMARK    6  A    between atoms: C6_23  and  N8_24 
REMARK    7  A    between atoms: C7_26  and  C8_27 
REMARK    8  A    between atoms: C12_31  and  C13_32 
REMARK    9  A    between atoms: C13_32  and  O2_33 
ROOT
HETATM    1  C4  UNL     1      27.063 -13.122  13.747  1.00  0.00     0.072 A 
HETATM    2  N6  UNL     1      28.112 -13.527  13.046  1.00  0.00    -0.351 N 
ATOM      3  H6  UNL     1      28.621 -14.400  13.185  1.00  0.00     0.166 HD
HETATM    4  C5  UNL     1      28.393 -12.586  12.118  1.00  0.00     0.182 A 
HETATM    5  N7  UNL     1      27.524 -11.575  12.220  1.00  0.00    -0.337 N 
ATOM      6  H7  UNL     1      27.497 -10.731  11.648  1.00  0.00     0.168 HD
HETATM    7  C6  UNL     1      26.685 -11.897  13.237  1.00  0.00     0.130 A 
ENDROOT
BRANCH   1   8
HETATM    8  C3  UNL     1      26.337 -13.764  14.883  1.00  0.00     0.184 C 
BRANCH   8   9
HETATM    9  N5  UNL     1      26.783 -13.306  16.156  1.00  0.00    -0.349 N 
ATOM     10  H5  UNL     1      27.745 -13.506  16.427  1.00  0.00     0.163 HD
BRANCH   9  11
HETATM   11  C2  UNL     1      25.966 -12.586  17.072  1.00  0.00     0.240 C 
HETATM   12  N4  UNL     1      25.872 -11.286  17.052  1.00  0.00    -0.253 N 
HETATM   13  N3  UNL     1      25.058 -10.629  17.972  1.00  0.00    -0.237 N 
ATOM     14  H4  UNL     1      26.396 -10.748  16.361  1.00  0.00     0.191 HD
HETATM   15  N2  UNL     1      23.948 -11.297  18.480  1.00  0.00    -0.029 NA
ATOM     16  H3  UNL     1      25.272  -9.677  18.269  1.00  0.00     0.204 HD
HETATM   17  C1  UNL     1      24.369 -12.587  18.946  1.00  0.00     0.443 C 
HETATM   18  O3  UNL     1      25.232 -13.250  18.031  1.00  0.00    -0.242 OA
BRANCH  17  19
HETATM   19  N1  UNL     1      25.084 -12.422  20.176  1.00  0.00    -0.003 N 
ATOM     20  H13 UNL     1      24.934 -13.216  20.799  1.00  0.00     0.282 HD
ATOM     21  H12 UNL     1      26.090 -12.516  20.034  1.00  0.00     0.282 HD
ATOM     22  H11 UNL     1      24.856 -11.542  20.638  1.00  0.00     0.282 HD
ENDBRANCH  17  19
BRANCH  17  23
HETATM   23  O1  UNL     1      23.213 -13.367  19.106  1.00  0.00    -0.328 OA
ATOM     24  H1  UNL     1      23.078 -13.961  18.377  1.00  0.00     0.216 HD
ENDBRANCH  17  23
ENDBRANCH   9  11
ENDBRANCH   8   9
ENDBRANCH   1   8
BRANCH   7  25
HETATM   25  N8  UNL     1      25.614 -11.063  13.655  1.00  0.00    -0.348 N 
HETATM   26  C7  UNL     1      25.800  -9.939  14.263  1.00  0.00     0.119 C 
ATOM     27  H8  UNL     1      24.657 -11.366  13.468  1.00  0.00     0.167 HD
BRANCH  26  28
HETATM   28  C8  UNL     1      24.639  -9.152  14.653  1.00  0.00     0.048 A 
HETATM   29  C9  UNL     1      23.452  -9.752  14.991  1.00  0.00     0.031 A 
HETATM   30  C10 UNL     1      22.398  -8.923  15.351  1.00  0.00     0.004 A 
HETATM   31  C11 UNL     1      22.545  -7.550  15.366  1.00  0.00     0.027 A 
HETATM   32  C12 UNL     1      23.762  -6.994  15.016  1.00  0.00     0.033 A 
HETATM   33  N9  UNL     1      24.749  -7.813  14.678  1.00  0.00    -0.357 N 
ATOM     34  H9  UNL     1      25.647  -7.402  14.421  1.00  0.00     0.166 HD
BRANCH  32  35
HETATM   35  C13 UNL     1      23.968  -5.515  15.018  1.00  0.00     0.221 C 
BRANCH  35  36
HETATM   36  O2  UNL     1      22.744  -4.843  15.082  1.00  0.00    -0.395 OA
ATOM     37  H2  UNL     1      22.845  -3.999  15.506  1.00  0.00     0.209 HD
ENDBRANCH  35  36
ENDBRANCH  32  35
ENDBRANCH  26  28
ENDBRANCH   7  25
TORSDOF 9
ENDMDL
