MODEL 1
REMARK VINA RESULT: -6.856403497      0.000      0.000
REMARK  8 active torsions:
REMARK  status: ('A' for Active; 'I' for Inactive)
REMARK       I    between atoms: C1_2  and  N5_19 
REMARK    1  A    between atoms: N2_3  and  C2_5 
REMARK    2  A    between atoms: C2_5  and  C3_6 
REMARK    3  A    between atoms: C3_6  and  C4_7 
REMARK    4  A    between atoms: C4_7  and  N3_8 
REMARK       I    between atoms: N3_8  and  C5_10 
REMARK    5  A    between atoms: C5_10  and  C6_12 
REMARK    6  A    between atoms: C6_12  and  N4_13 
REMARK       I    between atoms: N4_13  and  C7_15 
REMARK    7  A    between atoms: C7_15  and  C8_17 
REMARK    8  A    between atoms: N5_19  and  C9_21 
ROOT
HETATM    1  N1  UNL     1       1.814  -7.772   0.021  1.00  0.00    -0.064 NA
HETATM    2  C1  UNL     1       1.705  -8.711   1.073  1.00  0.00     0.184 C 
HETATM    3  N2  UNL     1       1.785  -8.300   2.282  1.00  0.00    -0.365 N 
ATOM      4  H2  UNL     1       1.926  -7.304   2.447  1.00  0.00     0.162 HD
HETATM    5  N5  UNL     1       1.511 -10.087   0.818  1.00  0.00    -0.360 N 
ATOM      6  H5  UNL     1       1.147 -10.678   1.566  1.00  0.00     0.162 HD
ENDROOT
BRANCH   3   7
HETATM    7  C2  UNL     1       1.687  -9.180   3.432  1.00  0.00     0.123 C 
BRANCH   7   8
HETATM    8  C3  UNL     1       2.987  -9.136   4.246  1.00  0.00     0.039 C 
BRANCH   8   9
HETATM    9  C4  UNL     1       3.468 -10.545   4.445  1.00  0.00     0.124 C 
BRANCH   9  10
HETATM   10  N3  UNL     1       3.932 -11.108   3.210  1.00  0.00    -0.360 N 
HETATM   11  C5  UNL     1       5.305 -11.270   2.928  1.00  0.00     0.235 C 
HETATM   12  O1  UNL     1       6.193 -10.895   3.770  1.00  0.00    -0.272 OA
ATOM     13  H3  UNL     1       3.247 -11.401   2.514  1.00  0.00     0.162 HD
BRANCH  11  14
HETATM   14  C6  UNL     1       5.847 -11.854   1.689  1.00  0.00     0.225 C 
BRANCH  14  15
HETATM   15  N4  UNL     1       7.269 -11.889   1.643  1.00  0.00    -0.352 N 
HETATM   16  C7  UNL     1       8.006 -11.609   0.463  1.00  0.00     0.227 C 
HETATM   17  O2  UNL     1       7.454 -11.320  -0.622  1.00  0.00    -0.273 OA
ATOM     18  H4  UNL     1       7.780 -12.126   2.493  1.00  0.00     0.162 HD
BRANCH  16  19
HETATM   19  C8  UNL     1       9.508 -11.645   0.454  1.00  0.00     0.187 C 
HETATM   20 BR1  UNL     1      10.070 -12.020  -1.344  1.00  0.00    -0.087 Br
ENDBRANCH  16  19
ENDBRANCH  14  15
ENDBRANCH  11  14
ENDBRANCH   9  10
ENDBRANCH   8   9
ENDBRANCH   7   8
ENDBRANCH   3   7
BRANCH   5  21
HETATM   21  C9  UNL     1       1.811 -10.693  -0.474  1.00  0.00     0.084 C 
HETATM   22  C10 UNL     1       2.930 -11.645  -0.299  1.00  0.00     0.025 C 
HETATM   23  C11 UNL     1       3.961 -11.645  -1.375  1.00  0.00     0.002 C 
HETATM   24  C12 UNL     1       3.579 -10.997  -2.654  1.00  0.00     0.000 C 
HETATM   25  C13 UNL     1       2.331 -11.482  -3.301  1.00  0.00     0.000 C 
HETATM   26  C14 UNL     1       1.758 -12.738  -2.768  1.00  0.00     0.000 C 
HETATM   27  C15 UNL     1       0.694 -12.580  -1.733  1.00  0.00     0.002 C 
HETATM   28  C16 UNL     1       0.582 -11.238  -1.110  1.00  0.00     0.025 C 
ENDBRANCH   5  21
TORSDOF 8
ENDMDL
MODEL 2
REMARK VINA RESULT: -6.776353658      4.800      6.388
REMARK  8 active torsions:
REMARK  status: ('A' for Active; 'I' for Inactive)
REMARK       I    between atoms: C1_2  and  N5_19 
REMARK    1  A    between atoms: N2_3  and  C2_5 
REMARK    2  A    between atoms: C2_5  and  C3_6 
REMARK    3  A    between atoms: C3_6  and  C4_7 
REMARK    4  A    between atoms: C4_7  and  N3_8 
REMARK       I    between atoms: N3_8  and  C5_10 
REMARK    5  A    between atoms: C5_10  and  C6_12 
REMARK    6  A    between atoms: C6_12  and  N4_13 
REMARK       I    between atoms: N4_13  and  C7_15 
REMARK    7  A    between atoms: C7_15  and  C8_17 
REMARK    8  A    between atoms: N5_19  and  C9_21 
ROOT
HETATM    1  N1  UNL     1       1.694  -7.537  -0.057  1.00  0.00    -0.064 NA
HETATM    2  C1  UNL     1       1.371  -8.386   1.028  1.00  0.00     0.184 C 
HETATM    3  N2  UNL     1       1.295  -7.889   2.204  1.00  0.00    -0.365 N 
ATOM      4  H2  UNL     1       1.470  -6.891   2.320  1.00  0.00     0.162 HD
HETATM    5  N5  UNL     1       1.132  -9.766   0.840  1.00  0.00    -0.360 N 
ATOM      6  H5  UNL     1       0.625 -10.279   1.561  1.00  0.00     0.162 HD
ENDROOT
BRANCH   3   7
HETATM    7  C2  UNL     1       0.971  -8.672   3.382  1.00  0.00     0.123 C 
BRANCH   7   8
HETATM    8  C3  UNL     1       2.251  -9.022   4.154  1.00  0.00     0.039 C 
BRANCH   8   9
HETATM    9  C4  UNL     1       2.461 -10.507   4.071  1.00  0.00     0.124 C 
BRANCH   9  10
HETATM   10  N3  UNL     1       1.426 -11.212   4.771  1.00  0.00    -0.360 N 
HETATM   11  C5  UNL     1       0.410 -11.920   4.095  1.00  0.00     0.235 C 
HETATM   12  O1  UNL     1       0.369 -11.939   2.815  1.00  0.00    -0.272 OA
ATOM     13  H3  UNL     1       1.424 -11.200   5.791  1.00  0.00     0.162 HD
BRANCH  11  14
HETATM   14  C6  UNL     1      -0.670 -12.676   4.752  1.00  0.00     0.225 C 
BRANCH  14  15
HETATM   15  N4  UNL     1      -1.956 -12.080   4.615  1.00  0.00    -0.352 N 
HETATM   16  C7  UNL     1      -3.137 -12.840   4.421  1.00  0.00     0.227 C 
HETATM   17  O2  UNL     1      -3.128 -14.089   4.346  1.00  0.00    -0.273 OA
ATOM     18  H4  UNL     1      -2.031 -11.064   4.660  1.00  0.00     0.162 HD
BRANCH  16  19
HETATM   19  C8  UNL     1      -4.480 -12.178   4.292  1.00  0.00     0.187 C 
HETATM   20 BR1  UNL     1      -5.475 -13.135   2.958  1.00  0.00    -0.087 Br
ENDBRANCH  16  19
ENDBRANCH  14  15
ENDBRANCH  11  14
ENDBRANCH   9  10
ENDBRANCH   8   9
ENDBRANCH   7   8
ENDBRANCH   3   7
BRANCH   5  21
HETATM   21  C9  UNL     1       1.585 -10.484  -0.347  1.00  0.00     0.084 C 
HETATM   22  C10 UNL     1       2.612 -11.467   0.061  1.00  0.00     0.025 C 
HETATM   23  C11 UNL     1       3.788 -11.596  -0.845  1.00  0.00     0.002 C 
HETATM   24  C12 UNL     1       3.633 -11.035  -2.210  1.00  0.00     0.000 C 
HETATM   25  C13 UNL     1       2.469 -11.514  -3.000  1.00  0.00     0.000 C 
HETATM   26  C14 UNL     1       1.756 -12.698  -2.472  1.00  0.00     0.000 C 
HETATM   27  C15 UNL     1       0.563 -12.413  -1.621  1.00  0.00     0.002 C 
HETATM   28  C16 UNL     1       0.434 -11.022  -1.119  1.00  0.00     0.025 C 
ENDBRANCH   5  21
TORSDOF 8
ENDMDL
MODEL 3
REMARK VINA RESULT: -6.769911591      3.039      5.361
REMARK  8 active torsions:
REMARK  status: ('A' for Active; 'I' for Inactive)
REMARK       I    between atoms: C1_2  and  N5_19 
REMARK    1  A    between atoms: N2_3  and  C2_5 
REMARK    2  A    between atoms: C2_5  and  C3_6 
REMARK    3  A    between atoms: C3_6  and  C4_7 
REMARK    4  A    between atoms: C4_7  and  N3_8 
REMARK       I    between atoms: N3_8  and  C5_10 
REMARK    5  A    between atoms: C5_10  and  C6_12 
REMARK    6  A    between atoms: C6_12  and  N4_13 
REMARK       I    between atoms: N4_13  and  C7_15 
REMARK    7  A    between atoms: C7_15  and  C8_17 
REMARK    8  A    between atoms: N5_19  and  C9_21 
ROOT
HETATM    1  N1  UNL     1       5.423 -10.571   4.124  1.00  0.00    -0.064 NA
HETATM    2  C1  UNL     1       4.159 -11.034   3.690  1.00  0.00     0.184 C 
HETATM    3  N2  UNL     1       3.299 -11.400   4.563  1.00  0.00    -0.365 N 
ATOM      4  H2  UNL     1       3.556 -11.345   5.549  1.00  0.00     0.162 HD
HETATM    5  N5  UNL     1       3.828 -11.100   2.318  1.00  0.00    -0.360 N 
ATOM      6  H5  UNL     1       2.844 -11.149   2.052  1.00  0.00     0.162 HD
ENDROOT
BRANCH   3   7
HETATM    7  C2  UNL     1       1.976 -11.890   4.223  1.00  0.00     0.123 C 
BRANCH   7   8
HETATM    8  C3  UNL     1       0.901 -10.980   4.832  1.00  0.00     0.039 C 
BRANCH   8   9
HETATM    9  C4  UNL     1       0.938  -9.660   4.116  1.00  0.00     0.124 C 
BRANCH   9  10
HETATM   10  N3  UNL     1       0.312  -9.757   2.828  1.00  0.00    -0.360 N 
HETATM   11  C5  UNL     1       0.947  -9.313   1.650  1.00  0.00     0.235 C 
HETATM   12  O1  UNL     1       2.112  -8.783   1.696  1.00  0.00    -0.272 OA
ATOM     13  H3  UNL     1      -0.622 -10.160   2.763  1.00  0.00     0.162 HD
BRANCH  11  14
HETATM   14  C6  UNL     1       0.369  -9.398   0.298  1.00  0.00     0.225 C 
BRANCH  14  15
HETATM   15  N4  UNL     1       1.100 -10.236  -0.590  1.00  0.00    -0.352 N 
HETATM   16  C7  UNL     1       0.480 -10.989  -1.621  1.00  0.00     0.227 C 
HETATM   17  O2  UNL     1      -0.756 -10.973  -1.814  1.00  0.00    -0.273 OA
ATOM     18  H4  UNL     1       2.112 -10.299  -0.481  1.00  0.00     0.162 HD
BRANCH  16  19
HETATM   19  C8  UNL     1       1.285 -11.856  -2.547  1.00  0.00     0.187 C 
HETATM   20 BR1  UNL     1       1.286 -13.635  -1.824  1.00  0.00    -0.087 Br
ENDBRANCH  16  19
ENDBRANCH  14  15
ENDBRANCH  11  14
ENDBRANCH   9  10
ENDBRANCH   8   9
ENDBRANCH   7   8
ENDBRANCH   3   7
BRANCH   5  21
HETATM   21  C9  UNL     1       4.841 -11.103   1.268  1.00  0.00     0.084 C 
HETATM   22  C10 UNL     1       5.717 -12.279   1.461  1.00  0.00     0.025 C 
HETATM   23  C11 UNL     1       7.173 -12.050   1.246  1.00  0.00     0.002 C 
HETATM   24  C12 UNL     1       7.546 -10.816   0.512  1.00  0.00     0.000 C 
HETATM   25  C13 UNL     1       6.913 -10.615  -0.819  1.00  0.00     0.000 C 
HETATM   26  C14 UNL     1       6.212 -11.782  -1.398  1.00  0.00     0.000 C 
HETATM   27  C15 UNL     1       4.742 -11.849  -1.145  1.00  0.00     0.002 C 
HETATM   28  C16 UNL     1       4.221 -10.962  -0.076  1.00  0.00     0.025 C 
ENDBRANCH   5  21
TORSDOF 8
ENDMDL
MODEL 4
REMARK VINA RESULT: -6.768746085      2.316      5.463
REMARK  8 active torsions:
REMARK  status: ('A' for Active; 'I' for Inactive)
REMARK       I    between atoms: C1_2  and  N5_19 
REMARK    1  A    between atoms: N2_3  and  C2_5 
REMARK    2  A    between atoms: C2_5  and  C3_6 
REMARK    3  A    between atoms: C3_6  and  C4_7 
REMARK    4  A    between atoms: C4_7  and  N3_8 
REMARK       I    between atoms: N3_8  and  C5_10 
REMARK    5  A    between atoms: C5_10  and  C6_12 
REMARK    6  A    between atoms: C6_12  and  N4_13 
REMARK       I    between atoms: N4_13  and  C7_15 
REMARK    7  A    between atoms: C7_15  and  C8_17 
REMARK    8  A    between atoms: N5_19  and  C9_21 
ROOT
HETATM    1  N1  UNL     1       1.457  -8.702  -0.256  1.00  0.00    -0.064 NA
HETATM    2  C1  UNL     1       1.255 -10.095  -0.398  1.00  0.00     0.184 C 
HETATM    3  N2  UNL     1       0.830 -10.549  -1.516  1.00  0.00    -0.365 N 
ATOM      4  H2  UNL     1       0.650  -9.886  -2.271  1.00  0.00     0.162 HD
HETATM    5  N5  UNL     1       1.512 -10.991   0.663  1.00  0.00    -0.360 N 
ATOM      6  H5  UNL     1       1.643 -11.980   0.450  1.00  0.00     0.162 HD
ENDROOT
BRANCH   3   7
HETATM    7  C2  UNL     1       0.590 -11.958  -1.766  1.00  0.00     0.123 C 
BRANCH   7   8
HETATM    8  C3  UNL     1       1.787 -12.577  -2.500  1.00  0.00     0.039 C 
BRANCH   8   9
HETATM    9  C4  UNL     1       2.564 -11.471  -3.155  1.00  0.00     0.124 C 
BRANCH   9  10
HETATM   10  N3  UNL     1       3.897 -11.399  -2.629  1.00  0.00    -0.360 N 
HETATM   11  C5  UNL     1       5.029 -11.300  -3.464  1.00  0.00     0.235 C 
HETATM   12  O1  UNL     1       4.902 -11.290  -4.739  1.00  0.00    -0.272 OA
ATOM     13  H3  UNL     1       4.031 -11.421  -1.618  1.00  0.00     0.162 HD
BRANCH  11  14
HETATM   14  C6  UNL     1       6.421 -11.206  -2.991  1.00  0.00     0.225 C 
BRANCH  14  15
HETATM   15  N4  UNL     1       6.559 -11.326  -1.579  1.00  0.00    -0.352 N 
HETATM   16  C7  UNL     1       7.813 -11.512  -0.943  1.00  0.00     0.227 C 
HETATM   17  O2  UNL     1       8.886 -11.594  -1.583  1.00  0.00    -0.273 OA
ATOM     18  H4  UNL     1       5.721 -11.276  -1.000  1.00  0.00     0.162 HD
BRANCH  16  19
HETATM   19  C8  UNL     1       7.922 -11.624   0.551  1.00  0.00     0.187 C 
HETATM   20 BR1  UNL     1       6.204 -12.158   1.222  1.00  0.00    -0.087 Br
ENDBRANCH  16  19
ENDBRANCH  14  15
ENDBRANCH  11  14
ENDBRANCH   9  10
ENDBRANCH   8   9
ENDBRANCH   7   8
ENDBRANCH   3   7
BRANCH   5  21
HETATM   21  C9  UNL     1       1.596 -10.555   2.053  1.00  0.00     0.084 C 
HETATM   22  C10 UNL     1       0.634 -11.344   2.853  1.00  0.00     0.025 C 
HETATM   23  C11 UNL     1      -0.130 -10.590   3.886  1.00  0.00     0.002 C 
HETATM   24  C12 UNL     1       0.406  -9.258   4.260  1.00  0.00     0.000 C 
HETATM   25  C13 UNL     1       1.824  -9.209   4.702  1.00  0.00     0.000 C 
HETATM   26  C14 UNL     1       2.467 -10.508   5.000  1.00  0.00     0.000 C 
HETATM   27  C15 UNL     1       3.245 -11.121   3.883  1.00  0.00     0.002 C 
HETATM   28  C16 UNL     1       3.003 -10.557   2.532  1.00  0.00     0.025 C 
ENDBRANCH   5  21
TORSDOF 8
ENDMDL
MODEL 5
REMARK VINA RESULT: -6.766350875      1.163      1.243
REMARK  8 active torsions:
REMARK  status: ('A' for Active; 'I' for Inactive)
REMARK       I    between atoms: C1_2  and  N5_19 
REMARK    1  A    between atoms: N2_3  and  C2_5 
REMARK    2  A    between atoms: C2_5  and  C3_6 
REMARK    3  A    between atoms: C3_6  and  C4_7 
REMARK    4  A    between atoms: C4_7  and  N3_8 
REMARK       I    between atoms: N3_8  and  C5_10 
REMARK    5  A    between atoms: C5_10  and  C6_12 
REMARK    6  A    between atoms: C6_12  and  N4_13 
REMARK       I    between atoms: N4_13  and  C7_15 
REMARK    7  A    between atoms: C7_15  and  C8_17 
REMARK    8  A    between atoms: N5_19  and  C9_21 
ROOT
HETATM    1  N1  UNL     1       1.737  -7.651   0.088  1.00  0.00    -0.064 NA
HETATM    2  C1  UNL     1       1.389  -8.552   1.121  1.00  0.00     0.184 C 
HETATM    3  N2  UNL     1       1.317  -8.120   2.323  1.00  0.00    -0.365 N 
ATOM      4  H2  UNL     1       1.515  -7.134   2.496  1.00  0.00     0.162 HD
HETATM    5  N5  UNL     1       1.120  -9.914   0.854  1.00  0.00    -0.360 N 
ATOM      6  H5  UNL     1       0.597 -10.454   1.543  1.00  0.00     0.162 HD
ENDROOT
BRANCH   3   7
HETATM    7  C2  UNL     1       0.969  -8.961   3.453  1.00  0.00     0.123 C 
BRANCH   7   8
HETATM    8  C3  UNL     1       2.211  -9.235   4.312  1.00  0.00     0.039 C 
BRANCH   8   9
HETATM    9  C4  UNL     1       2.687 -10.631   4.023  1.00  0.00     0.124 C 
BRANCH   9  10
HETATM   10  N3  UNL     1       4.038 -10.623   3.542  1.00  0.00    -0.360 N 
HETATM   11  C5  UNL     1       5.142 -10.791   4.404  1.00  0.00     0.235 C 
HETATM   12  O1  UNL     1       4.970 -10.938   5.665  1.00  0.00    -0.272 OA
ATOM     13  H3  UNL     1       4.207 -10.492   2.545  1.00  0.00     0.162 HD
BRANCH  11  14
HETATM   14  C6  UNL     1       6.551 -10.809   3.976  1.00  0.00     0.225 C 
BRANCH  14  15
HETATM   15  N4  UNL     1       6.754 -11.374   2.685  1.00  0.00    -0.352 N 
HETATM   16  C7  UNL     1       7.743 -10.899   1.786  1.00  0.00     0.227 C 
HETATM   17  O2  UNL     1       8.501  -9.942   2.064  1.00  0.00    -0.273 OA
ATOM     18  H4  UNL     1       6.163 -12.153   2.394  1.00  0.00     0.162 HD
BRANCH  16  19
HETATM   19  C8  UNL     1       7.937 -11.527   0.435  1.00  0.00     0.187 C 
HETATM   20 BR1  UNL     1       9.818 -11.831   0.199  1.00  0.00    -0.087 Br
ENDBRANCH  16  19
ENDBRANCH  14  15
ENDBRANCH  11  14
ENDBRANCH   9  10
ENDBRANCH   8   9
ENDBRANCH   7   8
ENDBRANCH   3   7
BRANCH   5  21
HETATM   21  C9  UNL     1       1.562 -10.574  -0.369  1.00  0.00     0.084 C 
HETATM   22  C10 UNL     1       2.671 -11.495  -0.032  1.00  0.00     0.025 C 
HETATM   23  C11 UNL     1       3.808 -11.525  -0.994  1.00  0.00     0.002 C 
HETATM   24  C12 UNL     1       3.553 -10.946  -2.335  1.00  0.00     0.000 C 
HETATM   25  C13 UNL     1       2.387 -11.485  -3.084  1.00  0.00     0.000 C 
HETATM   26  C14 UNL     1       1.779 -12.724  -2.554  1.00  0.00     0.000 C 
HETATM   27  C15 UNL     1       0.611 -12.538  -1.643  1.00  0.00     0.002 C 
HETATM   28  C16 UNL     1       0.415 -11.171  -1.101  1.00  0.00     0.025 C 
ENDBRANCH   5  21
TORSDOF 8
ENDMDL
