MODEL 1
REMARK VINA RESULT: -8.122311608      0.000      0.000
REMARK  7 active torsions:
REMARK  status: ('A' for Active; 'I' for Inactive)
REMARK    1  A    between atoms: C2_2  and  C3_4 
REMARK    2  A    between atoms: C8_9  and  C9_10 
REMARK       I    between atoms: C9_10  and  N1_12 
REMARK    3  A    between atoms: N2_15  and  C12_16 
REMARK    4  A    between atoms: C12_16  and  C13_17 
REMARK    5  A    between atoms: C13_17  and  C14_18 
REMARK    6  A    between atoms: N3_20  and  O3_22 
REMARK    7  A    between atoms: C17_25  and  O4_26 
ROOT
HETATM    1  C3  UNL     1      -5.329   2.485  15.671  1.00  0.00    -0.002 C 
HETATM    2  C4  UNL     1      -5.771   3.747  15.502  1.00  0.00    -0.073 C 
HETATM    3  C5  UNL     1      -6.821   4.424  16.268  1.00  0.00     0.044 C 
HETATM    4  C6  UNL     1      -5.000   4.384  14.384  1.00  0.00     0.041 C 
HETATM    5  C7  UNL     1      -4.638   3.171  13.606  1.00  0.00     0.018 C 
HETATM    6  C8  UNL     1      -3.812   3.340  12.402  1.00  0.00     0.112 C 
HETATM    7  C17 UNL     1      -3.271   1.959  12.081  1.00  0.00     0.131 C 
HETATM    8  C18 UNL     1      -4.263   0.886  12.559  1.00  0.00     0.034 C 
HETATM    9  C19 UNL     1      -4.340   0.826  14.071  1.00  0.00     0.017 C 
HETATM   10  C20 UNL     1      -4.242   2.208  14.659  1.00  0.00    -0.008 C 
HETATM   11  C21 UNL     1      -2.951   2.454  15.363  1.00  0.00     0.021 C 
ENDROOT
BRANCH   6  12
HETATM   12  C9  UNL     1      -2.765   4.326  12.413  1.00  0.00     0.228 C 
HETATM   13  O2  UNL     1      -1.753   4.307  13.210  1.00  0.00    -0.273 OA
HETATM   14  N1  UNL     1      -2.743   5.413  11.548  1.00  0.00    -0.324 N 
HETATM   15  C10 UNL     1      -3.706   5.772  10.546  1.00  0.00     0.158 C 
HETATM   16  C16 UNL     1      -1.723   6.486  11.452  1.00  0.00     0.400 C 
HETATM   17  C11 UNL     1      -3.757   7.294  10.590  1.00  0.00     0.294 C 
HETATM   18  N2  UNL     1      -2.463   7.655  11.059  1.00  0.00     0.107 N 
BRANCH  18  19
HETATM   19  C12 UNL     1      -2.531   8.659  12.076  1.00  0.00     0.280 C 
BRANCH  19  20
HETATM   20  C13 UNL     1      -1.441   8.451  13.089  1.00  0.00     0.084 C 
BRANCH  20  21
HETATM   21  C14 UNL     1      -1.959   8.367  14.470  1.00  0.00     0.007 C 
HETATM   22  C15 UNL     1      -3.105   7.466  14.827  1.00  0.00     0.065 C 
HETATM   23  N3  UNL     1      -1.434   9.085  15.395  1.00  0.00    -0.278 N 
ATOM     24  H3  UNL     1      -1.800   9.017  16.344  1.00  0.00     0.193 HD
BRANCH  23  25
HETATM   25  O3  UNL     1      -0.404   9.933  15.141  1.00  0.00    -0.290 OA
ATOM     26  H3  UNL     1      -0.551  10.807  14.797  1.00  0.00     0.244 HD
ENDBRANCH  23  25
ENDBRANCH  20  21
ENDBRANCH  19  20
ENDBRANCH  18  19
ENDBRANCH   6  12
BRANCH   7  27
HETATM   27  O4  UNL     1      -3.159   1.720  10.705  1.00  0.00    -0.395 OA
ATOM     28  H4  UNL     1      -2.480   2.241  10.293  1.00  0.00     0.210 HD
ENDBRANCH   7  27
BRANCH   1  29
HETATM   29  C2  UNL     1      -5.855   1.598  16.673  1.00  0.00     0.152 C 
HETATM   30  C1  UNL     1      -7.283   1.307  16.933  1.00  0.00     0.096 C 
HETATM   31  O1  UNL     1      -5.031   0.978  17.438  1.00  0.00    -0.293 OA
ENDBRANCH   1  29
TORSDOF 7
ENDMDL
MODEL 2
REMARK VINA RESULT: -7.887569381      1.071      1.209
REMARK  7 active torsions:
REMARK  status: ('A' for Active; 'I' for Inactive)
REMARK    1  A    between atoms: C2_2  and  C3_4 
REMARK    2  A    between atoms: C8_9  and  C9_10 
REMARK       I    between atoms: C9_10  and  N1_12 
REMARK    3  A    between atoms: N2_15  and  C12_16 
REMARK    4  A    between atoms: C12_16  and  C13_17 
REMARK    5  A    between atoms: C13_17  and  C14_18 
REMARK    6  A    between atoms: N3_20  and  O3_22 
REMARK    7  A    between atoms: C17_25  and  O4_26 
ROOT
HETATM    1  C3  UNL     1      -5.332   2.446  15.645  1.00  0.00    -0.002 C 
HETATM    2  C4  UNL     1      -5.763   3.709  15.449  1.00  0.00    -0.073 C 
HETATM    3  C5  UNL     1      -6.802   4.413  16.205  1.00  0.00     0.044 C 
HETATM    4  C6  UNL     1      -4.993   4.312  14.312  1.00  0.00     0.041 C 
HETATM    5  C7  UNL     1      -4.646   3.078  13.561  1.00  0.00     0.018 C 
HETATM    6  C8  UNL     1      -3.827   3.211  12.348  1.00  0.00     0.112 C 
HETATM    7  C17 UNL     1      -3.300   1.817  12.057  1.00  0.00     0.131 C 
HETATM    8  C18 UNL     1      -4.299   0.765  12.566  1.00  0.00     0.034 C 
HETATM    9  C19 UNL     1      -4.367   0.741  14.079  1.00  0.00     0.017 C 
HETATM   10  C20 UNL     1      -4.253   2.136  14.634  1.00  0.00    -0.008 C 
HETATM   11  C21 UNL     1      -2.956   2.387  15.324  1.00  0.00     0.021 C 
ENDROOT
BRANCH   6  12
HETATM   12  C9  UNL     1      -2.771   4.187  12.330  1.00  0.00     0.228 C 
HETATM   13  O2  UNL     1      -1.615   4.022  12.874  1.00  0.00    -0.273 OA
HETATM   14  N1  UNL     1      -2.898   5.425  11.711  1.00  0.00    -0.324 N 
HETATM   15  C10 UNL     1      -4.039   5.964  11.027  1.00  0.00     0.158 C 
HETATM   16  C16 UNL     1      -1.888   6.507  11.613  1.00  0.00     0.400 C 
HETATM   17  C11 UNL     1      -4.032   7.446  11.379  1.00  0.00     0.294 C 
HETATM   18  N2  UNL     1      -2.657   7.721  11.624  1.00  0.00     0.107 N 
BRANCH  18  19
HETATM   19  C12 UNL     1      -2.479   8.503  12.809  1.00  0.00     0.280 C 
BRANCH  19  20
HETATM   20  C13 UNL     1      -1.316   7.983  13.606  1.00  0.00     0.084 C 
BRANCH  20  21
HETATM   21  C14 UNL     1      -0.355   9.045  13.966  1.00  0.00     0.007 C 
HETATM   22  C15 UNL     1      -0.616   9.991  15.102  1.00  0.00     0.065 C 
HETATM   23  N3  UNL     1       0.728   9.183  13.292  1.00  0.00    -0.278 N 
ATOM     24  H3  UNL     1       1.384   9.920  13.551  1.00  0.00     0.193 HD
BRANCH  23  25
HETATM   25  O3  UNL     1       1.023   8.374  12.242  1.00  0.00    -0.290 OA
ATOM     26  H3  UNL     1       1.067   8.706  11.353  1.00  0.00     0.244 HD
ENDBRANCH  23  25
ENDBRANCH  20  21
ENDBRANCH  19  20
ENDBRANCH  18  19
ENDBRANCH   6  12
BRANCH   7  27
HETATM   27  O4  UNL     1      -3.198   1.546  10.686  1.00  0.00    -0.395 OA
ATOM     28  H4  UNL     1      -3.574   2.229  10.144  1.00  0.00     0.210 HD
ENDBRANCH   7  27
BRANCH   1  29
HETATM   29  C2  UNL     1      -5.860   1.588  16.671  1.00  0.00     0.152 C 
HETATM   30  C1  UNL     1      -7.289   1.321  16.950  1.00  0.00     0.096 C 
HETATM   31  O1  UNL     1      -5.036   0.974  17.442  1.00  0.00    -0.293 OA
ENDBRANCH   1  29
TORSDOF 7
ENDMDL
MODEL 3
REMARK VINA RESULT: -7.829754017      0.943      1.061
REMARK  7 active torsions:
REMARK  status: ('A' for Active; 'I' for Inactive)
REMARK    1  A    between atoms: C2_2  and  C3_4 
REMARK    2  A    between atoms: C8_9  and  C9_10 
REMARK       I    between atoms: C9_10  and  N1_12 
REMARK    3  A    between atoms: N2_15  and  C12_16 
REMARK    4  A    between atoms: C12_16  and  C13_17 
REMARK    5  A    between atoms: C13_17  and  C14_18 
REMARK    6  A    between atoms: N3_20  and  O3_22 
REMARK    7  A    between atoms: C17_25  and  O4_26 
ROOT
HETATM    1  C3  UNL     1      -5.339   2.459  15.624  1.00  0.00    -0.002 C 
HETATM    2  C4  UNL     1      -5.790   3.711  15.408  1.00  0.00    -0.073 C 
HETATM    3  C5  UNL     1      -6.845   4.408  16.149  1.00  0.00     0.044 C 
HETATM    4  C6  UNL     1      -5.023   4.312  14.268  1.00  0.00     0.041 C 
HETATM    5  C7  UNL     1      -4.651   3.075  13.536  1.00  0.00     0.018 C 
HETATM    6  C8  UNL     1      -3.826   3.206  12.327  1.00  0.00     0.112 C 
HETATM    7  C17 UNL     1      -3.274   1.817  12.057  1.00  0.00     0.131 C 
HETATM    8  C18 UNL     1      -4.259   0.755  12.574  1.00  0.00     0.034 C 
HETATM    9  C19 UNL     1      -4.336   0.750  14.087  1.00  0.00     0.017 C 
HETATM   10  C20 UNL     1      -4.248   2.154  14.624  1.00  0.00    -0.008 C 
HETATM   11  C21 UNL     1      -2.961   2.436  15.318  1.00  0.00     0.021 C 
ENDROOT
BRANCH   6  12
HETATM   12  C9  UNL     1      -2.787   4.199  12.302  1.00  0.00     0.228 C 
HETATM   13  O2  UNL     1      -1.835   4.282  13.167  1.00  0.00    -0.273 OA
HETATM   14  N1  UNL     1      -2.706   5.183  11.324  1.00  0.00    -0.324 N 
HETATM   15  C10 UNL     1      -3.595   5.415  10.221  1.00  0.00     0.158 C 
HETATM   16  C16 UNL     1      -1.687   6.251  11.181  1.00  0.00     0.400 C 
HETATM   17  C11 UNL     1      -3.656   6.932  10.090  1.00  0.00     0.294 C 
HETATM   18  N2  UNL     1      -2.400   7.358  10.607  1.00  0.00     0.107 N 
BRANCH  18  19
HETATM   19  C12 UNL     1      -2.547   8.469  11.497  1.00  0.00     0.280 C 
BRANCH  19  20
HETATM   20  C13 UNL     1      -1.468   8.446  12.543  1.00  0.00     0.084 C 
BRANCH  20  21
HETATM   21  C14 UNL     1      -1.915   9.013  13.831  1.00  0.00     0.007 C 
HETATM   22  C15 UNL     1      -1.673  10.452  14.184  1.00  0.00     0.065 C 
HETATM   23  N3  UNL     1      -2.514   8.266  14.686  1.00  0.00    -0.278 N 
ATOM     24  H3  UNL     1      -2.818   8.671  15.571  1.00  0.00     0.193 HD
BRANCH  23  25
HETATM   25  O3  UNL     1      -2.753   6.952  14.441  1.00  0.00    -0.290 OA
ATOM     26  H3  UNL     1      -3.635   6.599  14.434  1.00  0.00     0.244 HD
ENDBRANCH  23  25
ENDBRANCH  20  21
ENDBRANCH  19  20
ENDBRANCH  18  19
ENDBRANCH   6  12
BRANCH   7  27
HETATM   27  O4  UNL     1      -3.159   1.529  10.691  1.00  0.00    -0.395 OA
ATOM     28  H4  UNL     1      -3.639   0.751  10.434  1.00  0.00     0.210 HD
ENDBRANCH   7  27
BRANCH   1  29
HETATM   29  C2  UNL     1      -5.859   1.606  16.659  1.00  0.00     0.152 C 
HETATM   30  C1  UNL     1      -7.284   1.301  16.919  1.00  0.00     0.096 C 
HETATM   31  O1  UNL     1      -5.031   1.033  17.455  1.00  0.00    -0.293 OA
ENDBRANCH   1  29
TORSDOF 7
ENDMDL
MODEL 4
REMARK VINA RESULT: -7.785584341      0.683      1.063
REMARK  7 active torsions:
REMARK  status: ('A' for Active; 'I' for Inactive)
REMARK    1  A    between atoms: C2_2  and  C3_4 
REMARK    2  A    between atoms: C8_9  and  C9_10 
REMARK       I    between atoms: C9_10  and  N1_12 
REMARK    3  A    between atoms: N2_15  and  C12_16 
REMARK    4  A    between atoms: C12_16  and  C13_17 
REMARK    5  A    between atoms: C13_17  and  C14_18 
REMARK    6  A    between atoms: N3_20  and  O3_22 
REMARK    7  A    between atoms: C17_25  and  O4_26 
ROOT
HETATM    1  C3  UNL     1      -5.323   2.457  15.644  1.00  0.00    -0.002 C 
HETATM    2  C4  UNL     1      -5.750   3.721  15.443  1.00  0.00    -0.073 C 
HETATM    3  C5  UNL     1      -6.790   4.429  16.194  1.00  0.00     0.044 C 
HETATM    4  C6  UNL     1      -4.973   4.319  14.308  1.00  0.00     0.041 C 
HETATM    5  C7  UNL     1      -4.627   3.082  13.561  1.00  0.00     0.018 C 
HETATM    6  C8  UNL     1      -3.802   3.211  12.352  1.00  0.00     0.112 C 
HETATM    7  C17 UNL     1      -3.278   1.814  12.066  1.00  0.00     0.131 C 
HETATM    8  C18 UNL     1      -4.283   0.766  12.573  1.00  0.00     0.034 C 
HETATM    9  C19 UNL     1      -4.357   0.746  14.086  1.00  0.00     0.017 C 
HETATM   10  C20 UNL     1      -4.241   2.142  14.638  1.00  0.00    -0.008 C 
HETATM   11  C21 UNL     1      -2.947   2.389  15.333  1.00  0.00     0.021 C 
ENDROOT
BRANCH   6  12
HETATM   12  C9  UNL     1      -2.743   4.183  12.336  1.00  0.00     0.228 C 
HETATM   13  O2  UNL     1      -1.615   4.043  12.943  1.00  0.00    -0.273 OA
HETATM   14  N1  UNL     1      -2.835   5.388  11.652  1.00  0.00    -0.324 N 
HETATM   15  C10 UNL     1      -3.940   5.895  10.887  1.00  0.00     0.158 C 
HETATM   16  C16 UNL     1      -1.818   6.463  11.549  1.00  0.00     0.400 C 
HETATM   17  C11 UNL     1      -3.945   7.392  11.165  1.00  0.00     0.294 C 
HETATM   18  N2  UNL     1      -2.582   7.678  11.462  1.00  0.00     0.107 N 
BRANCH  18  19
HETATM   19  C12 UNL     1      -2.458   8.517  12.614  1.00  0.00     0.280 C 
BRANCH  19  20
HETATM   20  C13 UNL     1      -1.317   8.055  13.476  1.00  0.00     0.084 C 
BRANCH  20  21
HETATM   21  C14 UNL     1      -0.363   9.140  13.783  1.00  0.00     0.007 C 
HETATM   22  C15 UNL     1       0.624   9.632  12.765  1.00  0.00     0.065 C 
HETATM   23  N3  UNL     1      -0.357   9.675  14.949  1.00  0.00    -0.278 N 
ATOM     24  H3  UNL     1       0.307  10.423  15.149  1.00  0.00     0.193 HD
BRANCH  23  25
HETATM   25  O3  UNL     1      -1.210   9.269  15.925  1.00  0.00    -0.290 OA
ATOM     26  H3  UNL     1      -1.203   8.379  16.256  1.00  0.00     0.244 HD
ENDBRANCH  23  25
ENDBRANCH  20  21
ENDBRANCH  19  20
ENDBRANCH  18  19
ENDBRANCH   6  12
BRANCH   7  27
HETATM   27  O4  UNL     1      -3.172   1.540  10.696  1.00  0.00    -0.395 OA
ATOM     28  H4  UNL     1      -2.452   0.955  10.490  1.00  0.00     0.210 HD
ENDBRANCH   7  27
BRANCH   1  29
HETATM   29  C2  UNL     1      -5.858   1.603  16.669  1.00  0.00     0.152 C 
HETATM   30  C1  UNL     1      -7.287   1.302  16.912  1.00  0.00     0.096 C 
HETATM   31  O1  UNL     1      -5.042   1.025  17.475  1.00  0.00    -0.293 OA
ENDBRANCH   1  29
TORSDOF 7
ENDMDL
MODEL 5
REMARK VINA RESULT: -7.713557283      1.859      2.169
REMARK  7 active torsions:
REMARK  status: ('A' for Active; 'I' for Inactive)
REMARK    1  A    between atoms: C2_2  and  C3_4 
REMARK    2  A    between atoms: C8_9  and  C9_10 
REMARK       I    between atoms: C9_10  and  N1_12 
REMARK    3  A    between atoms: N2_15  and  C12_16 
REMARK    4  A    between atoms: C12_16  and  C13_17 
REMARK    5  A    between atoms: C13_17  and  C14_18 
REMARK    6  A    between atoms: N3_20  and  O3_22 
REMARK    7  A    between atoms: C17_25  and  O4_26 
ROOT
HETATM    1  C3  UNL     1      -5.404   2.548  15.669  1.00  0.00    -0.002 C 
HETATM    2  C4  UNL     1      -5.756   3.798  15.304  1.00  0.00    -0.073 C 
HETATM    3  C5  UNL     1      -6.812   4.624  15.895  1.00  0.00     0.044 C 
HETATM    4  C6  UNL     1      -4.873   4.238  14.175  1.00  0.00     0.041 C 
HETATM    5  C7  UNL     1      -4.533   2.915  13.591  1.00  0.00     0.018 C 
HETATM    6  C8  UNL     1      -3.619   2.879  12.441  1.00  0.00     0.112 C 
HETATM    7  C17 UNL     1      -3.142   1.440  12.345  1.00  0.00     0.131 C 
HETATM    8  C18 UNL     1      -4.228   0.494  12.882  1.00  0.00     0.034 C 
HETATM    9  C19 UNL     1      -4.411   0.641  14.379  1.00  0.00     0.017 C 
HETATM   10  C20 UNL     1      -4.269   2.083  14.787  1.00  0.00    -0.008 C 
HETATM   11  C21 UNL     1      -3.017   2.355  15.548  1.00  0.00     0.021 C 
ENDROOT
BRANCH   6  12
HETATM   12  C9  UNL     1      -2.517   3.802  12.402  1.00  0.00     0.228 C 
HETATM   13  O2  UNL     1      -1.745   4.059  13.402  1.00  0.00    -0.273 OA
HETATM   14  N1  UNL     1      -2.172   4.518  11.263  1.00  0.00    -0.324 N 
HETATM   15  C10 UNL     1      -2.812   4.508   9.978  1.00  0.00     0.158 C 
HETATM   16  C16 UNL     1      -1.061   5.486  11.092  1.00  0.00     0.400 C 
HETATM   17  C11 UNL     1      -2.724   5.949   9.494  1.00  0.00     0.294 C 
HETATM   18  N2  UNL     1      -1.560   6.446  10.145  1.00  0.00     0.107 N 
BRANCH  18  19
HETATM   19  C12 UNL     1      -1.783   7.743  10.708  1.00  0.00     0.280 C 
BRANCH  19  20
HETATM   20  C13 UNL     1      -3.257   8.025  10.799  1.00  0.00     0.084 C 
BRANCH  20  21
HETATM   21  C14 UNL     1      -3.852   7.534  12.058  1.00  0.00     0.007 C 
HETATM   22  C15 UNL     1      -3.091   7.557  13.350  1.00  0.00     0.065 C 
HETATM   23  N3  UNL     1      -5.044   7.059  12.059  1.00  0.00    -0.278 N 
ATOM     24  H3  UNL     1      -5.444   6.724  12.935  1.00  0.00     0.193 HD
BRANCH  23  25
HETATM   25  O3  UNL     1      -5.786   6.993  10.923  1.00  0.00    -0.290 OA
ATOM     26  H3  UNL     1      -6.380   7.691  10.674  1.00  0.00     0.244 HD
ENDBRANCH  23  25
ENDBRANCH  20  21
ENDBRANCH  19  20
ENDBRANCH  18  19
ENDBRANCH   6  12
BRANCH   7  27
HETATM   27  O4  UNL     1      -2.951   1.014  11.024  1.00  0.00    -0.395 OA
ATOM     28  H4  UNL     1      -3.301   0.147  10.860  1.00  0.00     0.210 HD
ENDBRANCH   7  27
BRANCH   1  29
HETATM   29  C2  UNL     1      -6.050   1.832  16.736  1.00  0.00     0.152 C 
HETATM   30  C1  UNL     1      -5.879   2.067  18.188  1.00  0.00     0.096 C 
HETATM   31  O1  UNL     1      -6.865   0.887  16.435  1.00  0.00    -0.293 OA
ENDBRANCH   1  29
TORSDOF 7
ENDMDL
