MODEL 1
REMARK VINA RESULT: -7.662792463      0.000      0.000
REMARK  5 active torsions:
REMARK  status: ('A' for Active; 'I' for Inactive)
REMARK    1  A    between atoms: C2_2  and  O1_3 
REMARK    2  A    between atoms: O1_3  and  N1_4 
REMARK    3  A    between atoms: C10_18  and  S1_19 
REMARK    4  A    between atoms: S1_19  and  C11_20 
REMARK    5  A    between atoms: C11_20  and  C12_21 
REMARK       I    between atoms: C12_21  and  N4_23 
REMARK       I    between atoms: N5_26  and  C15_27 
ROOT
HETATM    1  N1  UNL     1       1.362   4.866  10.758  1.00  0.00    -0.254 N 
ATOM      2  H1  UNL     1       1.239   3.855  10.804  1.00  0.00     0.195 HD
HETATM    3  C3  UNL     1       0.712   5.515   9.852  1.00  0.00     0.113 C 
HETATM    4  N2  UNL     1       0.880   6.925   9.783  1.00  0.00    -0.377 N 
ATOM      5  H2  UNL     1       1.234   7.342  10.644  1.00  0.00     0.160 HD
HETATM    6  C4  UNL     1       0.646   7.869   8.732  1.00  0.00     0.121 C 
HETATM    7  C5  UNL     1       0.099   7.271   7.476  1.00  0.00     0.025 C 
HETATM    8  C6  UNL     1       0.876   6.086   6.974  1.00  0.00     0.055 C 
HETATM    9  C7  UNL     1       0.414   4.812   7.599  1.00  0.00    -0.003 C 
HETATM   10  N3  UNL     1       0.536   3.797   6.864  1.00  0.00    -0.405 N 
ATOM     11  H31 UNL     1       0.220   2.926   7.292  1.00  0.00     0.155 HD
ATOM     12  H32 UNL     1       0.922   3.873   5.924  1.00  0.00     0.155 HD
HETATM   13  C8  UNL     1      -0.150   4.701   8.971  1.00  0.00     0.071 A 
HETATM   14  C9  UNL     1      -1.637   4.804   9.029  1.00  0.00     0.041 A 
HETATM   15  C10 UNL     1      -0.896   3.532   9.430  1.00  0.00     0.071 A 
ENDROOT
BRANCH  15  16
HETATM   16  S1  UNL     1      -0.994   3.090  11.160  1.00  0.00    -0.153 SA
BRANCH  16  17
HETATM   17  C11 UNL     1      -2.540   2.212  11.469  1.00  0.00     0.177 C 
BRANCH  17  18
HETATM   18  C12 UNL     1      -3.506   3.009  12.232  1.00  0.00     0.229 C 
HETATM   19  O2  UNL     1      -3.622   4.235  11.982  1.00  0.00    -0.273 OA
HETATM   20  N4  UNL     1      -4.335   2.466  13.256  1.00  0.00    -0.348 N 
HETATM   21  C13 UNL     1      -4.234   1.068  13.579  1.00  0.00     0.145 C 
HETATM   22  C18 UNL     1      -5.283   3.279  13.987  1.00  0.00     0.145 C 
HETATM   23  C14 UNL     1      -4.131   0.856  15.091  1.00  0.00     0.145 C 
HETATM   24  N5  UNL     1      -5.028   1.732  15.796  1.00  0.00    -0.349 N 
HETATM   25  C15 UNL     1      -5.867   1.165  16.796  1.00  0.00     0.215 C 
HETATM   26  C17 UNL     1      -5.052   3.134  15.477  1.00  0.00     0.145 C 
HETATM   27  C16 UNL     1      -6.798   2.092  17.522  1.00  0.00     0.117 C 
HETATM   28  O3  UNL     1      -5.848  -0.059  17.076  1.00  0.00    -0.274 OA
ENDBRANCH  17  18
ENDBRANCH  16  17
ENDBRANCH  15  16
BRANCH   1  29
HETATM   29  O1  UNL     1       2.202   5.450  11.654  1.00  0.00    -0.279 OA
BRANCH  29  30
HETATM   30  C2  UNL     1       3.610   5.466  11.512  1.00  0.00     0.196 C 
HETATM   31  C1  UNL     1       4.244   5.848  12.831  1.00  0.00     0.036 C 
ENDBRANCH  29  30
ENDBRANCH   1  29
TORSDOF 5
ENDMDL
MODEL 2
REMARK VINA RESULT: -7.656300609      2.529      7.909
REMARK  5 active torsions:
REMARK  status: ('A' for Active; 'I' for Inactive)
REMARK    1  A    between atoms: C2_2  and  O1_3 
REMARK    2  A    between atoms: O1_3  and  N1_4 
REMARK    3  A    between atoms: C10_18  and  S1_19 
REMARK    4  A    between atoms: S1_19  and  C11_20 
REMARK    5  A    between atoms: C11_20  and  C12_21 
REMARK       I    between atoms: C12_21  and  N4_23 
REMARK       I    between atoms: N5_26  and  C15_27 
ROOT
HETATM    1  N1  UNL     1      -3.671   2.785  10.878  1.00  0.00    -0.254 N 
ATOM      2  H1  UNL     1      -2.932   3.145  10.274  1.00  0.00     0.195 HD
HETATM    3  C3  UNL     1      -3.962   3.453  11.943  1.00  0.00     0.113 C 
HETATM    4  N2  UNL     1      -4.991   2.956  12.789  1.00  0.00    -0.377 N 
ATOM      5  H2  UNL     1      -5.628   2.306  12.329  1.00  0.00     0.160 HD
HETATM    6  C4  UNL     1      -5.301   3.197  14.167  1.00  0.00     0.121 C 
HETATM    7  C5  UNL     1      -4.391   4.171  14.842  1.00  0.00     0.025 C 
HETATM    8  C6  UNL     1      -2.929   3.869  14.663  1.00  0.00     0.055 C 
HETATM    9  C7  UNL     1      -2.387   4.469  13.408  1.00  0.00    -0.003 C 
HETATM   10  N3  UNL     1      -1.172   4.794  13.468  1.00  0.00    -0.405 N 
ATOM     11  H31 UNL     1      -0.802   5.204  12.611  1.00  0.00     0.155 HD
ATOM     12  H32 UNL     1      -0.631   4.647  14.320  1.00  0.00     0.155 HD
HETATM   13  C8  UNL     1      -3.177   4.684  12.166  1.00  0.00     0.071 A 
HETATM   14  C9  UNL     1      -3.803   6.035  12.068  1.00  0.00     0.041 A 
HETATM   15  C10 UNL     1      -2.734   5.564  11.087  1.00  0.00     0.071 A 
ENDROOT
BRANCH  15  16
HETATM   16  S1  UNL     1      -3.277   5.339   9.398  1.00  0.00    -0.153 SA
BRANCH  16  17
HETATM   17  C11 UNL     1      -1.848   5.386   8.297  1.00  0.00     0.177 C 
BRANCH  17  18
HETATM   18  C12 UNL     1      -0.728   4.572   8.781  1.00  0.00     0.229 C 
HETATM   19  O2  UNL     1      -0.769   3.325   8.634  1.00  0.00    -0.273 OA
HETATM   20  N4  UNL     1       0.422   5.120   9.418  1.00  0.00    -0.348 N 
HETATM   21  C13 UNL     1       0.511   6.543   9.611  1.00  0.00     0.145 C 
HETATM   22  C18 UNL     1       1.514   4.290   9.880  1.00  0.00     0.145 C 
HETATM   23  C14 UNL     1       0.928   6.882  11.044  1.00  0.00     0.145 C 
HETATM   24  N5  UNL     1       1.959   5.990  11.504  1.00  0.00    -0.349 N 
HETATM   25  C15 UNL     1       3.113   6.560  12.113  1.00  0.00     0.215 C 
HETATM   26  C17 UNL     1       1.800   4.570  11.340  1.00  0.00     0.145 C 
HETATM   27  C16 UNL     1       4.180   5.618  12.586  1.00  0.00     0.117 C 
HETATM   28  O3  UNL     1       3.255   7.800  12.257  1.00  0.00    -0.274 OA
ENDBRANCH  17  18
ENDBRANCH  16  17
ENDBRANCH  15  16
BRANCH   1  29
HETATM   29  O1  UNL     1      -4.290   1.630  10.515  1.00  0.00    -0.279 OA
BRANCH  29  30
HETATM   30  C2  UNL     1      -3.641   0.372  10.482  1.00  0.00     0.196 C 
HETATM   31  C1  UNL     1      -4.020  -0.420  11.713  1.00  0.00     0.036 C 
ENDBRANCH  29  30
ENDBRANCH   1  29
TORSDOF 5
ENDMDL
MODEL 3
REMARK VINA RESULT: -7.596758984      2.505      3.551
REMARK  5 active torsions:
REMARK  status: ('A' for Active; 'I' for Inactive)
REMARK    1  A    between atoms: C2_2  and  O1_3 
REMARK    2  A    between atoms: O1_3  and  N1_4 
REMARK    3  A    between atoms: C10_18  and  S1_19 
REMARK    4  A    between atoms: S1_19  and  C11_20 
REMARK    5  A    between atoms: C11_20  and  C12_21 
REMARK       I    between atoms: C12_21  and  N4_23 
REMARK       I    between atoms: N5_26  and  C15_27 
ROOT
HETATM    1  N1  UNL     1      -1.799   3.102  10.072  1.00  0.00    -0.254 N 
ATOM      2  H1  UNL     1      -2.429   3.366  10.829  1.00  0.00     0.195 HD
HETATM    3  C3  UNL     1      -1.300   4.041   9.342  1.00  0.00     0.113 C 
HETATM    4  N2  UNL     1      -0.421   3.678   8.286  1.00  0.00    -0.377 N 
ATOM      5  H2  UNL     1      -0.004   2.754   8.393  1.00  0.00     0.160 HD
HETATM    6  C4  UNL     1      -0.012   4.367   7.098  1.00  0.00     0.121 C 
HETATM    7  C5  UNL     1      -0.596   5.734   6.946  1.00  0.00     0.025 C 
HETATM    8  C6  UNL     1      -2.090   5.784   7.111  1.00  0.00     0.055 C 
HETATM    9  C7  UNL     1      -2.486   5.942   8.542  1.00  0.00    -0.003 C 
HETATM   10  N3  UNL     1      -3.561   6.573   8.718  1.00  0.00    -0.405 N 
ATOM     11  H31 UNL     1      -3.832   6.680   9.695  1.00  0.00     0.155 HD
ATOM     12  H32 UNL     1      -4.094   6.934   7.927  1.00  0.00     0.155 HD
HETATM   13  C8  UNL     1      -1.708   5.416   9.696  1.00  0.00     0.071 A 
HETATM   14  C9  UNL     1      -0.737   6.392  10.271  1.00  0.00     0.041 A 
HETATM   15  C10 UNL     1      -1.926   5.864  11.069  1.00  0.00     0.071 A 
ENDROOT
BRANCH  15  16
HETATM   16  S1  UNL     1      -1.522   4.837  12.476  1.00  0.00    -0.153 SA
BRANCH  16  17
HETATM   17  C11 UNL     1      -2.148   5.608  13.982  1.00  0.00     0.177 C 
BRANCH  17  18
HETATM   18  C12 UNL     1      -3.602   5.486  14.123  1.00  0.00     0.229 C 
HETATM   19  O2  UNL     1      -4.329   6.477  13.858  1.00  0.00    -0.273 OA
HETATM   20  N4  UNL     1      -4.252   4.291  14.549  1.00  0.00    -0.348 N 
HETATM   21  C13 UNL     1      -3.460   3.133  14.867  1.00  0.00     0.145 C 
HETATM   22  C18 UNL     1      -5.691   4.201  14.671  1.00  0.00     0.145 C 
HETATM   23  C14 UNL     1      -3.888   2.520  16.202  1.00  0.00     0.145 C 
HETATM   24  N5  UNL     1      -5.321   2.515  16.330  1.00  0.00    -0.349 N 
HETATM   25  C15 UNL     1      -5.953   1.303  16.729  1.00  0.00     0.215 C 
HETATM   26  C17 UNL     1      -6.065   3.715  16.056  1.00  0.00     0.145 C 
HETATM   27  C16 UNL     1      -7.447   1.315  16.858  1.00  0.00     0.117 C 
HETATM   28  O3  UNL     1      -5.305   0.254  16.969  1.00  0.00    -0.274 OA
ENDBRANCH  17  18
ENDBRANCH  16  17
ENDBRANCH  15  16
BRANCH   1  29
HETATM   29  O1  UNL     1      -1.535   1.780   9.891  1.00  0.00    -0.279 OA
BRANCH  29  30
HETATM   30  C2  UNL     1      -1.908   0.774  10.814  1.00  0.00     0.196 C 
HETATM   31  C1  UNL     1      -3.053   1.275  11.666  1.00  0.00     0.036 C 
ENDBRANCH  29  30
ENDBRANCH   1  29
TORSDOF 5
ENDMDL
MODEL 4
REMARK VINA RESULT: -7.575804169      2.182      3.691
REMARK  5 active torsions:
REMARK  status: ('A' for Active; 'I' for Inactive)
REMARK    1  A    between atoms: C2_2  and  O1_3 
REMARK    2  A    between atoms: O1_3  and  N1_4 
REMARK    3  A    between atoms: C10_18  and  S1_19 
REMARK    4  A    between atoms: S1_19  and  C11_20 
REMARK    5  A    between atoms: C11_20  and  C12_21 
REMARK       I    between atoms: C12_21  and  N4_23 
REMARK       I    between atoms: N5_26  and  C15_27 
ROOT
HETATM    1  N1  UNL     1      -2.427   4.830   9.546  1.00  0.00    -0.254 N 
ATOM      2  H1  UNL     1      -2.824   4.129  10.171  1.00  0.00     0.195 HD
HETATM    3  C3  UNL     1      -1.256   5.295   9.820  1.00  0.00     0.113 C 
HETATM    4  N2  UNL     1      -0.699   6.273   8.952  1.00  0.00    -0.377 N 
ATOM      5  H2  UNL     1      -1.116   6.287   8.022  1.00  0.00     0.160 HD
HETATM    6  C4  UNL     1       0.339   7.243   9.138  1.00  0.00     0.121 C 
HETATM    7  C5  UNL     1       0.977   7.211  10.489  1.00  0.00     0.025 C 
HETATM    8  C6  UNL     1      -0.002   7.243  11.630  1.00  0.00     0.055 C 
HETATM    9  C7  UNL     1      -0.477   5.875  11.992  1.00  0.00    -0.003 C 
HETATM   10  N3  UNL     1      -0.767   5.729  13.209  1.00  0.00    -0.405 N 
ATOM     11  H31 UNL     1      -1.092   4.795  13.457  1.00  0.00     0.155 HD
ATOM     12  H32 UNL     1      -0.673   6.503  13.867  1.00  0.00     0.155 HD
HETATM   13  C8  UNL     1      -0.614   4.747  11.032  1.00  0.00     0.071 A 
HETATM   14  C9  UNL     1       0.592   3.872  10.945  1.00  0.00     0.041 A 
HETATM   15  C10 UNL     1      -0.750   3.356  11.458  1.00  0.00     0.071 A 
ENDROOT
BRANCH  15  16
HETATM   16  S1  UNL     1      -1.550   2.127  10.434  1.00  0.00    -0.153 SA
BRANCH  16  17
HETATM   17  C11 UNL     1      -2.867   1.328  11.374  1.00  0.00     0.177 C 
BRANCH  17  18
HETATM   18  C12 UNL     1      -3.776   2.287  12.009  1.00  0.00     0.229 C 
HETATM   19  O2  UNL     1      -3.980   3.397  11.456  1.00  0.00    -0.273 OA
HETATM   20  N4  UNL     1      -4.455   2.031  13.235  1.00  0.00    -0.348 N 
HETATM   21  C13 UNL     1      -4.250   0.776  13.907  1.00  0.00     0.145 C 
HETATM   22  C18 UNL     1      -5.352   2.997  13.833  1.00  0.00     0.145 C 
HETATM   23  C14 UNL     1      -3.964   0.984  15.395  1.00  0.00     0.145 C 
HETATM   24  N5  UNL     1      -4.816   2.005  15.944  1.00  0.00    -0.349 N 
HETATM   25  C15 UNL     1      -5.506   1.719  17.156  1.00  0.00     0.215 C 
HETATM   26  C17 UNL     1      -4.944   3.267  15.267  1.00  0.00     0.145 C 
HETATM   27  C16 UNL     1      -6.391   2.793  17.716  1.00  0.00     0.117 C 
HETATM   28  O3  UNL     1      -5.396   0.617  17.750  1.00  0.00    -0.274 OA
ENDBRANCH  17  18
ENDBRANCH  16  17
ENDBRANCH  15  16
BRANCH   1  29
HETATM   29  O1  UNL     1      -3.165   5.220   8.471  1.00  0.00    -0.279 OA
BRANCH  29  30
HETATM   30  C2  UNL     1      -4.139   6.247   8.522  1.00  0.00     0.196 C 
HETATM   31  C1  UNL     1      -4.450   6.713   7.118  1.00  0.00     0.036 C 
ENDBRANCH  29  30
ENDBRANCH   1  29
TORSDOF 5
ENDMDL
MODEL 5
REMARK VINA RESULT: -7.546088458      2.137      3.039
REMARK  5 active torsions:
REMARK  status: ('A' for Active; 'I' for Inactive)
REMARK    1  A    between atoms: C2_2  and  O1_3 
REMARK    2  A    between atoms: O1_3  and  N1_4 
REMARK    3  A    between atoms: C10_18  and  S1_19 
REMARK    4  A    between atoms: S1_19  and  C11_20 
REMARK    5  A    between atoms: C11_20  and  C12_21 
REMARK       I    between atoms: C12_21  and  N4_23 
REMARK       I    between atoms: N5_26  and  C15_27 
ROOT
HETATM    1  N1  UNL     1      -1.469   6.440  12.077  1.00  0.00    -0.254 N 
ATOM      2  H1  UNL     1      -1.648   5.452  12.255  1.00  0.00     0.195 HD
HETATM    3  C3  UNL     1      -0.462   6.750  11.334  1.00  0.00     0.113 C 
HETATM    4  N2  UNL     1      -0.209   8.126  11.083  1.00  0.00    -0.377 N 
ATOM      5  H2  UNL     1      -1.017   8.730  11.232  1.00  0.00     0.160 HD
HETATM    6  C4  UNL     1       0.969   8.824  10.659  1.00  0.00     0.121 C 
HETATM    7  C5  UNL     1       2.151   7.945  10.409  1.00  0.00     0.025 C 
HETATM    8  C6  UNL     1       2.460   7.000  11.538  1.00  0.00     0.055 C 
HETATM    9  C7  UNL     1       1.685   5.729  11.427  1.00  0.00    -0.003 C 
HETATM   10  N3  UNL     1       2.271   4.719  11.898  1.00  0.00    -0.405 N 
ATOM     11  H31 UNL     1       1.742   3.851  11.823  1.00  0.00     0.155 HD
ATOM     12  H32 UNL     1       3.199   4.797  12.314  1.00  0.00     0.155 HD
HETATM   13  C8  UNL     1       0.332   5.616  10.820  1.00  0.00     0.071 A 
HETATM   14  C9  UNL     1       0.343   5.269   9.368  1.00  0.00     0.041 A 
HETATM   15  C10 UNL     1      -0.253   4.338  10.420  1.00  0.00     0.071 A 
ENDROOT
BRANCH  15  16
HETATM   16  S1  UNL     1      -2.023   4.095  10.327  1.00  0.00    -0.153 SA
BRANCH  16  17
HETATM   17  C11 UNL     1      -2.557   3.043  11.693  1.00  0.00     0.177 C 
BRANCH  17  18
HETATM   18  C12 UNL     1      -3.714   3.586  12.411  1.00  0.00     0.229 C 
HETATM   19  O2  UNL     1      -4.067   4.772  12.197  1.00  0.00    -0.273 OA
HETATM   20  N4  UNL     1      -4.476   2.834  13.352  1.00  0.00    -0.348 N 
HETATM   21  C13 UNL     1      -4.106   1.473  13.633  1.00  0.00     0.145 C 
HETATM   22  C18 UNL     1      -5.618   3.397  14.040  1.00  0.00     0.145 C 
HETATM   23  C14 UNL     1      -4.058   1.211  15.140  1.00  0.00     0.145 C 
HETATM   24  N5  UNL     1      -5.162   1.848  15.807  1.00  0.00    -0.349 N 
HETATM   25  C15 UNL     1      -5.927   1.072  16.724  1.00  0.00     0.215 C 
HETATM   26  C17 UNL     1      -5.458   3.230  15.537  1.00  0.00     0.145 C 
HETATM   27  C16 UNL     1      -7.075   1.750  17.411  1.00  0.00     0.117 C 
HETATM   28  O3  UNL     1      -5.670  -0.134  16.961  1.00  0.00    -0.274 OA
ENDBRANCH  17  18
ENDBRANCH  16  17
ENDBRANCH  15  16
BRANCH   1  29
HETATM   29  O1  UNL     1      -2.308   7.353  12.636  1.00  0.00    -0.279 OA
BRANCH  29  30
HETATM   30  C2  UNL     1      -2.611   7.393  14.019  1.00  0.00     0.196 C 
HETATM   31  C1  UNL     1      -1.957   8.606  14.641  1.00  0.00     0.036 C 
ENDBRANCH  29  30
ENDBRANCH   1  29
TORSDOF 5
ENDMDL
