MODEL 1
REMARK VINA RESULT: -7.546887722      0.000      0.000
REMARK  5 active torsions:
REMARK  status: ('A' for Active; 'I' for Inactive)
REMARK    1  A    between atoms: N1_1  and  C1_4 
REMARK    2  A    between atoms: N5_18  and  C7_19 
REMARK    3  A    between atoms: C7_19  and  C8_20 
REMARK    4  A    between atoms: C8_20  and  C9_21 
REMARK    5  A    between atoms: C9_21  and  N6_22 
ROOT
HETATM    1  C1  UNL     1      11.976  27.184  75.361  1.00  0.00     0.118 A 
HETATM    2  N2  UNL     1      12.306  26.555  76.500  1.00  0.00    -0.338 N 
ATOM      3  H2  UNL     1      11.571  26.123  77.059  1.00  0.00     0.168 HD
HETATM    4  C2  UNL     1      13.597  26.478  76.931  1.00  0.00     0.183 A 
HETATM    5  N3  UNL     1      14.560  27.056  76.177  1.00  0.00    -0.336 N 
ATOM      6  H3  UNL     1      15.526  26.999  76.499  1.00  0.00     0.168 HD
HETATM    7  C3  UNL     1      14.311  27.699  75.033  1.00  0.00     0.141 A 
HETATM    8  C4  UNL     1      12.995  27.763  74.618  1.00  0.00     0.109 A 
HETATM    9  C5  UNL     1      12.748  28.428  73.438  1.00  0.00     0.258 A 
HETATM   10  O1  UNL     1      11.546  28.489  73.055  1.00  0.00    -0.281 OA
HETATM   11  C6  UNL     1      13.779  28.997  72.714  1.00  0.00     0.311 A 
HETATM   12  O2  UNL     1      13.543  29.602  71.637  1.00  0.00    -0.262 OA
HETATM   13  N4  UNL     1      15.048  28.907  73.160  1.00  0.00    -0.259 N 
ATOM     14  H4  UNL     1      15.810  29.327  72.628  1.00  0.00     0.190 HD
HETATM   15  N5  UNL     1      15.299  28.272  74.293  1.00  0.00    -0.273 N 
ENDROOT
BRANCH  15  16
HETATM   16  C7  UNL     1      16.662  28.181  74.762  1.00  0.00     0.152 C 
BRANCH  16  17
HETATM   17  C8  UNL     1      17.628  28.683  73.682  1.00  0.00     0.049 C 
BRANCH  17  18
HETATM   18  C9  UNL     1      18.493  29.798  74.227  1.00  0.00     0.231 C 
BRANCH  18  19
HETATM   19  N6  UNL     1      18.610  30.826  73.228  1.00  0.00    -0.079 N 
ATOM     20  H63 UNL     1      19.285  30.588  72.501  1.00  0.00     0.274 HD
ATOM     21  H62 UNL     1      17.782  30.890  72.636  1.00  0.00     0.274 HD
ATOM     22  H61 UNL     1      18.829  31.709  73.689  1.00  0.00     0.274 HD
ENDBRANCH  18  19
ENDBRANCH  17  18
ENDBRANCH  16  17
ENDBRANCH  15  16
BRANCH   1  23
HETATM   23  N1  UNL     1      10.758  27.264  74.944  1.00  0.00    -0.385 N 
ATOM     24  H12 UNL     1      10.524  26.945  74.004  1.00  0.00     0.157 HD
ATOM     25  H11 UNL     1      10.006  27.641  75.521  1.00  0.00     0.157 HD
ENDBRANCH   1  23
TORSDOF 5
ENDMDL
MODEL 2
REMARK VINA RESULT: -7.328057098      2.054      4.832
REMARK  5 active torsions:
REMARK  status: ('A' for Active; 'I' for Inactive)
REMARK    1  A    between atoms: N1_1  and  C1_4 
REMARK    2  A    between atoms: N5_18  and  C7_19 
REMARK    3  A    between atoms: C7_19  and  C8_20 
REMARK    4  A    between atoms: C8_20  and  C9_21 
REMARK    5  A    between atoms: C9_21  and  N6_22 
ROOT
HETATM    1  C1  UNL     1      16.280  27.367  75.844  1.00  0.00     0.118 A 
HETATM    2  N2  UNL     1      16.129  26.630  76.956  1.00  0.00    -0.338 N 
ATOM      3  H2  UNL     1      16.957  26.340  77.475  1.00  0.00     0.168 HD
HETATM    4  C2  UNL     1      14.898  26.259  77.411  1.00  0.00     0.183 A 
HETATM    5  N3  UNL     1      13.810  26.652  76.710  1.00  0.00    -0.336 N 
ATOM      6  H3  UNL     1      12.890  26.374  77.049  1.00  0.00     0.168 HD
HETATM    7  C3  UNL     1      13.879  27.386  75.595  1.00  0.00     0.141 A 
HETATM    8  C4  UNL     1      15.138  27.748  75.155  1.00  0.00     0.109 A 
HETATM    9  C5  UNL     1      15.199  28.505  74.006  1.00  0.00     0.258 A 
HETATM   10  O1  UNL     1      16.347  28.839  73.600  1.00  0.00    -0.281 OA
HETATM   11  C6  UNL     1      14.047  28.874  73.337  1.00  0.00     0.311 A 
HETATM   12  O2  UNL     1      14.114  29.564  72.288  1.00  0.00    -0.262 OA
HETATM   13  N4  UNL     1      12.841  28.495  73.806  1.00  0.00    -0.259 N 
ATOM     14  H4  UNL     1      11.990  28.766  73.313  1.00  0.00     0.190 HD
HETATM   15  N5  UNL     1      12.769  27.769  74.909  1.00  0.00    -0.273 N 
ENDROOT
BRANCH  15  16
HETATM   16  C7  UNL     1      11.472  27.368  75.404  1.00  0.00     0.152 C 
BRANCH  16  17
HETATM   17  C8  UNL     1      10.466  28.514  75.239  1.00  0.00     0.049 C 
BRANCH  17  18
HETATM   18  C9  UNL     1       9.737  28.764  76.541  1.00  0.00     0.231 C 
BRANCH  18  19
HETATM   19  N6  UNL     1      10.024  27.685  77.448  1.00  0.00    -0.079 N 
ATOM     20  H63 UNL     1       9.922  26.770  77.010  1.00  0.00     0.274 HD
ATOM     21  H62 UNL     1      11.016  27.622  77.677  1.00  0.00     0.274 HD
ATOM     22  H61 UNL     1       9.439  27.788  78.277  1.00  0.00     0.274 HD
ENDBRANCH  18  19
ENDBRANCH  17  18
ENDBRANCH  16  17
ENDBRANCH  15  16
BRANCH   1  23
HETATM   23  N1  UNL     1      17.439  27.723  75.403  1.00  0.00    -0.385 N 
ATOM     24  H12 UNL     1      18.245  27.119  75.559  1.00  0.00     0.157 HD
ATOM     25  H11 UNL     1      17.587  28.598  74.900  1.00  0.00     0.157 HD
ENDBRANCH   1  23
TORSDOF 5
ENDMDL
MODEL 3
REMARK VINA RESULT: -6.931870001      1.091      1.348
REMARK  5 active torsions:
REMARK  status: ('A' for Active; 'I' for Inactive)
REMARK    1  A    between atoms: N1_1  and  C1_4 
REMARK    2  A    between atoms: N5_18  and  C7_19 
REMARK    3  A    between atoms: C7_19  and  C8_20 
REMARK    4  A    between atoms: C8_20  and  C9_21 
REMARK    5  A    between atoms: C9_21  and  N6_22 
ROOT
HETATM    1  C1  UNL     1      13.363  26.744  76.511  1.00  0.00     0.118 A 
HETATM    2  N2  UNL     1      14.072  26.244  77.536  1.00  0.00    -0.338 N 
ATOM      3  H2  UNL     1      13.582  25.759  78.287  1.00  0.00     0.168 HD
HETATM    4  C2  UNL     1      15.429  26.366  77.600  1.00  0.00     0.183 A 
HETATM    5  N3  UNL     1      16.062  27.013  76.594  1.00  0.00    -0.336 N 
ATOM      6  H3  UNL     1      17.076  27.105  76.642  1.00  0.00     0.168 HD
HETATM    7  C3  UNL     1      15.427  27.537  75.542  1.00  0.00     0.141 A 
HETATM    8  C4  UNL     1      14.053  27.399  75.501  1.00  0.00     0.109 A 
HETATM    9  C5  UNL     1      13.408  27.942  74.412  1.00  0.00     0.258 A 
HETATM   10  O1  UNL     1      12.151  27.819  74.371  1.00  0.00    -0.281 OA
HETATM   11  C6  UNL     1      14.116  28.590  73.418  1.00  0.00     0.311 A 
HETATM   12  O2  UNL     1      13.516  29.084  72.428  1.00  0.00    -0.262 OA
HETATM   13  N4  UNL     1      15.457  28.699  73.503  1.00  0.00    -0.259 N 
ATOM     14  H4  UNL     1      15.981  29.178  72.770  1.00  0.00     0.190 HD
HETATM   15  N5  UNL     1      16.089  28.182  74.543  1.00  0.00    -0.273 N 
ENDROOT
BRANCH  15  16
HETATM   16  C7  UNL     1      17.526  28.303  74.625  1.00  0.00     0.152 C 
BRANCH  16  17
HETATM   17  C8  UNL     1      18.055  29.128  73.446  1.00  0.00     0.049 C 
BRANCH  17  18
HETATM   18  C9  UNL     1      18.698  30.404  73.943  1.00  0.00     0.231 C 
BRANCH  18  19
HETATM   19  N6  UNL     1      18.715  31.363  72.870  1.00  0.00    -0.079 N 
ATOM     20  H63 UNL     1      19.653  31.710  72.674  1.00  0.00     0.274 HD
ATOM     21  H62 UNL     1      18.529  30.935  71.963  1.00  0.00     0.274 HD
ATOM     22  H61 UNL     1      18.059  32.112  73.090  1.00  0.00     0.274 HD
ENDBRANCH  18  19
ENDBRANCH  17  18
ENDBRANCH  16  17
ENDBRANCH  15  16
BRANCH   1  23
HETATM   23  N1  UNL     1      12.080  26.635  76.440  1.00  0.00    -0.385 N 
ATOM     24  H12 UNL     1      11.489  27.351  76.862  1.00  0.00     0.157 HD
ATOM     25  H11 UNL     1      11.623  25.852  75.973  1.00  0.00     0.157 HD
ENDBRANCH   1  23
TORSDOF 5
ENDMDL
MODEL 4
REMARK VINA RESULT: -6.741751043      2.576      5.237
REMARK  5 active torsions:
REMARK  status: ('A' for Active; 'I' for Inactive)
REMARK    1  A    between atoms: N1_1  and  C1_4 
REMARK    2  A    between atoms: N5_18  and  C7_19 
REMARK    3  A    between atoms: C7_19  and  C8_20 
REMARK    4  A    between atoms: C8_20  and  C9_21 
REMARK    5  A    between atoms: C9_21  and  N6_22 
ROOT
HETATM    1  C1  UNL     1      17.110  26.480  77.316  1.00  0.00     0.118 A 
HETATM    2  N2  UNL     1      16.662  25.797  78.382  1.00  0.00    -0.338 N 
ATOM      3  H2  UNL     1      17.337  25.395  79.032  1.00  0.00     0.168 HD
HETATM    4  C2  UNL     1      15.331  25.625  78.620  1.00  0.00     0.183 A 
HETATM    5  N3  UNL     1      14.449  26.164  77.747  1.00  0.00    -0.336 N 
ATOM      6  H3  UNL     1      13.453  26.036  77.923  1.00  0.00     0.168 HD
HETATM    7  C3  UNL     1      14.816  26.857  76.665  1.00  0.00     0.141 A 
HETATM    8  C4  UNL     1      16.171  27.016  76.447  1.00  0.00     0.109 A 
HETATM    9  C5  UNL     1      16.539  27.732  75.329  1.00  0.00     0.258 A 
HETATM   10  O1  UNL     1      17.777  27.880  75.126  1.00  0.00    -0.281 OA
HETATM   11  C6  UNL     1      15.587  28.258  74.477  1.00  0.00     0.311 A 
HETATM   12  O2  UNL     1      15.934  28.909  73.458  1.00  0.00    -0.262 OA
HETATM   13  N4  UNL     1      14.276  28.075  74.732  1.00  0.00    -0.259 N 
ATOM     14  H4  UNL     1      13.571  28.462  74.104  1.00  0.00     0.190 HD
HETATM   15  N5  UNL     1      13.909  27.390  75.802  1.00  0.00    -0.273 N 
ENDROOT
BRANCH  15  16
HETATM   16  C7  UNL     1      12.502  27.200  76.068  1.00  0.00     0.152 C 
BRANCH  16  17
HETATM   17  C8  UNL     1      11.794  28.557  76.163  1.00  0.00     0.049 C 
BRANCH  17  18
HETATM   18  C9  UNL     1      10.310  28.395  75.913  1.00  0.00     0.231 C 
BRANCH  18  19
HETATM   19  N6  UNL     1       9.666  28.054  77.153  1.00  0.00    -0.079 N 
ATOM     20  H63 UNL     1       8.739  27.652  77.013  1.00  0.00     0.274 HD
ATOM     21  H62 UNL     1      10.100  27.251  77.610  1.00  0.00     0.274 HD
ATOM     22  H61 UNL     1       9.647  28.880  77.752  1.00  0.00     0.274 HD
ENDBRANCH  18  19
ENDBRANCH  17  18
ENDBRANCH  16  17
ENDBRANCH  15  16
BRANCH   1  23
HETATM   23  N1  UNL     1      18.367  26.648  77.081  1.00  0.00    -0.385 N 
ATOM     24  H12 UNL     1      18.968  25.835  76.947  1.00  0.00     0.157 HD
ATOM     25  H11 UNL     1      18.793  27.573  77.023  1.00  0.00     0.157 HD
ENDBRANCH   1  23
TORSDOF 5
ENDMDL
MODEL 5
REMARK VINA RESULT: -6.704883450      2.742      5.799
REMARK  5 active torsions:
REMARK  status: ('A' for Active; 'I' for Inactive)
REMARK    1  A    between atoms: N1_1  and  C1_4 
REMARK    2  A    between atoms: N5_18  and  C7_19 
REMARK    3  A    between atoms: C7_19  and  C8_20 
REMARK    4  A    between atoms: C8_20  and  C9_21 
REMARK    5  A    between atoms: C9_21  and  N6_22 
ROOT
HETATM    1  C1  UNL     1      16.367  28.234  74.414  1.00  0.00     0.118 A 
HETATM    2  N2  UNL     1      15.993  28.855  73.283  1.00  0.00    -0.338 N 
ATOM      3  H2  UNL     1      16.709  29.261  72.681  1.00  0.00     0.168 HD
HETATM    4  C2  UNL     1      14.684  28.958  72.917  1.00  0.00     0.183 A 
HETATM    5  N3  UNL     1      13.748  28.414  73.728  1.00  0.00    -0.336 N 
ATOM      6  H3  UNL     1      12.768  28.491  73.456  1.00  0.00     0.168 HD
HETATM    7  C3  UNL     1      14.039  27.781  74.868  1.00  0.00     0.141 A 
HETATM    8  C4  UNL     1      15.374  27.691  75.216  1.00  0.00     0.109 A 
HETATM    9  C5  UNL     1      15.665  27.037  76.392  1.00  0.00     0.258 A 
HETATM   10  O1  UNL     1      16.883  26.952  76.715  1.00  0.00    -0.281 OA
HETATM   11  C6  UNL     1      14.659  26.503  77.176  1.00  0.00     0.311 A 
HETATM   12  O2  UNL     1      14.935  25.908  78.249  1.00  0.00    -0.262 OA
HETATM   13  N4  UNL     1      13.371  26.617  76.793  1.00  0.00    -0.259 N 
ATOM     14  H4  UNL     1      12.627  26.224  77.370  1.00  0.00     0.190 HD
HETATM   15  N5  UNL     1      13.078  27.243  75.666  1.00  0.00    -0.273 N 
ENDROOT
BRANCH  15  16
HETATM   16  C7  UNL     1      11.695  27.360  75.264  1.00  0.00     0.152 C 
BRANCH  16  17
HETATM   17  C8  UNL     1      11.129  28.714  75.708  1.00  0.00     0.049 C 
BRANCH  17  18
HETATM   18  C9  UNL     1       9.807  28.524  76.418  1.00  0.00     0.231 C 
BRANCH  18  19
HETATM   19  N6  UNL     1      10.000  27.623  77.523  1.00  0.00    -0.079 N 
ATOM     20  H63 UNL     1      10.061  26.649  77.226  1.00  0.00     0.274 HD
ATOM     21  H62 UNL     1      10.930  27.704  77.934  1.00  0.00     0.274 HD
ATOM     22  H61 UNL     1       9.257  27.776  78.205  1.00  0.00     0.274 HD
ENDBRANCH  18  19
ENDBRANCH  17  18
ENDBRANCH  16  17
ENDBRANCH  15  16
BRANCH   1  23
HETATM   23  N1  UNL     1      17.602  28.132  74.771  1.00  0.00    -0.385 N 
ATOM     24  H12 UNL     1      18.329  28.072  74.059  1.00  0.00     0.157 HD
ATOM     25  H11 UNL     1      17.888  28.106  75.749  1.00  0.00     0.157 HD
ENDBRANCH   1  23
TORSDOF 5
ENDMDL
