MODEL 1
REMARK VINA RESULT: -8.888425154      0.000      0.000
REMARK  14 active torsions:
REMARK  status: ('A' for Active; 'I' for Inactive)
REMARK    1  A    between atoms: O1_2  and  C2_3 
REMARK    2  A    between atoms: C2_3  and  C3_4 
REMARK    3  A    between atoms: C3_4  and  N1_5 
REMARK    4  A    between atoms: N1_5  and  C5_7 
REMARK    5  A    between atoms: C5_7  and  C6_8 
REMARK       I    between atoms: C6_8  and  N2_10 
REMARK    6  A    between atoms: C8_17  and  C9_18 
REMARK    7  A    between atoms: C9_18  and  C10_19 
REMARK    8  A    between atoms: C10_19  and  S1_20 
REMARK    9  A    between atoms: S1_20  and  C11_21 
REMARK   10  A    between atoms: C11_21  and  C12_22 
REMARK   11  A    between atoms: C12_22  and  C13_23 
REMARK   12  A    between atoms: N7_29  and  C15_31 
REMARK   13  A    between atoms: C15_31  and  N8_33 
REMARK   14  A    between atoms: N8_33  and  C16_35 
ROOT
HETATM    1  C13 UNL     1      22.582  32.704  15.601  1.00  0.00     0.070 A 
HETATM    2  N5  UNL     1      22.085  33.888  15.256  1.00  0.00    -0.296 N 
ATOM      3  H5  UNL     1      22.081  34.176  14.278  1.00  0.00     0.187 HD
HETATM    4  N6  UNL     1      21.617  34.659  16.148  1.00  0.00    -0.279 N 
ATOM      5  H6  UNL     1      21.234  35.570  15.895  1.00  0.00     0.189 HD
HETATM    6  C14 UNL     1      21.633  34.265  17.421  1.00  0.00     0.167 A 
HETATM    7  N7  UNL     1      21.205  34.907  18.489  1.00  0.00    -0.312 N 
ATOM      8  H7  UNL     1      21.265  34.508  19.426  1.00  0.00     0.170 HD
HETATM    9  S3  UNL     1      22.359  32.714  17.286  1.00  0.00    -0.038 SA
ENDROOT
BRANCH   1  10
HETATM   10  C12 UNL     1      23.189  31.669  14.667  1.00  0.00     0.076 C 
BRANCH  10  11
HETATM   11  C11 UNL     1      22.021  31.185  13.849  1.00  0.00     0.080 C 
BRANCH  11  12
HETATM   12  S1  UNL     1      20.824  30.341  14.822  1.00  0.00    -0.168 SA
BRANCH  12  13
HETATM   13  C10 UNL     1      19.227  31.094  14.948  1.00  0.00     0.080 C 
BRANCH  13  14
HETATM   14  C9  UNL     1      18.086  30.138  14.878  1.00  0.00     0.076 C 
BRANCH  14  15
HETATM   15  C8  UNL     1      18.334  29.168  13.727  1.00  0.00     0.070 A 
HETATM   16  N4  UNL     1      18.642  27.885  13.756  1.00  0.00    -0.296 N 
HETATM   17  N3  UNL     1      18.814  27.242  12.675  1.00  0.00    -0.279 N 
ATOM     18  H4  UNL     1      18.743  27.408  14.652  1.00  0.00     0.187 HD
HETATM   19  C7  UNL     1      18.679  27.878  11.510  1.00  0.00     0.167 A 
ATOM     20  H3  UNL     1      19.053  26.250  12.697  1.00  0.00     0.189 HD
HETATM   21  N2  UNL     1      18.797  27.437  10.288  1.00  0.00    -0.305 N 
HETATM   22  S4  UNL     1      18.287  29.474  12.048  1.00  0.00    -0.038 SA
HETATM   23  C6  UNL     1      19.120  26.077  10.101  1.00  0.00     0.252 C 
ATOM     24  H2  UNL     1      18.660  28.059   9.491  1.00  0.00     0.171 HD
HETATM   25  O2  UNL     1      18.188  25.246  10.176  1.00  0.00    -0.271 OA
BRANCH  23  26
HETATM   26  C5  UNL     1      20.499  25.689   9.830  1.00  0.00     0.374 C 
BRANCH  26  27
HETATM   27  N1  UNL     1      21.419  25.794  10.907  1.00  0.00     0.095 N 
HETATM   28  C4  UNL     1      21.419  24.563  11.658  1.00  0.00     0.310 C 
BRANCH  27  29
HETATM   29  C3  UNL     1      22.739  26.233  10.602  1.00  0.00     0.298 C 
BRANCH  29  30
HETATM   30  C2  UNL     1      23.704  25.068  10.751  1.00  0.00     0.197 C 
BRANCH  30  31
HETATM   31  O1  UNL     1      24.683  25.321  11.688  1.00  0.00    -0.394 OA
HETATM   32  C1  UNL     1      24.887  26.700  11.709  1.00  0.00     0.201 C 
ENDBRANCH  30  31
ENDBRANCH  29  30
ENDBRANCH  27  29
ENDBRANCH  26  27
ENDBRANCH  23  26
ENDBRANCH  14  15
ENDBRANCH  13  14
ENDBRANCH  12  13
ENDBRANCH  11  12
ENDBRANCH  10  11
ENDBRANCH   1  10
BRANCH   7  33
HETATM   33  C15 UNL     1      20.652  36.195  18.245  1.00  0.00     0.174 C 
HETATM   34  S2  UNL     1      21.705  37.373  17.801  1.00  0.00    -0.041 SA
BRANCH  33  35
HETATM   35  N8  UNL     1      19.252  36.446  18.385  1.00  0.00    -0.362 N 
ATOM     36  H8  UNL     1      18.908  37.364  18.667  1.00  0.00     0.162 HD
BRANCH  35  37
HETATM   37  C16 UNL     1      18.335  35.350  18.111  1.00  0.00     0.085 C 
HETATM   38  C17 UNL     1      17.000  35.497  18.707  1.00  0.00     0.029 C 
HETATM   39  C18 UNL     1      15.795  35.390  17.895  1.00  0.00    -0.012 C 
HETATM   40  C19 UNL     1      15.022  34.111  17.826  1.00  0.00     0.009 C 
HETATM   41  C25 UNL     1      16.221  35.605  16.470  1.00  0.00     0.014 C 
HETATM   42  C20 UNL     1      15.527  33.123  16.824  1.00  0.00    -0.013 C 
HETATM   43  C21 UNL     1      15.418  33.428  15.379  1.00  0.00     0.005 C 
HETATM   44  C24 UNL     1      17.027  33.210  16.969  1.00  0.00     0.014 C 
HETATM   45  C22 UNL     1      16.789  33.990  14.900  1.00  0.00     0.010 C 
HETATM   46  C23 UNL     1      17.210  34.496  16.225  1.00  0.00    -0.038 C 
HETATM   47  C26 UNL     1      18.468  35.028  16.626  1.00  0.00     0.034 C 
ENDBRANCH  35  37
ENDBRANCH  33  35
ENDBRANCH   7  33
TORSDOF 14
ENDMDL
MODEL 2
REMARK VINA RESULT: -8.761812869      2.773      9.861
REMARK  14 active torsions:
REMARK  status: ('A' for Active; 'I' for Inactive)
REMARK    1  A    between atoms: O1_2  and  C2_3 
REMARK    2  A    between atoms: C2_3  and  C3_4 
REMARK    3  A    between atoms: C3_4  and  N1_5 
REMARK    4  A    between atoms: N1_5  and  C5_7 
REMARK    5  A    between atoms: C5_7  and  C6_8 
REMARK       I    between atoms: C6_8  and  N2_10 
REMARK    6  A    between atoms: C8_17  and  C9_18 
REMARK    7  A    between atoms: C9_18  and  C10_19 
REMARK    8  A    between atoms: C10_19  and  S1_20 
REMARK    9  A    between atoms: S1_20  and  C11_21 
REMARK   10  A    between atoms: C11_21  and  C12_22 
REMARK   11  A    between atoms: C12_22  and  C13_23 
REMARK   12  A    between atoms: N7_29  and  C15_31 
REMARK   13  A    between atoms: C15_31  and  N8_33 
REMARK   14  A    between atoms: N8_33  and  C16_35 
ROOT
HETATM    1  C13 UNL     1      18.073  30.413  14.754  1.00  0.00     0.070 A 
HETATM    2  N5  UNL     1      18.817  29.317  14.639  1.00  0.00    -0.296 N 
ATOM      3  H5  UNL     1      19.378  28.994  15.427  1.00  0.00     0.187 HD
HETATM    4  N6  UNL     1      18.827  28.674  13.544  1.00  0.00    -0.279 N 
ATOM      5  H6  UNL     1      19.395  27.833  13.445  1.00  0.00     0.189 HD
HETATM    6  C14 UNL     1      18.087  29.113  12.526  1.00  0.00     0.167 A 
HETATM    7  N7  UNL     1      17.960  28.602  11.319  1.00  0.00    -0.312 N 
ATOM      8  H7  UNL     1      17.360  29.023  10.609  1.00  0.00     0.170 HD
HETATM    9  S3  UNL     1      17.361  30.511  13.213  1.00  0.00    -0.038 SA
ENDROOT
BRANCH   1  10
HETATM   10  C12 UNL     1      17.953  31.302  15.981  1.00  0.00     0.076 C 
BRANCH  10  11
HETATM   11  C11 UNL     1      16.483  31.278  16.309  1.00  0.00     0.080 C 
BRANCH  11  12
HETATM   12  S1  UNL     1      15.661  32.747  15.803  1.00  0.00    -0.168 SA
BRANCH  12  13
HETATM   13  C10 UNL     1      15.084  33.818  17.089  1.00  0.00     0.080 C 
BRANCH  13  14
HETATM   14  C9  UNL     1      15.700  35.176  17.086  1.00  0.00     0.076 C 
BRANCH  14  15
HETATM   15  C8  UNL     1      17.216  35.022  17.142  1.00  0.00     0.070 A 
HETATM   16  N4  UNL     1      18.098  34.992  16.160  1.00  0.00    -0.296 N 
HETATM   17  N3  UNL     1      19.335  34.851  16.412  1.00  0.00    -0.279 N 
ATOM     18  H4  UNL     1      17.785  35.083  15.194  1.00  0.00     0.187 HD
HETATM   19  C7  UNL     1      19.731  34.733  17.680  1.00  0.00     0.167 A 
ATOM     20  H3  UNL     1      20.017  34.828  15.654  1.00  0.00     0.189 HD
HETATM   21  N2  UNL     1      20.927  34.588  18.182  1.00  0.00    -0.305 N 
HETATM   22  S4  UNL     1      18.219  34.836  18.511  1.00  0.00    -0.038 SA
HETATM   23  C6  UNL     1      22.019  34.539  17.291  1.00  0.00     0.252 C 
ATOM     24  H2  UNL     1      21.067  34.512  19.189  1.00  0.00     0.171 HD
HETATM   25  O2  UNL     1      22.467  35.627  16.866  1.00  0.00    -0.271 OA
BRANCH  23  26
HETATM   26  C5  UNL     1      22.581  33.251  16.903  1.00  0.00     0.374 C 
BRANCH  26  27
HETATM   27  N1  UNL     1      22.356  32.829  15.565  1.00  0.00     0.095 N 
HETATM   28  C4  UNL     1      23.615  32.769  14.865  1.00  0.00     0.310 C 
BRANCH  27  29
HETATM   29  C3  UNL     1      21.582  31.650  15.371  1.00  0.00     0.298 C 
BRANCH  29  30
HETATM   30  C2  UNL     1      22.224  30.798  14.290  1.00  0.00     0.197 C 
BRANCH  30  31
HETATM   31  O1  UNL     1      21.294  30.280  13.415  1.00  0.00    -0.394 OA
HETATM   32  C1  UNL     1      21.133  31.208  12.388  1.00  0.00     0.201 C 
ENDBRANCH  30  31
ENDBRANCH  29  30
ENDBRANCH  27  29
ENDBRANCH  26  27
ENDBRANCH  23  26
ENDBRANCH  14  15
ENDBRANCH  13  14
ENDBRANCH  12  13
ENDBRANCH  11  12
ENDBRANCH  10  11
ENDBRANCH   1  10
BRANCH   7  33
HETATM   33  C15 UNL     1      18.717  27.423  11.073  1.00  0.00     0.174 C 
HETATM   34  S2  UNL     1      18.189  26.048  11.796  1.00  0.00    -0.041 SA
BRANCH  33  35
HETATM   35  N8  UNL     1      19.880  27.441  10.242  1.00  0.00    -0.362 N 
ATOM     36  H8  UNL     1      19.882  27.935   9.350  1.00  0.00     0.162 HD
BRANCH  35  37
HETATM   37  C16 UNL     1      21.060  26.731  10.711  1.00  0.00     0.085 C 
HETATM   38  C17 UNL     1      21.463  25.585   9.883  1.00  0.00     0.029 C 
HETATM   39  C18 UNL     1      22.821  25.467   9.367  1.00  0.00    -0.012 C 
HETATM   40  C19 UNL     1      23.840  24.622  10.063  1.00  0.00     0.009 C 
HETATM   41  C25 UNL     1      23.422  26.843   9.432  1.00  0.00     0.014 C 
HETATM   42  C20 UNL     1      24.555  25.296  11.190  1.00  0.00    -0.013 C 
HETATM   43  C21 UNL     1      25.480  26.416  10.901  1.00  0.00     0.005 C 
HETATM   44  C24 UNL     1      23.464  26.069  11.888  1.00  0.00     0.014 C 
HETATM   45  C22 UNL     1      24.712  27.749  11.139  1.00  0.00     0.010 C 
HETATM   46  C23 UNL     1      23.365  27.187  10.898  1.00  0.00    -0.038 C 
HETATM   47  C26 UNL     1      22.090  27.792  11.085  1.00  0.00     0.034 C 
ENDBRANCH  35  37
ENDBRANCH  33  35
ENDBRANCH   7  33
TORSDOF 14
ENDMDL
MODEL 3
REMARK VINA RESULT: -8.634992061      3.594     11.572
REMARK  14 active torsions:
REMARK  status: ('A' for Active; 'I' for Inactive)
REMARK    1  A    between atoms: O1_2  and  C2_3 
REMARK    2  A    between atoms: C2_3  and  C3_4 
REMARK    3  A    between atoms: C3_4  and  N1_5 
REMARK    4  A    between atoms: N1_5  and  C5_7 
REMARK    5  A    between atoms: C5_7  and  C6_8 
REMARK       I    between atoms: C6_8  and  N2_10 
REMARK    6  A    between atoms: C8_17  and  C9_18 
REMARK    7  A    between atoms: C9_18  and  C10_19 
REMARK    8  A    between atoms: C10_19  and  S1_20 
REMARK    9  A    between atoms: S1_20  and  C11_21 
REMARK   10  A    between atoms: C11_21  and  C12_22 
REMARK   11  A    between atoms: C12_22  and  C13_23 
REMARK   12  A    between atoms: N7_29  and  C15_31 
REMARK   13  A    between atoms: C15_31  and  N8_33 
REMARK   14  A    between atoms: N8_33  and  C16_35 
ROOT
HETATM    1  C13 UNL     1      18.256  29.627  13.871  1.00  0.00     0.070 A 
HETATM    2  N5  UNL     1      17.993  28.324  13.844  1.00  0.00    -0.296 N 
ATOM      3  H5  UNL     1      17.490  27.888  14.616  1.00  0.00     0.187 HD
HETATM    4  N6  UNL     1      18.372  27.624  12.855  1.00  0.00    -0.279 N 
ATOM      5  H6  UNL     1      18.176  26.624  12.825  1.00  0.00     0.189 HD
HETATM    6  C14 UNL     1      19.028  28.214  11.856  1.00  0.00     0.167 A 
HETATM    7  N7  UNL     1      19.506  27.675  10.752  1.00  0.00    -0.312 N 
ATOM      8  H7  UNL     1      19.998  28.224  10.047  1.00  0.00     0.170 HD
HETATM    9  S3  UNL     1      19.084  29.842  12.401  1.00  0.00    -0.038 SA
ENDROOT
BRANCH   1  10
HETATM   10  C12 UNL     1      17.888  30.604  14.975  1.00  0.00     0.076 C 
BRANCH  10  11
HETATM   11  C11 UNL     1      19.025  31.590  14.986  1.00  0.00     0.080 C 
BRANCH  11  12
HETATM   12  S1  UNL     1      20.281  31.151  16.136  1.00  0.00    -0.168 SA
BRANCH  12  13
HETATM   13  C10 UNL     1      21.843  31.964  15.956  1.00  0.00     0.080 C 
BRANCH  13  14
HETATM   14  C9  UNL     1      22.377  32.565  17.211  1.00  0.00     0.076 C 
BRANCH  14  15
HETATM   15  C8  UNL     1      21.713  33.922  17.420  1.00  0.00     0.070 A 
HETATM   16  N4  UNL     1      20.882  34.319  18.365  1.00  0.00    -0.296 N 
HETATM   17  N3  UNL     1      20.429  35.505  18.366  1.00  0.00    -0.279 N 
ATOM     18  H4  UNL     1      20.602  33.669  19.099  1.00  0.00     0.187 HD
HETATM   19  C7  UNL     1      20.804  36.345  17.400  1.00  0.00     0.167 A 
ATOM     20  H3  UNL     1      19.786  35.812  19.097  1.00  0.00     0.189 HD
HETATM   21  N2  UNL     1      20.485  37.593  17.195  1.00  0.00    -0.305 N 
HETATM   22  S4  UNL     1      21.856  35.335  16.472  1.00  0.00    -0.038 SA
HETATM   23  C6  UNL     1      19.603  38.212  18.106  1.00  0.00     0.252 C 
ATOM     24  H2  UNL     1      20.862  38.107  16.399  1.00  0.00     0.171 HD
HETATM   25  O2  UNL     1      20.087  38.643  19.176  1.00  0.00    -0.271 OA
BRANCH  23  26
HETATM   26  C5  UNL     1      18.187  38.328  17.780  1.00  0.00     0.374 C 
BRANCH  26  27
HETATM   27  N1  UNL     1      17.301  37.429  18.432  1.00  0.00     0.095 N 
HETATM   28  C4  UNL     1      16.249  38.176  19.074  1.00  0.00     0.310 C 
BRANCH  27  29
HETATM   29  C3  UNL     1      16.792  36.340  17.668  1.00  0.00     0.298 C 
BRANCH  29  30
HETATM   30  C2  UNL     1      15.451  35.909  18.237  1.00  0.00     0.197 C 
BRANCH  30  31
HETATM   31  O1  UNL     1      15.485  34.621  18.726  1.00  0.00    -0.394 OA
HETATM   32  C1  UNL     1      15.385  33.762  17.633  1.00  0.00     0.201 C 
ENDBRANCH  30  31
ENDBRANCH  29  30
ENDBRANCH  27  29
ENDBRANCH  26  27
ENDBRANCH  23  26
ENDBRANCH  14  15
ENDBRANCH  13  14
ENDBRANCH  12  13
ENDBRANCH  11  12
ENDBRANCH  10  11
ENDBRANCH   1  10
BRANCH   7  33
HETATM   33  C15 UNL     1      19.289  26.277  10.613  1.00  0.00     0.174 C 
HETATM   34  S2  UNL     1      18.167  25.814   9.509  1.00  0.00    -0.041 SA
BRANCH  33  35
HETATM   35  N8  UNL     1      20.010  25.326  11.400  1.00  0.00    -0.362 N 
ATOM     36  H8  UNL     1      19.534  24.742  12.087  1.00  0.00     0.162 HD
BRANCH  35  37
HETATM   37  C16 UNL     1      21.447  25.221  11.189  1.00  0.00     0.085 C 
HETATM   38  C17 UNL     1      21.867  25.223   9.781  1.00  0.00     0.029 C 
HETATM   39  C18 UNL     1      22.870  26.161   9.294  1.00  0.00    -0.012 C 
HETATM   40  C19 UNL     1      24.303  25.754   9.152  1.00  0.00     0.009 C 
HETATM   41  C25 UNL     1      22.935  27.276  10.299  1.00  0.00     0.014 C 
HETATM   42  C20 UNL     1      25.117  25.863  10.401  1.00  0.00    -0.013 C 
HETATM   43  C21 UNL     1      25.409  27.200  10.967  1.00  0.00     0.005 C 
HETATM   44  C24 UNL     1      24.185  25.355  11.474  1.00  0.00     0.014 C 
HETATM   45  C22 UNL     1      24.383  27.477  12.104  1.00  0.00     0.010 C 
HETATM   46  C23 UNL     1      23.333  26.581  11.575  1.00  0.00    -0.038 C 
HETATM   47  C26 UNL     1      22.105  26.181  12.175  1.00  0.00     0.034 C 
ENDBRANCH  35  37
ENDBRANCH  33  35
ENDBRANCH   7  33
TORSDOF 14
ENDMDL
MODEL 4
REMARK VINA RESULT: -8.486039796      2.905      5.265
REMARK  14 active torsions:
REMARK  status: ('A' for Active; 'I' for Inactive)
REMARK    1  A    between atoms: O1_2  and  C2_3 
REMARK    2  A    between atoms: C2_3  and  C3_4 
REMARK    3  A    between atoms: C3_4  and  N1_5 
REMARK    4  A    between atoms: N1_5  and  C5_7 
REMARK    5  A    between atoms: C5_7  and  C6_8 
REMARK       I    between atoms: C6_8  and  N2_10 
REMARK    6  A    between atoms: C8_17  and  C9_18 
REMARK    7  A    between atoms: C9_18  and  C10_19 
REMARK    8  A    between atoms: C10_19  and  S1_20 
REMARK    9  A    between atoms: S1_20  and  C11_21 
REMARK   10  A    between atoms: C11_21  and  C12_22 
REMARK   11  A    between atoms: C12_22  and  C13_23 
REMARK   12  A    between atoms: N7_29  and  C15_31 
REMARK   13  A    between atoms: C15_31  and  N8_33 
REMARK   14  A    between atoms: N8_33  and  C16_35 
ROOT
HETATM    1  C13 UNL     1      21.427  28.560  13.378  1.00  0.00     0.070 A 
HETATM    2  N5  UNL     1      21.276  28.661  14.695  1.00  0.00    -0.296 N 
ATOM      3  H5  UNL     1      21.209  27.821  15.268  1.00  0.00     0.187 HD
HETATM    4  N6  UNL     1      21.214  29.807  15.236  1.00  0.00    -0.279 N 
ATOM      5  H6  UNL     1      21.098  29.896  16.245  1.00  0.00     0.189 HD
HETATM    6  C14 UNL     1      21.303  30.894  14.469  1.00  0.00     0.167 A 
HETATM    7  N7  UNL     1      21.259  32.161  14.826  1.00  0.00    -0.312 N 
ATOM      8  H7  UNL     1      21.338  32.921  14.150  1.00  0.00     0.170 HD
HETATM    9  S3  UNL     1      21.483  30.194  12.910  1.00  0.00    -0.038 SA
ENDROOT
BRANCH   1  10
HETATM   10  C12 UNL     1      21.508  27.274  12.570  1.00  0.00     0.076 C 
BRANCH  10  11
HETATM   11  C11 UNL     1      22.410  27.624  11.416  1.00  0.00     0.080 C 
BRANCH  11  12
HETATM   12  S1  UNL     1      24.105  27.328  11.776  1.00  0.00    -0.168 SA
BRANCH  12  13
HETATM   13  C10 UNL     1      24.791  25.808  11.183  1.00  0.00     0.080 C 
BRANCH  13  14
HETATM   14  C9  UNL     1      25.222  25.839   9.756  1.00  0.00     0.076 C 
BRANCH  14  15
HETATM   15  C8  UNL     1      24.053  25.392   8.885  1.00  0.00     0.070 A 
HETATM   16  N4  UNL     1      23.238  26.109   8.134  1.00  0.00    -0.296 N 
HETATM   17  N3  UNL     1      22.310  25.546   7.475  1.00  0.00    -0.279 N 
ATOM     18  H4  UNL     1      23.355  27.121   8.082  1.00  0.00     0.187 HD
HETATM   19  C7  UNL     1      22.169  24.222   7.552  1.00  0.00     0.167 A 
ATOM     20  H3  UNL     1      21.680  26.100   6.894  1.00  0.00     0.189 HD
HETATM   21  N2  UNL     1      21.310  23.428   6.973  1.00  0.00    -0.305 N 
HETATM   22  S4  UNL     1      23.454  23.813   8.634  1.00  0.00    -0.038 SA
HETATM   23  C6  UNL     1      20.349  24.003   6.115  1.00  0.00     0.252 C 
ATOM     24  H2  UNL     1      21.334  22.422   7.136  1.00  0.00     0.171 HD
HETATM   25  O2  UNL     1      20.703  24.267   4.945  1.00  0.00    -0.271 OA
BRANCH  23  26
HETATM   26  C5  UNL     1      19.002  24.264   6.608  1.00  0.00     0.374 C 
BRANCH  26  27
HETATM   27  N1  UNL     1      18.805  25.470   7.332  1.00  0.00     0.095 N 
HETATM   28  C4  UNL     1      18.132  26.429   6.490  1.00  0.00     0.310 C 
BRANCH  27  29
HETATM   29  C3  UNL     1      18.200  25.372   8.617  1.00  0.00     0.298 C 
BRANCH  29  30
HETATM   30  C2  UNL     1      19.165  25.895   9.669  1.00  0.00     0.197 C 
BRANCH  30  31
HETATM   31  O1  UNL     1      19.138  25.139  10.821  1.00  0.00    -0.394 OA
HETATM   32  C1  UNL     1      18.303  25.795  11.724  1.00  0.00     0.201 C 
ENDBRANCH  30  31
ENDBRANCH  29  30
ENDBRANCH  27  29
ENDBRANCH  26  27
ENDBRANCH  23  26
ENDBRANCH  14  15
ENDBRANCH  13  14
ENDBRANCH  12  13
ENDBRANCH  11  12
ENDBRANCH  10  11
ENDBRANCH   1  10
BRANCH   7  33
HETATM   33  C15 UNL     1      21.094  32.396  16.219  1.00  0.00     0.174 C 
HETATM   34  S2  UNL     1      22.465  32.634  17.091  1.00  0.00    -0.041 SA
BRANCH  33  35
HETATM   35  N8  UNL     1      19.800  32.420  16.825  1.00  0.00    -0.362 N 
ATOM     36  H8  UNL     1      19.460  31.628  17.370  1.00  0.00     0.162 HD
BRANCH  35  37
HETATM   37  C16 UNL     1      18.984  33.610  16.638  1.00  0.00     0.085 C 
HETATM   38  C17 UNL     1      18.232  33.654  15.376  1.00  0.00     0.029 C 
HETATM   39  C18 UNL     1      16.793  33.878  15.362  1.00  0.00    -0.012 C 
HETATM   40  C19 UNL     1      16.227  35.241  15.111  1.00  0.00     0.009 C 
HETATM   41  C25 UNL     1      16.298  33.558  16.745  1.00  0.00     0.014 C 
HETATM   42  C20 UNL     1      16.137  36.119  16.318  1.00  0.00    -0.013 C 
HETATM   43  C21 UNL     1      15.189  35.774  17.402  1.00  0.00     0.005 C 
HETATM   44  C24 UNL     1      17.431  35.851  17.045  1.00  0.00     0.014 C 
HETATM   45  C22 UNL     1      15.981  35.028  18.515  1.00  0.00     0.010 C 
HETATM   46  C23 UNL     1      17.049  34.525  17.624  1.00  0.00    -0.038 C 
HETATM   47  C26 UNL     1      18.260  33.856  17.958  1.00  0.00     0.034 C 
ENDBRANCH  35  37
ENDBRANCH  33  35
ENDBRANCH   7  33
TORSDOF 14
ENDMDL
MODEL 5
REMARK VINA RESULT: -8.431110538      3.908     11.669
REMARK  14 active torsions:
REMARK  status: ('A' for Active; 'I' for Inactive)
REMARK    1  A    between atoms: O1_2  and  C2_3 
REMARK    2  A    between atoms: C2_3  and  C3_4 
REMARK    3  A    between atoms: C3_4  and  N1_5 
REMARK    4  A    between atoms: N1_5  and  C5_7 
REMARK    5  A    between atoms: C5_7  and  C6_8 
REMARK       I    between atoms: C6_8  and  N2_10 
REMARK    6  A    between atoms: C8_17  and  C9_18 
REMARK    7  A    between atoms: C9_18  and  C10_19 
REMARK    8  A    between atoms: C10_19  and  S1_20 
REMARK    9  A    between atoms: S1_20  and  C11_21 
REMARK   10  A    between atoms: C11_21  and  C12_22 
REMARK   11  A    between atoms: C12_22  and  C13_23 
REMARK   12  A    between atoms: N7_29  and  C15_31 
REMARK   13  A    between atoms: C15_31  and  N8_33 
REMARK   14  A    between atoms: N8_33  and  C16_35 
ROOT
HETATM    1  C13 UNL     1      18.080  29.994  13.700  1.00  0.00     0.070 A 
HETATM    2  N5  UNL     1      18.255  30.052  12.384  1.00  0.00    -0.296 N 
ATOM      3  H5  UNL     1      18.281  30.955  11.911  1.00  0.00     0.187 HD
HETATM    4  N6  UNL     1      18.387  28.981  11.717  1.00  0.00    -0.279 N 
ATOM      5  H6  UNL     1      18.521  29.014  10.706  1.00  0.00     0.189 HD
HETATM    6  C14 UNL     1      18.349  27.810  12.353  1.00  0.00     0.167 A 
HETATM    7  N7  UNL     1      18.461  26.596  11.854  1.00  0.00    -0.312 N 
ATOM      8  H7  UNL     1      18.416  25.761  12.438  1.00  0.00     0.170 HD
HETATM    9  S3  UNL     1      18.111  28.316  13.978  1.00  0.00    -0.038 SA
ENDROOT
BRANCH   1  10
HETATM   10  C12 UNL     1      17.895  31.171  14.644  1.00  0.00     0.076 C 
BRANCH  10  11
HETATM   11  C11 UNL     1      18.939  30.954  15.708  1.00  0.00     0.080 C 
BRANCH  11  12
HETATM   12  S1  UNL     1      20.574  31.143  15.091  1.00  0.00    -0.168 SA
BRANCH  12  13
HETATM   13  C10 UNL     1      21.593  32.346  15.895  1.00  0.00     0.080 C 
BRANCH  13  14
HETATM   14  C9  UNL     1      21.398  33.743  15.414  1.00  0.00     0.076 C 
BRANCH  14  15
HETATM   15  C8  UNL     1      20.253  34.373  16.201  1.00  0.00     0.070 A 
HETATM   16  N4  UNL     1      18.980  34.504  15.880  1.00  0.00    -0.296 N 
HETATM   17  N3  UNL     1      18.170  35.069  16.679  1.00  0.00    -0.279 N 
ATOM     18  H4  UNL     1      18.644  34.150  14.985  1.00  0.00     0.187 HD
HETATM   19  C7  UNL     1      18.623  35.527  17.847  1.00  0.00     0.167 A 
ATOM     20  H3  UNL     1      17.186  35.170  16.432  1.00  0.00     0.189 HD
HETATM   21  N2  UNL     1      17.995  36.127  18.821  1.00  0.00    -0.305 N 
HETATM   22  S4  UNL     1      20.296  35.103  17.744  1.00  0.00    -0.038 SA
HETATM   23  C6  UNL     1      16.611  36.358  18.675  1.00  0.00     0.252 C 
ATOM     24  H2  UNL     1      18.490  36.419  19.663  1.00  0.00     0.171 HD
HETATM   25  O2  UNL     1      15.837  35.409  18.928  1.00  0.00    -0.271 OA
BRANCH  23  26
HETATM   26  C5  UNL     1      16.136  37.667  18.244  1.00  0.00     0.374 C 
BRANCH  26  27
HETATM   27  N1  UNL     1      17.105  38.700  18.138  1.00  0.00     0.095 N 
HETATM   28  C4  UNL     1      16.741  39.588  17.062  1.00  0.00     0.310 C 
BRANCH  27  29
HETATM   29  C3  UNL     1      17.440  39.409  19.326  1.00  0.00     0.298 C 
BRANCH  29  30
HETATM   30  C2  UNL     1      18.904  39.814  19.275  1.00  0.00     0.197 C 
BRANCH  30  31
HETATM   31  O1  UNL     1      19.747  38.726  19.349  1.00  0.00    -0.394 OA
HETATM   32  C1  UNL     1      20.719  38.890  18.363  1.00  0.00     0.201 C 
ENDBRANCH  30  31
ENDBRANCH  29  30
ENDBRANCH  27  29
ENDBRANCH  26  27
ENDBRANCH  23  26
ENDBRANCH  14  15
ENDBRANCH  13  14
ENDBRANCH  12  13
ENDBRANCH  11  12
ENDBRANCH  10  11
ENDBRANCH   1  10
BRANCH   7  33
HETATM   33  C15 UNL     1      18.647  26.531  10.446  1.00  0.00     0.174 C 
HETATM   34  S2  UNL     1      17.369  26.010   9.559  1.00  0.00    -0.041 SA
BRANCH  33  35
HETATM   35  N8  UNL     1      19.888  26.897   9.839  1.00  0.00    -0.362 N 
ATOM     36  H8  UNL     1      19.919  27.553   9.059  1.00  0.00     0.162 HD
BRANCH  35  37
HETATM   37  C16 UNL     1      21.106  26.303  10.371  1.00  0.00     0.085 C 
HETATM   38  C17 UNL     1      21.801  25.390   9.452  1.00  0.00     0.029 C 
HETATM   39  C18 UNL     1      23.212  25.568   9.136  1.00  0.00    -0.012 C 
HETATM   40  C19 UNL     1      24.267  24.779   9.846  1.00  0.00     0.009 C 
HETATM   41  C25 UNL     1      23.554  26.987   9.495  1.00  0.00     0.014 C 
HETATM   42  C20 UNL     1      24.709  25.350  11.155  1.00  0.00    -0.013 C 
HETATM   43  C21 UNL     1      25.454  26.629  11.179  1.00  0.00     0.005 C 
HETATM   44  C24 UNL     1      23.421  25.819  11.786  1.00  0.00     0.014 C 
HETATM   45  C22 UNL     1      24.443  27.771  11.493  1.00  0.00     0.010 C 
HETATM   46  C23 UNL     1      23.255  27.062  10.970  1.00  0.00    -0.038 C 
HETATM   47  C26 UNL     1      21.882  27.427  11.049  1.00  0.00     0.034 C 
ENDBRANCH  35  37
ENDBRANCH  33  35
ENDBRANCH   7  33
TORSDOF 14
ENDMDL
