MODEL 1
REMARK VINA RESULT: -8.112868367      0.000      0.000
REMARK  12 active torsions:
REMARK  status: ('A' for Active; 'I' for Inactive)
REMARK    1  A    between atoms: C2_2  and  C4_4 
REMARK    2  A    between atoms: C4_4  and  O1_5 
REMARK    3  A    between atoms: O1_5  and  C5_6 
REMARK    4  A    between atoms: C5_6  and  C7_11 
REMARK    5  A    between atoms: C10_15  and  O3_16 
REMARK    6  A    between atoms: C10_15  and  C11_18 
REMARK    7  A    between atoms: C11_18  and  C12_19 
REMARK    8  A    between atoms: C12_19  and  C13_20 
REMARK    9  A    between atoms: C15_24  and  C16_25 
REMARK   10  A    between atoms: C16_25  and  O6_26 
REMARK   11  A    between atoms: C16_25  and  C17_28 
REMARK   12  A    between atoms: C20_31  and  O7_32 
ROOT
HETATM    1  C5  UNL     1      -7.769  28.538  82.680  1.00  0.00     0.138 C 
HETATM    2  N1  UNL     1      -6.940  29.565  82.620  1.00  0.00    -0.277 N 
ATOM      3  H1  UNL     1      -7.180  30.412  83.135  1.00  0.00     0.180 HD
HETATM    4  C6  UNL     1      -5.785  29.550  81.907  1.00  0.00     0.183 C 
HETATM    5  N2  UNL     1      -4.815  29.525  81.332  1.00  0.00    -0.172 NA
ENDROOT
BRANCH   1   6
HETATM    6  O1  UNL     1      -8.829  28.831  83.458  1.00  0.00    -0.338 OA
BRANCH   6   7
HETATM    7  C4  UNL     1      -9.085  28.944  84.767  1.00  0.00     0.180 C 
BRANCH   7   8
HETATM    8  C2  UNL     1      -9.429  30.211  85.450  1.00  0.00     0.002 C 
HETATM    9  C1  UNL     1      -9.830  29.905  86.927  1.00  0.00     0.011 C 
HETATM   10  C3  UNL     1      -8.171  31.080  85.617  1.00  0.00     0.011 C 
ENDBRANCH   7   8
ENDBRANCH   6   7
ENDBRANCH   1   6
BRANCH   1  11
HETATM   11  C7  UNL     1      -7.405  27.344  81.936  1.00  0.00     0.138 C 
HETATM   12  C8  UNL     1      -7.528  26.106  82.753  1.00  0.00     0.142 C 
HETATM   13  O2  UNL     1      -7.491  26.055  83.961  1.00  0.00    -0.297 OA
HETATM   14  C9  UNL     1      -7.718  24.812  81.954  1.00  0.00     0.117 C 
HETATM   15  C10 UNL     1      -9.066  24.867  81.382  1.00  0.00     0.065 C 
HETATM   16  C14 UNL     1      -9.437  26.307  80.938  1.00  0.00     0.047 C 
HETATM   17  C15 UNL     1      -8.179  27.094  80.664  1.00  0.00     0.041 C 
BRANCH  15  18
HETATM   18  O3  UNL     1      -9.972  24.598  82.479  1.00  0.00    -0.389 OA
ATOM     19  H3  UNL     1     -10.062  23.653  82.515  1.00  0.00     0.210 HD
ENDBRANCH  15  18
BRANCH  15  20
HETATM   20  C11 UNL     1      -9.380  23.908  80.304  1.00  0.00     0.048 C 
BRANCH  20  21
HETATM   21  C12 UNL     1      -8.319  23.139  79.638  1.00  0.00     0.116 C 
BRANCH  21  22
HETATM   22  C13 UNL     1      -7.949  21.828  80.123  1.00  0.00     0.172 C 
HETATM   23  O4  UNL     1      -8.625  21.116  80.863  1.00  0.00    -0.648 OA
HETATM   24  O5  UNL     1      -6.683  21.332  79.695  1.00  0.00    -0.648 OA
ENDBRANCH  21  22
ENDBRANCH  20  21
ENDBRANCH  15  20
BRANCH  17  25
HETATM   25  C16 UNL     1      -8.399  28.307  79.830  1.00  0.00     0.156 C 
BRANCH  25  26
HETATM   26  O6  UNL     1      -9.736  28.640  79.702  1.00  0.00    -0.390 OA
ATOM     27  H6  UNL     1      -9.887  29.332  79.069  1.00  0.00     0.210 HD
ENDBRANCH  25  26
BRANCH  25  28
HETATM   28  C17 UNL     1      -7.677  28.305  78.536  1.00  0.00    -0.029 A 
HETATM   29  C18 UNL     1      -8.077  27.420  77.555  1.00  0.00     0.012 A 
HETATM   30  C19 UNL     1      -7.440  27.364  76.336  1.00  0.00     0.037 A 
HETATM   31  C20 UNL     1      -6.376  28.187  76.043  1.00  0.00     0.065 A 
HETATM   32  C21 UNL     1      -5.995  29.067  77.048  1.00  0.00     0.037 A 
HETATM   33  C22 UNL     1      -6.603  29.152  78.269  1.00  0.00     0.012 A 
BRANCH  31  34
HETATM   34  O7  UNL     1      -5.719  28.146  74.818  1.00  0.00    -0.361 OA
ATOM     35  H7  UNL     1      -4.787  28.314  74.736  1.00  0.00     0.217 HD
ENDBRANCH  31  34
ENDBRANCH  25  28
ENDBRANCH  17  25
ENDBRANCH   1  11
TORSDOF 12
ENDMDL
MODEL 2
REMARK VINA RESULT: -7.987406540      1.370      1.690
REMARK  12 active torsions:
REMARK  status: ('A' for Active; 'I' for Inactive)
REMARK    1  A    between atoms: C2_2  and  C4_4 
REMARK    2  A    between atoms: C4_4  and  O1_5 
REMARK    3  A    between atoms: O1_5  and  C5_6 
REMARK    4  A    between atoms: C5_6  and  C7_11 
REMARK    5  A    between atoms: C10_15  and  O3_16 
REMARK    6  A    between atoms: C10_15  and  C11_18 
REMARK    7  A    between atoms: C11_18  and  C12_19 
REMARK    8  A    between atoms: C12_19  and  C13_20 
REMARK    9  A    between atoms: C15_24  and  C16_25 
REMARK   10  A    between atoms: C16_25  and  O6_26 
REMARK   11  A    between atoms: C16_25  and  C17_28 
REMARK   12  A    between atoms: C20_31  and  O7_32 
ROOT
HETATM    1  C5  UNL     1      -7.863  28.769  82.791  1.00  0.00     0.138 C 
HETATM    2  N1  UNL     1      -7.111  29.853  82.713  1.00  0.00    -0.277 N 
ATOM      3  H1  UNL     1      -7.435  30.701  83.177  1.00  0.00     0.180 HD
HETATM    4  C6  UNL     1      -5.930  29.893  82.045  1.00  0.00     0.183 C 
HETATM    5  N2  UNL     1      -4.938  29.917  81.509  1.00  0.00    -0.172 NA
ENDROOT
BRANCH   1   6
HETATM    6  O1  UNL     1      -8.973  29.014  83.513  1.00  0.00    -0.338 OA
BRANCH   6   7
HETATM    7  C4  UNL     1      -9.334  29.828  84.513  1.00  0.00     0.180 C 
BRANCH   7   8
HETATM    8  C2  UNL     1      -8.686  29.865  85.843  1.00  0.00     0.002 C 
HETATM    9  C1  UNL     1      -8.002  31.254  86.040  1.00  0.00     0.011 C 
HETATM   10  C3  UNL     1      -9.751  29.855  86.951  1.00  0.00     0.011 C 
ENDBRANCH   7   8
ENDBRANCH   6   7
ENDBRANCH   1   6
BRANCH   1  11
HETATM   11  C7  UNL     1      -7.381  27.573  82.119  1.00  0.00     0.138 C 
HETATM   12  C8  UNL     1      -7.443  26.368  82.990  1.00  0.00     0.142 C 
HETATM   13  O2  UNL     1      -7.450  26.376  84.200  1.00  0.00    -0.297 OA
HETATM   14  C9  UNL     1      -7.502  25.029  82.248  1.00  0.00     0.117 C 
HETATM   15  C10 UNL     1      -8.827  24.953  81.625  1.00  0.00     0.065 C 
HETATM   16  C14 UNL     1      -9.287  26.338  81.099  1.00  0.00     0.047 C 
HETATM   17  C15 UNL     1      -8.083  27.207  80.833  1.00  0.00     0.041 C 
BRANCH  15  18
HETATM   18  O3  UNL     1      -9.753  24.666  82.701  1.00  0.00    -0.389 OA
ATOM     19  H3  UNL     1     -10.557  24.383  82.281  1.00  0.00     0.210 HD
ENDBRANCH  15  18
BRANCH  15  20
HETATM   20  C11 UNL     1      -9.025  23.925  80.585  1.00  0.00     0.048 C 
BRANCH  20  21
HETATM   21  C12 UNL     1      -9.922  24.160  79.445  1.00  0.00     0.116 C 
BRANCH  21  22
HETATM   22  C13 UNL     1     -11.277  23.656  79.462  1.00  0.00     0.172 C 
HETATM   23  O4  UNL     1     -11.917  23.275  78.484  1.00  0.00    -0.648 OA
HETATM   24  O5  UNL     1     -11.913  23.601  80.737  1.00  0.00    -0.648 OA
ENDBRANCH  21  22
ENDBRANCH  20  21
ENDBRANCH  15  20
BRANCH  17  25
HETATM   25  C16 UNL     1      -8.359  28.360  79.934  1.00  0.00     0.156 C 
BRANCH  25  26
HETATM   26  O6  UNL     1      -9.710  28.633  79.804  1.00  0.00    -0.390 OA
ATOM     27  H6  UNL     1      -9.925  29.540  79.988  1.00  0.00     0.210 HD
ENDBRANCH  25  26
BRANCH  25  28
HETATM   28  C17 UNL     1      -7.652  28.313  78.633  1.00  0.00    -0.029 A 
HETATM   29  C18 UNL     1      -8.063  27.394  77.688  1.00  0.00     0.012 A 
HETATM   30  C19 UNL     1      -7.439  27.294  76.465  1.00  0.00     0.037 A 
HETATM   31  C20 UNL     1      -6.379  28.105  76.132  1.00  0.00     0.065 A 
HETATM   32  C21 UNL     1      -5.986  29.019  77.100  1.00  0.00     0.037 A 
HETATM   33  C22 UNL     1      -6.580  29.148  78.324  1.00  0.00     0.012 A 
BRANCH  31  34
HETATM   34  O7  UNL     1      -5.735  28.021  74.902  1.00  0.00    -0.361 OA
ATOM     35  H7  UNL     1      -5.394  28.786  74.453  1.00  0.00     0.217 HD
ENDBRANCH  31  34
ENDBRANCH  25  28
ENDBRANCH  17  25
ENDBRANCH   1  11
TORSDOF 12
ENDMDL
MODEL 3
REMARK VINA RESULT: -7.777686032      2.212      3.391
REMARK  12 active torsions:
REMARK  status: ('A' for Active; 'I' for Inactive)
REMARK    1  A    between atoms: C2_2  and  C4_4 
REMARK    2  A    between atoms: C4_4  and  O1_5 
REMARK    3  A    between atoms: O1_5  and  C5_6 
REMARK    4  A    between atoms: C5_6  and  C7_11 
REMARK    5  A    between atoms: C10_15  and  O3_16 
REMARK    6  A    between atoms: C10_15  and  C11_18 
REMARK    7  A    between atoms: C11_18  and  C12_19 
REMARK    8  A    between atoms: C12_19  and  C13_20 
REMARK    9  A    between atoms: C15_24  and  C16_25 
REMARK   10  A    between atoms: C16_25  and  O6_26 
REMARK   11  A    between atoms: C16_25  and  C17_28 
REMARK   12  A    between atoms: C20_31  and  O7_32 
ROOT
HETATM    1  C5  UNL     1      -9.735  27.694  82.439  1.00  0.00     0.138 C 
HETATM    2  N1  UNL     1      -9.591  28.898  82.963  1.00  0.00    -0.277 N 
ATOM      3  H1  UNL     1     -10.406  29.509  83.004  1.00  0.00     0.180 HD
HETATM    4  C6  UNL     1      -8.412  29.363  83.449  1.00  0.00     0.183 C 
HETATM    5  N2  UNL     1      -7.436  29.739  83.872  1.00  0.00    -0.172 NA
ENDROOT
BRANCH   1   6
HETATM    6  O1  UNL     1     -11.007  27.500  82.042  1.00  0.00    -0.338 OA
BRANCH   6   7
HETATM    7  C4  UNL     1     -12.068  26.795  82.453  1.00  0.00     0.180 C 
BRANCH   7   8
HETATM    8  C2  UNL     1     -12.319  25.377  82.114  1.00  0.00     0.002 C 
HETATM    9  C1  UNL     1     -12.563  24.571  83.427  1.00  0.00     0.011 C 
HETATM   10  C3  UNL     1     -13.663  25.238  81.380  1.00  0.00     0.011 C 
ENDBRANCH   7   8
ENDBRANCH   6   7
ENDBRANCH   1   6
BRANCH   1  11
HETATM   11  C7  UNL     1      -8.557  26.844  82.390  1.00  0.00     0.138 C 
HETATM   12  C8  UNL     1      -8.644  25.698  83.335  1.00  0.00     0.142 C 
HETATM   13  O2  UNL     1      -9.331  25.658  84.330  1.00  0.00    -0.297 OA
HETATM   14  C9  UNL     1      -7.773  24.488  82.978  1.00  0.00     0.117 C 
HETATM   15  C10 UNL     1      -8.375  23.876  81.789  1.00  0.00     0.065 C 
HETATM   16  C14 UNL     1      -8.935  24.949  80.819  1.00  0.00     0.047 C 
HETATM   17  C15 UNL     1      -8.218  26.258  81.040  1.00  0.00     0.041 C 
BRANCH  15  18
HETATM   18  O3  UNL     1      -9.557  23.183  82.258  1.00  0.00    -0.389 OA
ATOM     19  H3  UNL     1     -10.152  23.157  81.518  1.00  0.00     0.210 HD
ENDBRANCH  15  18
BRANCH  15  20
HETATM   20  C11 UNL     1      -7.555  22.899  81.046  1.00  0.00     0.048 C 
BRANCH  20  21
HETATM   21  C12 UNL     1      -7.935  22.459  79.696  1.00  0.00     0.116 C 
BRANCH  21  22
HETATM   22  C13 UNL     1      -9.203  21.803  79.469  1.00  0.00     0.172 C 
HETATM   23  O4  UNL     1      -9.980  22.036  78.545  1.00  0.00    -0.648 OA
HETATM   24  O5  UNL     1      -9.571  20.798  80.411  1.00  0.00    -0.648 OA
ENDBRANCH  21  22
ENDBRANCH  20  21
ENDBRANCH  15  20
BRANCH  17  25
HETATM   25  C16 UNL     1      -8.346  27.214  79.906  1.00  0.00     0.156 C 
BRANCH  25  26
HETATM   26  O6  UNL     1      -8.795  26.614  78.742  1.00  0.00    -0.390 OA
ATOM     27  H6  UNL     1      -8.530  27.081  77.958  1.00  0.00     0.210 HD
ENDBRANCH  25  26
BRANCH  25  28
HETATM   28  C17 UNL     1      -7.164  28.080  79.691  1.00  0.00    -0.029 A 
HETATM   29  C18 UNL     1      -7.000  28.685  78.461  1.00  0.00     0.012 A 
HETATM   30  C19 UNL     1      -5.916  29.492  78.197  1.00  0.00     0.037 A 
HETATM   31  C20 UNL     1      -4.950  29.730  79.147  1.00  0.00     0.065 A 
HETATM   32  C21 UNL     1      -5.139  29.109  80.375  1.00  0.00     0.037 A 
HETATM   33  C22 UNL     1      -6.201  28.302  80.674  1.00  0.00     0.012 A 
BRANCH  31  34
HETATM   34  O7  UNL     1      -3.848  30.543  78.901  1.00  0.00    -0.361 OA
ATOM     35  H7  UNL     1      -3.845  31.471  79.104  1.00  0.00     0.217 HD
ENDBRANCH  31  34
ENDBRANCH  25  28
ENDBRANCH  17  25
ENDBRANCH   1  11
TORSDOF 12
ENDMDL
MODEL 4
REMARK VINA RESULT: -7.684248835      1.665      2.265
REMARK  12 active torsions:
REMARK  status: ('A' for Active; 'I' for Inactive)
REMARK    1  A    between atoms: C2_2  and  C4_4 
REMARK    2  A    between atoms: C4_4  and  O1_5 
REMARK    3  A    between atoms: O1_5  and  C5_6 
REMARK    4  A    between atoms: C5_6  and  C7_11 
REMARK    5  A    between atoms: C10_15  and  O3_16 
REMARK    6  A    between atoms: C10_15  and  C11_18 
REMARK    7  A    between atoms: C11_18  and  C12_19 
REMARK    8  A    between atoms: C12_19  and  C13_20 
REMARK    9  A    between atoms: C15_24  and  C16_25 
REMARK   10  A    between atoms: C16_25  and  O6_26 
REMARK   11  A    between atoms: C16_25  and  C17_28 
REMARK   12  A    between atoms: C20_31  and  O7_32 
ROOT
HETATM    1  C5  UNL     1      -8.037  28.231  82.794  1.00  0.00     0.138 C 
HETATM    2  N1  UNL     1      -7.393  29.376  82.932  1.00  0.00    -0.277 N 
ATOM      3  H1  UNL     1      -7.816  30.104  83.509  1.00  0.00     0.180 HD
HETATM    4  C6  UNL     1      -6.196  29.633  82.346  1.00  0.00     0.183 C 
HETATM    5  N2  UNL     1      -5.191  29.835  81.875  1.00  0.00    -0.172 NA
ENDROOT
BRANCH   1   6
HETATM    6  O1  UNL     1      -9.194  28.253  83.485  1.00  0.00    -0.338 OA
BRANCH   6   7
HETATM    7  C4  UNL     1     -10.462  27.873  83.288  1.00  0.00     0.180 C 
BRANCH   7   8
HETATM    8  C2  UNL     1     -11.027  26.574  83.719  1.00  0.00     0.002 C 
HETATM    9  C1  UNL     1     -11.539  26.701  85.188  1.00  0.00     0.011 C 
HETATM   10  C3  UNL     1     -12.317  26.273  82.939  1.00  0.00     0.011 C 
ENDBRANCH   7   8
ENDBRANCH   6   7
ENDBRANCH   1   6
BRANCH   1  11
HETATM   11  C7  UNL     1      -7.414  27.212  81.966  1.00  0.00     0.138 C 
HETATM   12  C8  UNL     1      -7.471  25.862  82.589  1.00  0.00     0.142 C 
HETATM   13  O2  UNL     1      -7.587  25.639  83.773  1.00  0.00    -0.297 OA
HETATM   14  C9  UNL     1      -7.369  24.686  81.612  1.00  0.00     0.117 C 
HETATM   15  C10 UNL     1      -8.624  24.662  80.854  1.00  0.00     0.065 C 
HETATM   16  C14 UNL     1      -9.131  26.096  80.548  1.00  0.00     0.047 C 
HETATM   17  C15 UNL     1      -7.970  27.061  80.570  1.00  0.00     0.041 C 
BRANCH  15  18
HETATM   18  O3  UNL     1      -9.621  24.128  81.758  1.00  0.00    -0.389 OA
ATOM     19  H3  UNL     1     -10.426  24.081  81.257  1.00  0.00     0.210 HD
ENDBRANCH  15  18
BRANCH  15  20
HETATM   20  C11 UNL     1      -8.655  23.841  79.627  1.00  0.00     0.048 C 
BRANCH  20  21
HETATM   21  C12 UNL     1      -8.992  22.412  79.678  1.00  0.00     0.116 C 
BRANCH  21  22
HETATM   22  C13 UNL     1     -10.285  21.947  79.229  1.00  0.00     0.172 C 
HETATM   23  O4  UNL     1     -10.546  21.511  78.110  1.00  0.00    -0.648 OA
HETATM   24  O5  UNL     1     -11.342  22.006  80.184  1.00  0.00    -0.648 OA
ENDBRANCH  21  22
ENDBRANCH  20  21
ENDBRANCH  15  20
BRANCH  17  25
HETATM   25  C16 UNL     1      -8.245  28.348  79.876  1.00  0.00     0.156 C 
BRANCH  25  26
HETATM   26  O6  UNL     1      -9.595  28.635  79.782  1.00  0.00    -0.390 OA
ATOM     27  H6  UNL     1     -10.143  27.995  80.222  1.00  0.00     0.210 HD
ENDBRANCH  25  26
BRANCH  25  28
HETATM   28  C17 UNL     1      -7.527  28.522  78.591  1.00  0.00    -0.029 A 
HETATM   29  C18 UNL     1      -6.354  29.249  78.581  1.00  0.00     0.012 A 
HETATM   30  C19 UNL     1      -5.647  29.455  77.418  1.00  0.00     0.037 A 
HETATM   31  C20 UNL     1      -6.080  28.945  76.215  1.00  0.00     0.065 A 
HETATM   32  C21 UNL     1      -7.263  28.219  76.254  1.00  0.00     0.037 A 
HETATM   33  C22 UNL     1      -7.991  27.994  77.388  1.00  0.00     0.012 A 
BRANCH  31  34
HETATM   34  O7  UNL     1      -5.381  29.142  75.028  1.00  0.00    -0.361 OA
ATOM     35  H7  UNL     1      -4.989  29.977  74.801  1.00  0.00     0.217 HD
ENDBRANCH  31  34
ENDBRANCH  25  28
ENDBRANCH  17  25
ENDBRANCH   1  11
TORSDOF 12
ENDMDL
MODEL 5
REMARK VINA RESULT: -7.613636780      3.218      6.658
REMARK  12 active torsions:
REMARK  status: ('A' for Active; 'I' for Inactive)
REMARK    1  A    between atoms: C2_2  and  C4_4 
REMARK    2  A    between atoms: C4_4  and  O1_5 
REMARK    3  A    between atoms: O1_5  and  C5_6 
REMARK    4  A    between atoms: C5_6  and  C7_11 
REMARK    5  A    between atoms: C10_15  and  O3_16 
REMARK    6  A    between atoms: C10_15  and  C11_18 
REMARK    7  A    between atoms: C11_18  and  C12_19 
REMARK    8  A    between atoms: C12_19  and  C13_20 
REMARK    9  A    between atoms: C15_24  and  C16_25 
REMARK   10  A    between atoms: C16_25  and  O6_26 
REMARK   11  A    between atoms: C16_25  and  C17_28 
REMARK   12  A    between atoms: C20_31  and  O7_32 
ROOT
HETATM    1  C5  UNL     1      -8.234  27.777  80.748  1.00  0.00     0.138 C 
HETATM    2  N1  UNL     1      -8.847  27.836  79.579  1.00  0.00    -0.277 N 
ATOM      3  H1  UNL     1      -8.949  26.975  79.042  1.00  0.00     0.180 HD
HETATM    4  C6  UNL     1      -9.346  28.985  79.057  1.00  0.00     0.183 C 
HETATM    5  N2  UNL     1      -9.780  29.937  78.636  1.00  0.00    -0.172 NA
ENDROOT
BRANCH   1   6
HETATM    6  O1  UNL     1      -7.845  26.515  81.015  1.00  0.00    -0.338 OA
BRANCH   6   7
HETATM    7  C4  UNL     1      -8.421  25.311  81.118  1.00  0.00     0.180 C 
BRANCH   7   8
HETATM    8  C2  UNL     1      -8.304  24.421  82.295  1.00  0.00     0.002 C 
HETATM    9  C1  UNL     1      -6.962  23.628  82.206  1.00  0.00     0.011 C 
HETATM   10  C3  UNL     1      -8.116  25.255  83.573  1.00  0.00     0.011 C 
ENDBRANCH   7   8
ENDBRANCH   6   7
ENDBRANCH   1   6
BRANCH   1  11
HETATM   11  C7  UNL     1      -8.099  29.017  81.493  1.00  0.00     0.138 C 
HETATM   12  C8  UNL     1      -8.877  29.006  82.762  1.00  0.00     0.142 C 
HETATM   13  O2  UNL     1      -9.840  28.310  82.989  1.00  0.00    -0.297 OA
HETATM   14  C9  UNL     1      -8.379  29.972  83.842  1.00  0.00     0.117 C 
HETATM   15  C10 UNL     1      -7.104  29.437  84.328  1.00  0.00     0.065 C 
HETATM   16  C14 UNL     1      -6.275  28.809  83.176  1.00  0.00     0.047 C 
HETATM   17  C15 UNL     1      -6.690  29.420  81.860  1.00  0.00     0.041 C 
BRANCH  15  18
HETATM   18  O3  UNL     1      -7.445  28.306  85.165  1.00  0.00    -0.389 OA
ATOM     19  H3  UNL     1      -7.347  28.609  86.061  1.00  0.00     0.210 HD
ENDBRANCH  15  18
BRANCH  15  20
HETATM   20  C11 UNL     1      -6.255  30.341  85.129  1.00  0.00     0.048 C 
BRANCH  20  21
HETATM   21  C12 UNL     1      -6.547  31.778  85.217  1.00  0.00     0.116 C 
BRANCH  21  22
HETATM   22  C13 UNL     1      -5.521  32.754  84.923  1.00  0.00     0.172 C 
HETATM   23  O4  UNL     1      -5.552  33.581  84.014  1.00  0.00    -0.648 OA
HETATM   24  O5  UNL     1      -4.379  32.744  85.776  1.00  0.00    -0.648 OA
ENDBRANCH  21  22
ENDBRANCH  20  21
ENDBRANCH  15  20
BRANCH  17  25
HETATM   25  C16 UNL     1      -5.694  29.234  80.770  1.00  0.00     0.156 C 
BRANCH  25  26
HETATM   26  O6  UNL     1      -4.996  28.043  80.873  1.00  0.00    -0.390 OA
ATOM     27  H6  UNL     1      -4.532  27.815  80.076  1.00  0.00     0.210 HD
ENDBRANCH  25  26
BRANCH  25  28
HETATM   28  C17 UNL     1      -4.814  30.402  80.532  1.00  0.00    -0.029 A 
HETATM   29  C18 UNL     1      -4.358  30.638  79.251  1.00  0.00     0.012 A 
HETATM   30  C19 UNL     1      -3.529  31.700  78.968  1.00  0.00     0.037 A 
HETATM   31  C20 UNL     1      -3.117  32.571  79.951  1.00  0.00     0.065 A 
HETATM   32  C21 UNL     1      -3.590  32.309  81.230  1.00  0.00     0.037 A 
HETATM   33  C22 UNL     1      -4.414  31.266  81.549  1.00  0.00     0.012 A 
BRANCH  31  34
HETATM   34  O7  UNL     1      -2.280  33.649  79.687  1.00  0.00    -0.361 OA
ATOM     35  H7  UNL     1      -2.451  34.266  78.985  1.00  0.00     0.217 HD
ENDBRANCH  31  34
ENDBRANCH  25  28
ENDBRANCH  17  25
ENDBRANCH   1  11
TORSDOF 12
ENDMDL
