MODEL 1
REMARK VINA RESULT: -5.268363770      0.000      0.000
REMARK  10 active torsions:
REMARK  status: ('A' for Active; 'I' for Inactive)
REMARK    1  A    between atoms: C2_2  and  C3_3 
REMARK    2  A    between atoms: C3_3  and  C5_5 
REMARK    3  A    between atoms: C5_5  and  C7_7 
REMARK    4  A    between atoms: C5_5  and  C14_17 
REMARK    5  A    between atoms: C7_7  and  C8_8 
REMARK    6  A    between atoms: C8_8  and  C9_9 
REMARK    7  A    between atoms: C9_9  and  N1_10 
REMARK    8  A    between atoms: N1_10  and  C12_13 
REMARK    9  A    between atoms: C12_13  and  C13_14 
REMARK   10  A    between atoms: C13_14  and  O1_15 
ROOT
HETATM    1  C5  UNL     1       0.651  40.036   1.873  1.00  0.00     0.013 C 
HETATM    2  C6  UNL     1       1.410  41.232   1.314  1.00  0.00     0.023 C 
ENDROOT
BRANCH   1   3
HETATM    3  C3  UNL     1       1.656  38.996   2.392  1.00  0.00     0.018 C 
HETATM    4  C4  UNL     1       2.987  39.589   2.694  1.00  0.00     0.015 C 
BRANCH   3   5
HETATM    5  C2  UNL     1       1.653  37.739   1.627  1.00  0.00    -0.031 C 
HETATM    6  C1  UNL     1       2.290  36.645   1.979  1.00  0.00     0.007 C 
ENDBRANCH   3   5
ENDBRANCH   1   3
BRANCH   1   7
HETATM    7  C7  UNL     1      -0.243  39.364   0.944  1.00  0.00     0.018 C 
BRANCH   7   8
HETATM    8  C8  UNL     1      -1.705  39.833   0.889  1.00  0.00     0.029 C 
BRANCH   8   9
HETATM    9  C9  UNL     1      -1.841  40.406  -0.492  1.00  0.00     0.236 C 
BRANCH   9  10
HETATM   10  N1  UNL     1      -2.459  41.704  -0.582  1.00  0.00    -0.073 N 
HETATM   11  C10 UNL     1      -2.282  42.531   0.573  1.00  0.00     0.272 C 
HETATM   12  C11 UNL     1      -3.886  41.426  -0.701  1.00  0.00     0.272 C 
BRANCH  10  13
HETATM   13  C12 UNL     1      -1.983  42.417  -1.736  1.00  0.00     0.262 C 
BRANCH  13  14
HETATM   14  C13 UNL     1      -0.655  43.085  -1.537  1.00  0.00     0.192 C 
BRANCH  14  15
HETATM   15  O1  UNL     1       0.055  43.167  -2.760  1.00  0.00    -0.399 OA
ATOM     16  H1  UNL     1       0.735  42.505  -2.800  1.00  0.00     0.209 HD
ENDBRANCH  14  15
ENDBRANCH  13  14
ENDBRANCH  10  13
ENDBRANCH   9  10
ENDBRANCH   8   9
ENDBRANCH   7   8
ENDBRANCH   1   7
BRANCH   1  17
HETATM   17  C14 UNL     1      -0.000  40.604   3.125  1.00  0.00     0.077 A 
HETATM   18  N2  UNL     1      -0.551  39.992   4.158  1.00  0.00    -0.297 N 
HETATM   19  N3  UNL     1      -0.975  40.661   5.148  1.00  0.00    -0.298 N 
ATOM     20  H2  UNL     1      -0.636  38.975   4.158  1.00  0.00     0.187 HD
HETATM   21  C15 UNL     1      -0.863  41.996   5.149  1.00  0.00     0.064 A 
ATOM     22  H3  UNL     1      -1.400  40.184   5.943  1.00  0.00     0.187 HD
HETATM   23  C16 UNL     1      -1.300  42.900   6.225  1.00  0.00     0.078 C 
HETATM   24  S1  UNL     1      -0.111  42.248   3.639  1.00  0.00    -0.060 SA
ENDBRANCH   1  17
TORSDOF 10
ENDMDL
MODEL 2
REMARK VINA RESULT: -5.260687957      2.300      3.831
REMARK  10 active torsions:
REMARK  status: ('A' for Active; 'I' for Inactive)
REMARK    1  A    between atoms: C2_2  and  C3_3 
REMARK    2  A    between atoms: C3_3  and  C5_5 
REMARK    3  A    between atoms: C5_5  and  C7_7 
REMARK    4  A    between atoms: C5_5  and  C14_17 
REMARK    5  A    between atoms: C7_7  and  C8_8 
REMARK    6  A    between atoms: C8_8  and  C9_9 
REMARK    7  A    between atoms: C9_9  and  N1_10 
REMARK    8  A    between atoms: N1_10  and  C12_13 
REMARK    9  A    between atoms: C12_13  and  C13_14 
REMARK   10  A    between atoms: C13_14  and  O1_15 
ROOT
HETATM    1  C5  UNL     1       0.405  40.796   1.830  1.00  0.00     0.013 C 
HETATM    2  C6  UNL     1       0.041  41.155   3.265  1.00  0.00     0.023 C 
ENDROOT
BRANCH   1   3
HETATM    3  C3  UNL     1       1.046  39.400   1.803  1.00  0.00     0.018 C 
HETATM    4  C4  UNL     1       0.387  38.451   2.742  1.00  0.00     0.015 C 
BRANCH   3   5
HETATM    5  C2  UNL     1       2.518  39.426   1.818  1.00  0.00    -0.031 C 
HETATM    6  C1  UNL     1       3.263  39.093   2.847  1.00  0.00     0.007 C 
ENDBRANCH   3   5
ENDBRANCH   1   3
BRANCH   1   7
HETATM    7  C7  UNL     1       1.311  41.713   1.159  1.00  0.00     0.018 C 
BRANCH   7   8
HETATM    8  C8  UNL     1       0.985  43.214   1.217  1.00  0.00     0.029 C 
BRANCH   8   9
HETATM    9  C9  UNL     1       1.576  43.754  -0.053  1.00  0.00     0.236 C 
BRANCH   9  10
HETATM   10  N1  UNL     1       0.672  44.466  -0.920  1.00  0.00    -0.073 N 
HETATM   11  C10 UNL     1       1.264  45.555  -1.636  1.00  0.00     0.272 C 
HETATM   12  C11 UNL     1      -0.330  45.031  -0.023  1.00  0.00     0.272 C 
BRANCH  10  13
HETATM   13  C12 UNL     1       0.060  43.571  -1.865  1.00  0.00     0.262 C 
BRANCH  13  14
HETATM   14  C13 UNL     1      -1.358  43.211  -1.535  1.00  0.00     0.192 C 
BRANCH  14  15
HETATM   15  O1  UNL     1      -1.734  42.007  -2.179  1.00  0.00    -0.399 OA
ATOM     16  H1  UNL     1      -2.334  41.508  -1.638  1.00  0.00     0.209 HD
ENDBRANCH  14  15
ENDBRANCH  13  14
ENDBRANCH  10  13
ENDBRANCH   9  10
ENDBRANCH   8   9
ENDBRANCH   7   8
ENDBRANCH   1   7
BRANCH   1  17
HETATM   17  C14 UNL     1      -0.955  40.610   1.174  1.00  0.00     0.077 A 
HETATM   18  N2  UNL     1      -1.298  39.943   0.086  1.00  0.00    -0.297 N 
HETATM   19  N3  UNL     1      -2.517  39.849  -0.251  1.00  0.00    -0.298 N 
ATOM     20  H2  UNL     1      -0.577  39.500  -0.486  1.00  0.00     0.187 HD
HETATM   21  C15 UNL     1      -3.464  40.429   0.499  1.00  0.00     0.064 A 
ATOM     22  H3  UNL     1      -2.776  39.334  -1.092  1.00  0.00     0.187 HD
HETATM   23  C16 UNL     1      -4.911  40.399   0.239  1.00  0.00     0.078 C 
HETATM   24  S1  UNL     1      -2.507  41.125   1.727  1.00  0.00    -0.060 SA
ENDBRANCH   1  17
TORSDOF 10
ENDMDL
MODEL 3
REMARK VINA RESULT: -5.225985173      1.982      2.439
REMARK  10 active torsions:
REMARK  status: ('A' for Active; 'I' for Inactive)
REMARK    1  A    between atoms: C2_2  and  C3_3 
REMARK    2  A    between atoms: C3_3  and  C5_5 
REMARK    3  A    between atoms: C5_5  and  C7_7 
REMARK    4  A    between atoms: C5_5  and  C14_17 
REMARK    5  A    between atoms: C7_7  and  C8_8 
REMARK    6  A    between atoms: C8_8  and  C9_9 
REMARK    7  A    between atoms: C9_9  and  N1_10 
REMARK    8  A    between atoms: N1_10  and  C12_13 
REMARK    9  A    between atoms: C12_13  and  C13_14 
REMARK   10  A    between atoms: C13_14  and  O1_15 
ROOT
HETATM    1  C5  UNL     1       0.608  40.107   1.862  1.00  0.00     0.013 C 
HETATM    2  C6  UNL     1       1.398  41.269   1.276  1.00  0.00     0.023 C 
ENDROOT
BRANCH   1   3
HETATM    3  C3  UNL     1       1.585  39.050   2.399  1.00  0.00     0.018 C 
HETATM    4  C4  UNL     1       2.929  39.614   2.700  1.00  0.00     0.015 C 
BRANCH   3   5
HETATM    5  C2  UNL     1       1.555  37.783   1.650  1.00  0.00    -0.031 C 
HETATM    6  C1  UNL     1       2.322  36.747   1.898  1.00  0.00     0.007 C 
ENDBRANCH   3   5
ENDBRANCH   1   3
BRANCH   1   7
HETATM    7  C7  UNL     1      -0.308  39.442   0.950  1.00  0.00     0.018 C 
BRANCH   7   8
HETATM    8  C8  UNL     1      -1.128  40.319  -0.008  1.00  0.00     0.029 C 
BRANCH   8   9
HETATM    9  C9  UNL     1      -2.536  39.833   0.183  1.00  0.00     0.236 C 
BRANCH   9  10
HETATM   10  N1  UNL     1      -3.545  40.851   0.327  1.00  0.00    -0.073 N 
HETATM   11  C10 UNL     1      -4.888  40.360   0.360  1.00  0.00     0.272 C 
HETATM   12  C11 UNL     1      -3.413  41.672  -0.871  1.00  0.00     0.272 C 
BRANCH  10  13
HETATM   13  C12 UNL     1      -3.311  41.637   1.509  1.00  0.00     0.262 C 
BRANCH  13  14
HETATM   14  C13 UNL     1      -4.264  41.349   2.631  1.00  0.00     0.192 C 
BRANCH  14  15
HETATM   15  O1  UNL     1      -3.604  40.682   3.691  1.00  0.00    -0.399 OA
ATOM     16  H1  UNL     1      -4.231  40.248   4.259  1.00  0.00     0.209 HD
ENDBRANCH  14  15
ENDBRANCH  13  14
ENDBRANCH  10  13
ENDBRANCH   9  10
ENDBRANCH   8   9
ENDBRANCH   7   8
ENDBRANCH   1   7
BRANCH   1  17
HETATM   17  C14 UNL     1      -0.022  40.719   3.104  1.00  0.00     0.077 A 
HETATM   18  N2  UNL     1      -0.599  40.145   4.144  1.00  0.00    -0.297 N 
HETATM   19  N3  UNL     1      -0.997  40.845   5.124  1.00  0.00    -0.298 N 
ATOM     20  H2  UNL     1      -0.725  39.132   4.159  1.00  0.00     0.187 HD
HETATM   21  C15 UNL     1      -0.831  42.174   5.106  1.00  0.00     0.064 A 
ATOM     22  H3  UNL     1      -1.442  40.397   5.925  1.00  0.00     0.187 HD
HETATM   23  C16 UNL     1      -1.233  43.110   6.168  1.00  0.00     0.078 C 
HETATM   24  S1  UNL     1      -0.067  42.373   3.595  1.00  0.00    -0.060 SA
ENDBRANCH   1  17
TORSDOF 10
ENDMDL
MODEL 4
REMARK VINA RESULT: -5.201806948      2.238      3.892
REMARK  10 active torsions:
REMARK  status: ('A' for Active; 'I' for Inactive)
REMARK    1  A    between atoms: C2_2  and  C3_3 
REMARK    2  A    between atoms: C3_3  and  C5_5 
REMARK    3  A    between atoms: C5_5  and  C7_7 
REMARK    4  A    between atoms: C5_5  and  C14_17 
REMARK    5  A    between atoms: C7_7  and  C8_8 
REMARK    6  A    between atoms: C8_8  and  C9_9 
REMARK    7  A    between atoms: C9_9  and  N1_10 
REMARK    8  A    between atoms: N1_10  and  C12_13 
REMARK    9  A    between atoms: C12_13  and  C13_14 
REMARK   10  A    between atoms: C13_14  and  O1_15 
ROOT
HETATM    1  C5  UNL     1       0.442  39.275   2.041  1.00  0.00     0.013 C 
HETATM    2  C6  UNL     1      -0.093  39.712   3.398  1.00  0.00     0.023 C 
ENDROOT
BRANCH   1   3
HETATM    3  C3  UNL     1       1.693  40.100   1.700  1.00  0.00     0.018 C 
HETATM    4  C4  UNL     1       2.664  40.158   2.827  1.00  0.00     0.015 C 
BRANCH   3   5
HETATM    5  C2  UNL     1       1.395  41.372   1.022  1.00  0.00    -0.031 C 
HETATM    6  C1  UNL     1       1.015  42.473   1.628  1.00  0.00     0.007 C 
ENDBRANCH   3   5
ENDBRANCH   1   3
BRANCH   1   7
HETATM    7  C7  UNL     1      -0.484  39.394   0.928  1.00  0.00     0.018 C 
BRANCH   7   8
HETATM    8  C8  UNL     1      -1.845  40.055   1.195  1.00  0.00     0.029 C 
BRANCH   8   9
HETATM    9  C9  UNL     1      -2.430  40.229  -0.177  1.00  0.00     0.236 C 
BRANCH   9  10
HETATM   10  N1  UNL     1      -2.858  41.561  -0.519  1.00  0.00    -0.073 N 
HETATM   11  C10 UNL     1      -2.664  42.535   0.512  1.00  0.00     0.272 C 
HETATM   12  C11 UNL     1      -4.295  41.442  -0.738  1.00  0.00     0.272 C 
BRANCH  10  13
HETATM   13  C12 UNL     1      -2.199  42.018  -1.713  1.00  0.00     0.262 C 
BRANCH  13  14
HETATM   14  C13 UNL     1      -1.067  42.968  -1.462  1.00  0.00     0.192 C 
BRANCH  14  15
HETATM   15  O1  UNL     1      -0.237  43.075  -2.604  1.00  0.00    -0.399 OA
ATOM     16  H1  UNL     1       0.069  42.219  -2.880  1.00  0.00     0.209 HD
ENDBRANCH  14  15
ENDBRANCH  13  14
ENDBRANCH  10  13
ENDBRANCH   9  10
ENDBRANCH   8   9
ENDBRANCH   7   8
ENDBRANCH   1   7
BRANCH   1  17
HETATM   17  C14 UNL     1       0.967  37.874   2.321  1.00  0.00     0.077 A 
HETATM   18  N2  UNL     1       0.537  36.951   3.163  1.00  0.00    -0.297 N 
HETATM   19  N3  UNL     1       1.079  35.805   3.187  1.00  0.00    -0.298 N 
ATOM     20  H2  UNL     1      -0.234  37.162   3.797  1.00  0.00     0.187 HD
HETATM   21  C15 UNL     1       2.090  35.526   2.354  1.00  0.00     0.064 A 
ATOM     22  H3  UNL     1       0.744  35.095   3.840  1.00  0.00     0.187 HD
HETATM   23  C16 UNL     1       2.807  34.244   2.263  1.00  0.00     0.078 C 
HETATM   24  S1  UNL     1       2.230  37.009   1.524  1.00  0.00    -0.060 SA
ENDBRANCH   1  17
TORSDOF 10
ENDMDL
MODEL 5
REMARK VINA RESULT: -5.167637155      1.944      2.406
REMARK  10 active torsions:
REMARK  status: ('A' for Active; 'I' for Inactive)
REMARK    1  A    between atoms: C2_2  and  C3_3 
REMARK    2  A    between atoms: C3_3  and  C5_5 
REMARK    3  A    between atoms: C5_5  and  C7_7 
REMARK    4  A    between atoms: C5_5  and  C14_17 
REMARK    5  A    between atoms: C7_7  and  C8_8 
REMARK    6  A    between atoms: C8_8  and  C9_9 
REMARK    7  A    between atoms: C9_9  and  N1_10 
REMARK    8  A    between atoms: N1_10  and  C12_13 
REMARK    9  A    between atoms: C12_13  and  C13_14 
REMARK   10  A    between atoms: C13_14  and  O1_15 
ROOT
HETATM    1  C5  UNL     1       0.625  40.054   1.875  1.00  0.00     0.013 C 
HETATM    2  C6  UNL     1       1.399  41.225   1.284  1.00  0.00     0.023 C 
ENDROOT
BRANCH   1   3
HETATM    3  C3  UNL     1       1.617  39.010   2.411  1.00  0.00     0.018 C 
HETATM    4  C4  UNL     1       2.947  39.597   2.730  1.00  0.00     0.015 C 
BRANCH   3   5
HETATM    5  C2  UNL     1       1.619  37.751   1.647  1.00  0.00    -0.031 C 
HETATM    6  C1  UNL     1       2.338  36.694   1.947  1.00  0.00     0.007 C 
ENDBRANCH   3   5
ENDBRANCH   1   3
BRANCH   1   7
HETATM    7  C7  UNL     1      -0.286  39.376   0.968  1.00  0.00     0.018 C 
BRANCH   7   8
HETATM    8  C8  UNL     1      -1.108  40.240  -0.001  1.00  0.00     0.029 C 
BRANCH   8   9
HETATM    9  C9  UNL     1      -2.527  39.999   0.427  1.00  0.00     0.236 C 
BRANCH   9  10
HETATM   10  N1  UNL     1      -3.290  41.168   0.783  1.00  0.00    -0.073 N 
HETATM   11  C10 UNL     1      -2.601  42.409   0.598  1.00  0.00     0.272 C 
HETATM   12  C11 UNL     1      -3.543  41.022   2.212  1.00  0.00     0.272 C 
BRANCH  10  13
HETATM   13  C12 UNL     1      -4.526  41.213   0.051  1.00  0.00     0.262 C 
BRANCH  13  14
HETATM   14  C13 UNL     1      -5.650  40.463   0.702  1.00  0.00     0.192 C 
BRANCH  14  15
HETATM   15  O1  UNL     1      -6.127  39.435  -0.146  1.00  0.00    -0.399 OA
ATOM     16  H1  UNL     1      -6.922  39.051   0.204  1.00  0.00     0.209 HD
ENDBRANCH  14  15
ENDBRANCH  13  14
ENDBRANCH  10  13
ENDBRANCH   9  10
ENDBRANCH   8   9
ENDBRANCH   7   8
ENDBRANCH   1   7
BRANCH   1  17
HETATM   17  C14 UNL     1      -0.008  40.660   3.119  1.00  0.00     0.077 A 
HETATM   18  N2  UNL     1      -0.567  40.080   4.165  1.00  0.00    -0.297 N 
HETATM   19  N3  UNL     1      -0.972  40.777   5.145  1.00  0.00    -0.298 N 
ATOM     20  H2  UNL     1      -0.673  39.065   4.186  1.00  0.00     0.187 HD
HETATM   21  C15 UNL     1      -0.831  42.109   5.119  1.00  0.00     0.064 A 
ATOM     22  H3  UNL     1      -1.404  40.324   5.950  1.00  0.00     0.187 HD
HETATM   23  C16 UNL     1      -1.244  43.042   6.179  1.00  0.00     0.078 C 
HETATM   24  S1  UNL     1      -0.081  42.315   3.601  1.00  0.00    -0.060 SA
ENDBRANCH   1  17
TORSDOF 10
ENDMDL
