MODEL 1
REMARK VINA RESULT: -5.280261181      0.000      0.000
REMARK  10 active torsions:
REMARK  status: ('A' for Active; 'I' for Inactive)
REMARK    1  A    between atoms: C2_2  and  C3_3 
REMARK    2  A    between atoms: C3_3  and  N1_5 
REMARK    3  A    between atoms: N1_5  and  C5_6 
REMARK    4  A    between atoms: C5_6  and  C6_7 
REMARK    5  A    between atoms: C8_9  and  C9_10 
REMARK    6  A    between atoms: C9_10  and  N2_11 
REMARK    7  A    between atoms: C9_10  and  C10_15 
REMARK    8  A    between atoms: C10_15  and  O1_16 
REMARK    9  A    between atoms: O1_16  and  C11_17 
REMARK   10  A    between atoms: C11_17  and  C12_19 
ROOT
HETATM    1  C9  UNL     1      -3.661  41.784   3.332  1.00  0.00     0.246 C 
ENDROOT
BRANCH   1   2
HETATM    2  C8  UNL     1      -3.174  40.870   4.430  1.00  0.00     0.098 C 
HETATM    3  N1  UNL     1      -2.390  41.301   5.435  1.00  0.00    -0.364 N 
BRANCH   3   4
HETATM    4  C3  UNL     1      -2.482  40.470   6.648  1.00  0.00     0.106 C 
HETATM    5  C4  UNL     1      -3.872  39.849   6.591  1.00  0.00     0.037 C 
BRANCH   4   6
HETATM    6  C2  UNL     1      -1.433  39.411   6.701  1.00  0.00    -0.012 C 
HETATM    7  C1  UNL     1      -1.345  38.667   7.742  1.00  0.00     0.009 C 
ENDBRANCH   4   6
ENDBRANCH   3   4
BRANCH   3   8
HETATM    8  C5  UNL     1      -1.646  42.422   5.705  1.00  0.00     0.063 C 
BRANCH   8   9
HETATM    9  C6  UNL     1      -0.239  42.579   5.243  1.00  0.00     0.040 C 
HETATM   10  C7  UNL     1       0.670  42.952   6.453  1.00  0.00     0.010 C 
ENDBRANCH   8   9
ENDBRANCH   3   8
ENDBRANCH   1   2
BRANCH   1  11
HETATM   11  N2  UNL     1      -4.766  41.018   2.661  1.00  0.00    -0.068 N 
ATOM     12  H23 UNL     1      -5.424  40.584   3.309  1.00  0.00     0.275 HD
ATOM     13  H22 UNL     1      -5.448  41.606   2.183  1.00  0.00     0.275 HD
ATOM     14  H21 UNL     1      -4.288  40.356   2.050  1.00  0.00     0.275 HD
ENDBRANCH   1  11
BRANCH   1  15
HETATM   15  C10 UNL     1      -2.592  41.800   2.245  1.00  0.00     0.217 C 
BRANCH  15  16
HETATM   16  O1  UNL     1      -2.395  40.622   1.560  1.00  0.00    -0.319 OA
BRANCH  16  17
HETATM   17  C11 UNL     1      -1.117  40.143   1.321  1.00  0.00     0.263 C 
HETATM   18  O2  UNL     1      -0.960  39.459   0.267  1.00  0.00    -0.265 OA
BRANCH  17  19
HETATM   19  C12 UNL     1       0.049  40.401   2.244  1.00  0.00     0.085 C 
HETATM   20  C13 UNL     1       0.038  39.268   3.256  1.00  0.00     0.015 C 
HETATM   21  C14 UNL     1       0.764  38.059   2.715  1.00  0.00     0.005 C 
HETATM   22  C15 UNL     1       2.220  38.400   2.639  1.00  0.00    -0.019 C 
HETATM   23  C16 UNL     1       3.018  37.249   2.000  1.00  0.00     0.010 C 
HETATM   24  C17 UNL     1       2.441  39.627   1.851  1.00  0.00     0.005 C 
HETATM   25  C18 UNL     1       1.279  40.427   1.418  1.00  0.00     0.015 C 
ENDBRANCH  17  19
ENDBRANCH  16  17
ENDBRANCH  15  16
ENDBRANCH   1  15
TORSDOF 10
ENDMDL
MODEL 2
REMARK VINA RESULT: -5.198002068      3.562      6.073
REMARK  10 active torsions:
REMARK  status: ('A' for Active; 'I' for Inactive)
REMARK    1  A    between atoms: C2_2  and  C3_3 
REMARK    2  A    between atoms: C3_3  and  N1_5 
REMARK    3  A    between atoms: N1_5  and  C5_6 
REMARK    4  A    between atoms: C5_6  and  C6_7 
REMARK    5  A    between atoms: C8_9  and  C9_10 
REMARK    6  A    between atoms: C9_10  and  N2_11 
REMARK    7  A    between atoms: C9_10  and  C10_15 
REMARK    8  A    between atoms: C10_15  and  O1_16 
REMARK    9  A    between atoms: O1_16  and  C11_17 
REMARK   10  A    between atoms: C11_17  and  C12_19 
ROOT
HETATM    1  C9  UNL     1      -1.877  42.506  -0.737  1.00  0.00     0.246 C 
ENDROOT
BRANCH   1   2
HETATM    2  C8  UNL     1      -3.038  42.085  -1.603  1.00  0.00     0.098 C 
HETATM    3  N1  UNL     1      -4.281  41.915  -1.113  1.00  0.00    -0.364 N 
BRANCH   3   4
HETATM    4  C3  UNL     1      -5.337  42.060  -2.129  1.00  0.00     0.106 C 
HETATM    5  C4  UNL     1      -6.435  42.860  -1.439  1.00  0.00     0.037 C 
BRANCH   4   6
HETATM    6  C2  UNL     1      -4.863  42.765  -3.356  1.00  0.00    -0.012 C 
HETATM    7  C1  UNL     1      -5.367  42.451  -4.493  1.00  0.00     0.009 C 
ENDBRANCH   4   6
ENDBRANCH   3   4
BRANCH   3   8
HETATM    8  C5  UNL     1      -4.854  41.812   0.130  1.00  0.00     0.063 C 
BRANCH   8   9
HETATM    9  C6  UNL     1      -4.774  40.571   0.948  1.00  0.00     0.040 C 
HETATM   10  C7  UNL     1      -6.140  40.324   1.657  1.00  0.00     0.010 C 
ENDBRANCH   8   9
ENDBRANCH   3   8
ENDBRANCH   1   2
BRANCH   1  11
HETATM   11  N2  UNL     1      -0.831  42.980  -1.708  1.00  0.00    -0.068 N 
ATOM     12  H23 UNL     1      -0.274  42.231  -2.117  1.00  0.00     0.275 HD
ATOM     13  H22 UNL     1      -1.210  43.334  -2.586  1.00  0.00     0.275 HD
ATOM     14  H21 UNL     1      -0.286  43.665  -1.185  1.00  0.00     0.275 HD
ENDBRANCH   1  11
BRANCH   1  15
HETATM   15  C10 UNL     1      -1.234  41.237  -0.188  1.00  0.00     0.217 C 
BRANCH  15  16
HETATM   16  O1  UNL     1      -0.780  41.292   1.111  1.00  0.00    -0.319 OA
BRANCH  16  17
HETATM   17  C11 UNL     1       0.576  41.334   1.390  1.00  0.00     0.263 C 
HETATM   18  O2  UNL     1       1.298  41.986   0.580  1.00  0.00    -0.265 OA
BRANCH  17  19
HETATM   19  C12 UNL     1       1.196  40.648   2.584  1.00  0.00     0.085 C 
HETATM   20  C13 UNL     1       0.233  39.540   2.975  1.00  0.00     0.015 C 
HETATM   21  C14 UNL     1       0.487  38.295   2.158  1.00  0.00     0.005 C 
HETATM   22  C15 UNL     1       1.806  37.732   2.587  1.00  0.00    -0.019 C 
HETATM   23  C16 UNL     1       2.185  36.513   1.726  1.00  0.00     0.010 C 
HETATM   24  C17 UNL     1       2.877  38.740   2.481  1.00  0.00     0.005 C 
HETATM   25  C18 UNL     1       2.525  40.139   2.170  1.00  0.00     0.015 C 
ENDBRANCH  17  19
ENDBRANCH  16  17
ENDBRANCH  15  16
ENDBRANCH   1  15
TORSDOF 10
ENDMDL
MODEL 3
REMARK VINA RESULT: -5.100788897      3.504      5.881
REMARK  10 active torsions:
REMARK  status: ('A' for Active; 'I' for Inactive)
REMARK    1  A    between atoms: C2_2  and  C3_3 
REMARK    2  A    between atoms: C3_3  and  N1_5 
REMARK    3  A    between atoms: N1_5  and  C5_6 
REMARK    4  A    between atoms: C5_6  and  C6_7 
REMARK    5  A    between atoms: C8_9  and  C9_10 
REMARK    6  A    between atoms: C9_10  and  N2_11 
REMARK    7  A    between atoms: C9_10  and  C10_15 
REMARK    8  A    between atoms: C10_15  and  O1_16 
REMARK    9  A    between atoms: O1_16  and  C11_17 
REMARK   10  A    between atoms: C11_17  and  C12_19 
ROOT
HETATM    1  C9  UNL     1      -2.087  41.120  -0.882  1.00  0.00     0.246 C 
ENDROOT
BRANCH   1   2
HETATM    2  C8  UNL     1      -3.472  41.185  -0.287  1.00  0.00     0.098 C 
HETATM    3  N1  UNL     1      -4.522  41.700  -0.955  1.00  0.00    -0.364 N 
BRANCH   3   4
HETATM    4  C3  UNL     1      -5.822  41.189  -0.487  1.00  0.00     0.106 C 
HETATM    5  C4  UNL     1      -5.503  39.851   0.167  1.00  0.00     0.037 C 
BRANCH   4   6
HETATM    6  C2  UNL     1      -6.485  42.106   0.485  1.00  0.00    -0.012 C 
HETATM    7  C1  UNL     1      -7.686  42.496   0.260  1.00  0.00     0.009 C 
ENDBRANCH   4   6
ENDBRANCH   3   4
BRANCH   3   8
HETATM    8  C5  UNL     1      -4.708  42.453  -2.086  1.00  0.00     0.063 C 
BRANCH   8   9
HETATM    9  C6  UNL     1      -5.725  42.108  -3.119  1.00  0.00     0.040 C 
HETATM   10  C7  UNL     1      -5.278  42.674  -4.501  1.00  0.00     0.010 C 
ENDBRANCH   8   9
ENDBRANCH   3   8
ENDBRANCH   1   2
BRANCH   1  11
HETATM   11  N2  UNL     1      -1.612  39.724  -0.590  1.00  0.00    -0.068 N 
ATOM     12  H23 UNL     1      -0.958  39.663   0.191  1.00  0.00     0.275 HD
ATOM     13  H22 UNL     1      -2.327  39.118  -0.188  1.00  0.00     0.275 HD
ATOM     14  H21 UNL     1      -1.234  39.390  -1.475  1.00  0.00     0.275 HD
ENDBRANCH   1  11
BRANCH   1  15
HETATM   15  C10 UNL     1      -1.169  41.951   0.008  1.00  0.00     0.217 C 
BRANCH  15  16
HETATM   16  O1  UNL     1      -0.697  41.336   1.146  1.00  0.00    -0.319 OA
BRANCH  16  17
HETATM   17  C11 UNL     1       0.656  41.328   1.441  1.00  0.00     0.263 C 
HETATM   18  O2  UNL     1       1.410  41.966   0.649  1.00  0.00    -0.265 OA
BRANCH  17  19
HETATM   19  C12 UNL     1       1.238  40.607   2.633  1.00  0.00     0.085 C 
HETATM   20  C13 UNL     1       0.252  39.502   2.975  1.00  0.00     0.015 C 
HETATM   21  C14 UNL     1       0.510  38.274   2.134  1.00  0.00     0.005 C 
HETATM   22  C15 UNL     1       1.811  37.684   2.581  1.00  0.00    -0.019 C 
HETATM   23  C16 UNL     1       2.195  36.480   1.701  1.00  0.00     0.010 C 
HETATM   24  C17 UNL     1       2.897  38.680   2.525  1.00  0.00     0.005 C 
HETATM   25  C18 UNL     1       2.570  40.090   2.239  1.00  0.00     0.015 C 
ENDBRANCH  17  19
ENDBRANCH  16  17
ENDBRANCH  15  16
ENDBRANCH   1  15
TORSDOF 10
ENDMDL
MODEL 4
REMARK VINA RESULT: -5.077623975      2.747      4.635
REMARK  10 active torsions:
REMARK  status: ('A' for Active; 'I' for Inactive)
REMARK    1  A    between atoms: C2_2  and  C3_3 
REMARK    2  A    between atoms: C3_3  and  N1_5 
REMARK    3  A    between atoms: N1_5  and  C5_6 
REMARK    4  A    between atoms: C5_6  and  C6_7 
REMARK    5  A    between atoms: C8_9  and  C9_10 
REMARK    6  A    between atoms: C9_10  and  N2_11 
REMARK    7  A    between atoms: C9_10  and  C10_15 
REMARK    8  A    between atoms: C10_15  and  O1_16 
REMARK    9  A    between atoms: O1_16  and  C11_17 
REMARK   10  A    between atoms: C11_17  and  C12_19 
ROOT
HETATM    1  C9  UNL     1      -2.369  42.174  -0.422  1.00  0.00     0.246 C 
ENDROOT
BRANCH   1   2
HETATM    2  C8  UNL     1      -3.428  41.099  -0.381  1.00  0.00     0.098 C 
HETATM    3  N1  UNL     1      -4.230  40.916   0.683  1.00  0.00    -0.364 N 
BRANCH   3   4
HETATM    4  C3  UNL     1      -5.503  40.252   0.350  1.00  0.00     0.106 C 
HETATM    5  C4  UNL     1      -6.408  40.524   1.545  1.00  0.00     0.037 C 
BRANCH   4   6
HETATM    6  C2  UNL     1      -6.115  40.777  -0.905  1.00  0.00    -0.012 C 
HETATM    7  C1  UNL     1      -7.048  40.106  -1.475  1.00  0.00     0.009 C 
ENDBRANCH   4   6
ENDBRANCH   3   4
BRANCH   3   8
HETATM    8  C5  UNL     1      -4.265  41.339   1.988  1.00  0.00     0.063 C 
BRANCH   8   9
HETATM    9  C6  UNL     1      -3.231  40.945   2.985  1.00  0.00     0.040 C 
HETATM   10  C7  UNL     1      -2.601  42.223   3.618  1.00  0.00     0.010 C 
ENDBRANCH   8   9
ENDBRANCH   3   8
ENDBRANCH   1   2
BRANCH   1  11
HETATM   11  N2  UNL     1      -2.363  42.648  -1.849  1.00  0.00    -0.068 N 
ATOM     12  H23 UNL     1      -1.432  42.712  -2.261  1.00  0.00     0.275 HD
ATOM     13  H22 UNL     1      -2.735  41.970  -2.513  1.00  0.00     0.275 HD
ATOM     14  H21 UNL     1      -2.870  43.532  -1.829  1.00  0.00     0.275 HD
ENDBRANCH   1  11
BRANCH   1  15
HETATM   15  C10 UNL     1      -1.014  41.484  -0.320  1.00  0.00     0.217 C 
BRANCH  15  16
HETATM   16  O1  UNL     1      -0.618  41.091   0.939  1.00  0.00    -0.319 OA
BRANCH  16  17
HETATM   17  C11 UNL     1       0.688  41.269   1.363  1.00  0.00     0.263 C 
HETATM   18  O2  UNL     1       1.404  42.049   0.669  1.00  0.00    -0.265 OA
BRANCH  17  19
HETATM   19  C12 UNL     1       1.263  40.586   2.580  1.00  0.00     0.085 C 
HETATM   20  C13 UNL     1       0.272  39.496   2.954  1.00  0.00     0.015 C 
HETATM   21  C14 UNL     1       0.530  38.240   2.155  1.00  0.00     0.005 C 
HETATM   22  C15 UNL     1       1.828  37.661   2.626  1.00  0.00    -0.019 C 
HETATM   23  C16 UNL     1       2.213  36.428   1.788  1.00  0.00     0.010 C 
HETATM   24  C17 UNL     1       2.917  38.652   2.543  1.00  0.00     0.005 C 
HETATM   25  C18 UNL     1       2.595  40.053   2.209  1.00  0.00     0.015 C 
ENDBRANCH  17  19
ENDBRANCH  16  17
ENDBRANCH  15  16
ENDBRANCH   1  15
TORSDOF 10
ENDMDL
MODEL 5
REMARK VINA RESULT: -5.070400589      2.341      5.140
REMARK  10 active torsions:
REMARK  status: ('A' for Active; 'I' for Inactive)
REMARK    1  A    between atoms: C2_2  and  C3_3 
REMARK    2  A    between atoms: C3_3  and  N1_5 
REMARK    3  A    between atoms: N1_5  and  C5_6 
REMARK    4  A    between atoms: C5_6  and  C6_7 
REMARK    5  A    between atoms: C8_9  and  C9_10 
REMARK    6  A    between atoms: C9_10  and  N2_11 
REMARK    7  A    between atoms: C9_10  and  C10_15 
REMARK    8  A    between atoms: C10_15  and  O1_16 
REMARK    9  A    between atoms: O1_16  and  C11_17 
REMARK   10  A    between atoms: C11_17  and  C12_19 
ROOT
HETATM    1  C9  UNL     1      -0.946  40.853   4.373  1.00  0.00     0.246 C 
ENDROOT
BRANCH   1   2
HETATM    2  C8  UNL     1      -0.422  39.845   3.380  1.00  0.00     0.098 C 
HETATM    3  N1  UNL     1       0.610  40.111   2.557  1.00  0.00    -0.364 N 
BRANCH   3   4
HETATM    4  C3  UNL     1       1.317  38.903   2.095  1.00  0.00     0.106 C 
HETATM    5  C4  UNL     1       2.778  39.148   2.446  1.00  0.00     0.037 C 
BRANCH   4   6
HETATM    6  C2  UNL     1       0.819  37.659   2.750  1.00  0.00    -0.012 C 
HETATM    7  C1  UNL     1       1.558  36.611   2.748  1.00  0.00     0.009 C 
ENDBRANCH   4   6
ENDBRANCH   3   4
BRANCH   3   8
HETATM    8  C5  UNL     1       1.305  41.225   2.160  1.00  0.00     0.063 C 
BRANCH   8   9
HETATM    9  C6  UNL     1       0.857  42.088   1.032  1.00  0.00     0.040 C 
HETATM   10  C7  UNL     1       0.100  43.330   1.594  1.00  0.00     0.010 C 
ENDBRANCH   8   9
ENDBRANCH   3   8
ENDBRANCH   1   2
BRANCH   1  11
HETATM   11  N2  UNL     1      -1.147  40.071   5.640  1.00  0.00    -0.068 N 
ATOM     12  H23 UNL     1      -1.563  39.150   5.498  1.00  0.00     0.275 HD
ATOM     13  H22 UNL     1      -0.282  39.741   6.066  1.00  0.00     0.275 HD
ATOM     14  H21 UNL     1      -1.697  40.686   6.239  1.00  0.00     0.275 HD
ENDBRANCH   1  11
BRANCH   1  15
HETATM   15  C10 UNL     1      -2.383  41.177   3.978  1.00  0.00     0.217 C 
BRANCH  15  16
HETATM   16  O1  UNL     1      -2.615  41.408   2.641  1.00  0.00    -0.319 OA
BRANCH  16  17
HETATM   17  C11 UNL     1      -3.748  40.912   2.019  1.00  0.00     0.263 C 
HETATM   18  O2  UNL     1      -4.797  40.847   2.726  1.00  0.00    -0.265 OA
BRANCH  17  19
HETATM   19  C12 UNL     1      -3.770  40.460   0.579  1.00  0.00     0.085 C 
HETATM   20  C13 UNL     1      -4.315  41.632  -0.219  1.00  0.00     0.015 C 
HETATM   21  C14 UNL     1      -3.212  42.605  -0.564  1.00  0.00     0.005 C 
HETATM   22  C15 UNL     1      -2.314  41.937  -1.560  1.00  0.00    -0.019 C 
HETATM   23  C16 UNL     1      -1.104  42.829  -1.888  1.00  0.00     0.010 C 
HETATM   24  C17 UNL     1      -1.826  40.641  -1.054  1.00  0.00     0.005 C 
HETATM   25  C18 UNL     1      -2.383  40.098   0.200  1.00  0.00     0.015 C 
ENDBRANCH  17  19
ENDBRANCH  16  17
ENDBRANCH  15  16
ENDBRANCH   1  15
TORSDOF 10
ENDMDL
