MODEL 1
REMARK VINA RESULT: -5.326992634      0.000      0.000
REMARK  1 active torsions:
REMARK  status: ('A' for Active; 'I' for Inactive)
REMARK       I    between atoms: N1_1  and  C1_5 
REMARK       I    between atoms: C1_5  and  N2_6 
REMARK       I    between atoms: C1_5  and  N3_10 
REMARK    1  A    between atoms: N3_10  and  C2_12 
ROOT
HETATM    1  C2  UNL     1     -40.288 -32.152  -6.693  1.00  0.00     0.685 A 
HETATM    2  N4  UNL     1     -41.280 -31.460  -6.118  1.00  0.00    -0.155 N 
ATOM      3  H4  UNL     1     -42.241 -31.798  -6.158  1.00  0.00     0.187 HD
HETATM    4  C3  UNL     1     -40.981 -30.301  -5.479  1.00  0.00     0.279 A 
HETATM    5  O1  UNL     1     -41.911 -29.624  -4.922  1.00  0.00    -0.266 OA
HETATM    6  C4  UNL     1     -39.687 -29.830  -5.414  1.00  0.00     0.145 A 
HETATM    7  C5  UNL     1     -39.332 -28.660  -4.778  1.00  0.00     0.265 A 
HETATM    8  O2  UNL     1     -40.236 -27.987  -4.228  1.00  0.00    -0.267 OA
HETATM    9  N5  UNL     1     -38.032 -28.265  -4.759  1.00  0.00    -0.319 N 
ATOM     10  H5  UNL     1     -37.786 -27.397  -4.283  1.00  0.00     0.169 HD
HETATM   11  C6  UNL     1     -37.058 -28.982  -5.347  1.00  0.00     0.184 A 
HETATM   12  N6  UNL     1     -37.383 -30.128  -5.973  1.00  0.00    -0.337 N 
ATOM     13  H6  UNL     1     -36.654 -30.682  -6.423  1.00  0.00     0.168 HD
HETATM   14  C7  UNL     1     -38.677 -30.557  -6.013  1.00  0.00     0.143 A 
HETATM   15  N7  UNL     1     -39.029 -31.692  -6.629  1.00  0.00    -0.175 N 
ATOM     16  H7  UNL     1     -38.296 -32.242  -7.077  1.00  0.00     0.186 HD
ENDROOT
BRANCH   1  17
HETATM   17  N3  UNL     1     -40.533 -33.228  -7.292  1.00  0.00    -0.173 N 
HETATM   18  C1  UNL     1     -41.031 -33.482  -8.584  1.00  0.00     0.494 C 
HETATM   19  N1  UNL     1     -40.067 -33.003  -9.559  1.00  0.00    -0.032 N 
HETATM   20  N2  UNL     1     -42.329 -32.960  -8.878  1.00  0.00    -0.032 N 
ATOM     21  H13 UNL     1     -40.355 -33.212 -10.515  1.00  0.00     0.278 HD
ATOM     22  H12 UNL     1     -40.065 -31.985  -9.624  1.00  0.00     0.278 HD
ATOM     23  H11 UNL     1     -39.142 -33.374  -9.349  1.00  0.00     0.278 HD
ATOM     24  H23 UNL     1     -42.326 -31.942  -8.943  1.00  0.00     0.278 HD
ATOM     25  H22 UNL     1     -42.617 -33.169  -9.834  1.00  0.00     0.278 HD
ATOM     26  H21 UNL     1     -43.006 -33.297  -8.193  1.00  0.00     0.278 HD
ATOM     27  H3  UNL     1     -40.337 -34.066  -6.745  1.00  0.00     0.181 HD
ENDBRANCH   1  17
TORSDOF 1
ENDMDL
MODEL 2
REMARK VINA RESULT: -5.274384677      0.954      1.581
REMARK  1 active torsions:
REMARK  status: ('A' for Active; 'I' for Inactive)
REMARK       I    between atoms: N1_1  and  C1_5 
REMARK       I    between atoms: C1_5  and  N2_6 
REMARK       I    between atoms: C1_5  and  N3_10 
REMARK    1  A    between atoms: N3_10  and  C2_12 
ROOT
HETATM    1  C2  UNL     1     -40.218 -32.115  -6.826  1.00  0.00     0.685 A 
HETATM    2  N4  UNL     1     -41.223 -31.462  -6.230  1.00  0.00    -0.155 N 
ATOM      3  H4  UNL     1     -42.180 -31.811  -6.293  1.00  0.00     0.187 HD
HETATM    4  C3  UNL     1     -40.945 -30.328  -5.540  1.00  0.00     0.279 A 
HETATM    5  O1  UNL     1     -41.888 -29.687  -4.963  1.00  0.00    -0.266 OA
HETATM    6  C4  UNL     1     -39.658 -29.844  -5.443  1.00  0.00     0.145 A 
HETATM    7  C5  UNL     1     -39.324 -28.698  -4.754  1.00  0.00     0.265 A 
HETATM    8  O2  UNL     1     -40.241 -28.060  -4.183  1.00  0.00    -0.267 OA
HETATM    9  N5  UNL     1     -38.029 -28.287  -4.706  1.00  0.00    -0.319 N 
ATOM     10  H5  UNL     1     -37.799 -27.438  -4.191  1.00  0.00     0.169 HD
HETATM   11  C6  UNL     1     -37.042 -28.966  -5.315  1.00  0.00     0.184 A 
HETATM   12  N6  UNL     1     -37.345 -30.088  -5.993  1.00  0.00    -0.337 N 
ATOM     13  H6  UNL     1     -36.605 -30.612  -6.459  1.00  0.00     0.168 HD
HETATM   14  C7  UNL     1     -38.634 -30.531  -6.063  1.00  0.00     0.143 A 
HETATM   15  N7  UNL     1     -38.966 -31.643  -6.730  1.00  0.00    -0.175 N 
ATOM     16  H7  UNL     1     -38.221 -32.164  -7.195  1.00  0.00     0.186 HD
ENDROOT
BRANCH   1  17
HETATM   17  N3  UNL     1     -40.443 -33.168  -7.472  1.00  0.00    -0.173 N 
HETATM   18  C1  UNL     1     -40.004 -34.491  -7.280  1.00  0.00     0.494 C 
HETATM   19  N1  UNL     1     -40.543 -34.986  -6.026  1.00  0.00    -0.032 N 
HETATM   20  N2  UNL     1     -38.590 -34.703  -7.325  1.00  0.00    -0.032 N 
ATOM     21  H13 UNL     1     -40.298 -35.963  -5.864  1.00  0.00     0.278 HD
ATOM     22  H12 UNL     1     -40.070 -34.578  -5.220  1.00  0.00     0.278 HD
ATOM     23  H11 UNL     1     -41.551 -34.835  -5.995  1.00  0.00     0.278 HD
ATOM     24  H23 UNL     1     -38.117 -34.295  -6.518  1.00  0.00     0.278 HD
ATOM     25  H22 UNL     1     -38.345 -35.680  -7.162  1.00  0.00     0.278 HD
ATOM     26  H21 UNL     1     -38.211 -34.355  -8.205  1.00  0.00     0.278 HD
ATOM     27  H3  UNL     1     -41.053 -33.042  -8.280  1.00  0.00     0.181 HD
ENDBRANCH   1  17
TORSDOF 1
ENDMDL
MODEL 3
REMARK VINA RESULT: -5.163362214      2.975      4.708
REMARK  1 active torsions:
REMARK  status: ('A' for Active; 'I' for Inactive)
REMARK       I    between atoms: N1_1  and  C1_5 
REMARK       I    between atoms: C1_5  and  N2_6 
REMARK       I    between atoms: C1_5  and  N3_10 
REMARK    1  A    between atoms: N3_10  and  C2_12 
ROOT
HETATM    1  C2  UNL     1     -35.697 -30.413  -6.942  1.00  0.00     0.685 A 
HETATM    2  N4  UNL     1     -36.485 -31.429  -7.317  1.00  0.00    -0.155 N 
ATOM      3  H4  UNL     1     -36.147 -32.137  -7.968  1.00  0.00     0.187 HD
HETATM    4  C3  UNL     1     -37.742 -31.498  -6.813  1.00  0.00     0.279 A 
HETATM    5  O1  UNL     1     -38.514 -32.458  -7.156  1.00  0.00    -0.266 OA
HETATM    6  C4  UNL     1     -38.215 -30.550  -5.930  1.00  0.00     0.145 A 
HETATM    7  C5  UNL     1     -39.483 -30.576  -5.391  1.00  0.00     0.265 A 
HETATM    8  O2  UNL     1     -40.249 -31.513  -5.720  1.00  0.00    -0.267 OA
HETATM    9  N5  UNL     1     -39.873 -29.602  -4.525  1.00  0.00    -0.319 N 
ATOM     10  H5  UNL     1     -40.814 -29.637  -4.135  1.00  0.00     0.169 HD
HETATM   11  C6  UNL     1     -39.057 -28.596  -4.169  1.00  0.00     0.184 A 
HETATM   12  N6  UNL     1     -37.815 -28.551  -4.684  1.00  0.00    -0.337 N 
ATOM     13  H6  UNL     1     -37.186 -27.793  -4.420  1.00  0.00     0.168 HD
HETATM   14  C7  UNL     1     -37.388 -29.511  -5.554  1.00  0.00     0.143 A 
HETATM   15  N7  UNL     1     -36.158 -29.492  -6.083  1.00  0.00    -0.175 N 
ATOM     16  H7  UNL     1     -35.533 -28.731  -5.816  1.00  0.00     0.186 HD
ENDROOT
BRANCH   1  17
HETATM   17  N3  UNL     1     -34.528 -30.322  -7.391  1.00  0.00    -0.173 N 
HETATM   18  C1  UNL     1     -33.809 -31.134  -8.289  1.00  0.00     0.494 C 
HETATM   19  N1  UNL     1     -34.457 -31.081  -9.588  1.00  0.00    -0.032 N 
HETATM   20  N2  UNL     1     -33.609 -32.493  -7.895  1.00  0.00    -0.032 N 
ATOM     21  H13 UNL     1     -33.944 -31.611 -10.292  1.00  0.00     0.278 HD
ATOM     22  H12 UNL     1     -35.326 -31.615  -9.603  1.00  0.00     0.278 HD
ATOM     23  H11 UNL     1     -34.600 -30.112  -9.869  1.00  0.00     0.278 HD
ATOM     24  H23 UNL     1     -34.478 -33.028  -7.910  1.00  0.00     0.278 HD
ATOM     25  H22 UNL     1     -33.096 -33.024  -8.599  1.00  0.00     0.278 HD
ATOM     26  H21 UNL     1     -33.154 -32.530  -6.982  1.00  0.00     0.278 HD
ATOM     27  H3  UNL     1     -34.006 -29.517  -7.044  1.00  0.00     0.181 HD
ENDBRANCH   1  17
TORSDOF 1
ENDMDL
MODEL 4
REMARK VINA RESULT: -5.157309840      2.898      4.633
REMARK  1 active torsions:
REMARK  status: ('A' for Active; 'I' for Inactive)
REMARK       I    between atoms: N1_1  and  C1_5 
REMARK       I    between atoms: C1_5  and  N2_6 
REMARK       I    between atoms: C1_5  and  N3_10 
REMARK    1  A    between atoms: N3_10  and  C2_12 
ROOT
HETATM    1  C2  UNL     1     -41.375 -29.382  -3.865  1.00  0.00     0.685 A 
HETATM    2  N4  UNL     1     -41.510 -30.533  -4.537  1.00  0.00    -0.155 N 
ATOM      3  H4  UNL     1     -42.387 -31.053  -4.507  1.00  0.00     0.187 HD
HETATM    4  C3  UNL     1     -40.458 -30.993  -5.258  1.00  0.00     0.279 A 
HETATM    5  O1  UNL     1     -40.562 -32.089  -5.907  1.00  0.00    -0.266 OA
HETATM    6  C4  UNL     1     -39.265 -30.303  -5.310  1.00  0.00     0.145 A 
HETATM    7  C5  UNL     1     -38.168 -30.728  -6.028  1.00  0.00     0.265 A 
HETATM    8  O2  UNL     1     -38.259 -31.802  -6.669  1.00  0.00    -0.267 OA
HETATM    9  N5  UNL     1     -37.028 -29.988  -6.028  1.00  0.00    -0.319 N 
ATOM     10  H5  UNL     1     -36.226 -30.316  -6.565  1.00  0.00     0.169 HD
HETATM   11  C6  UNL     1     -36.925 -28.836  -5.343  1.00  0.00     0.184 A 
HETATM   12  N6  UNL     1     -37.984 -28.402  -4.636  1.00  0.00    -0.337 N 
ATOM     13  H6  UNL     1     -37.918 -27.529  -4.112  1.00  0.00     0.168 HD
HETATM   14  C7  UNL     1     -39.145 -29.118  -4.612  1.00  0.00     0.143 A 
HETATM   15  N7  UNL     1     -40.215 -28.711  -3.917  1.00  0.00    -0.175 N 
ATOM     16  H7  UNL     1     -40.143 -27.837  -3.395  1.00  0.00     0.186 HD
ENDROOT
BRANCH   1  17
HETATM   17  N3  UNL     1     -42.331 -28.930  -3.189  1.00  0.00    -0.173 N 
HETATM   18  C1  UNL     1     -42.905 -29.368  -1.980  1.00  0.00     0.494 C 
HETATM   19  N1  UNL     1     -41.920 -29.241  -0.921  1.00  0.00    -0.032 N 
HETATM   20  N2  UNL     1     -43.459 -30.686  -1.981  1.00  0.00    -0.032 N 
ATOM     21  H13 UNL     1     -42.303 -29.495  -0.011  1.00  0.00     0.278 HD
ATOM     22  H12 UNL     1     -41.198 -29.958  -0.984  1.00  0.00     0.278 HD
ATOM     23  H11 UNL     1     -41.525 -28.301  -0.921  1.00  0.00     0.278 HD
ATOM     24  H23 UNL     1     -42.737 -31.404  -2.044  1.00  0.00     0.278 HD
ATOM     25  H22 UNL     1     -43.842 -30.940  -1.070  1.00  0.00     0.278 HD
ATOM     26  H21 UNL     1     -44.151 -30.776  -2.725  1.00  0.00     0.278 HD
ATOM     27  H3  UNL     1     -42.770 -28.099  -3.585  1.00  0.00     0.181 HD
ENDBRANCH   1  17
TORSDOF 1
ENDMDL
MODEL 5
REMARK VINA RESULT: -5.058047793      2.772      4.987
REMARK  1 active torsions:
REMARK  status: ('A' for Active; 'I' for Inactive)
REMARK       I    between atoms: N1_1  and  C1_5 
REMARK       I    between atoms: C1_5  and  N2_6 
REMARK       I    between atoms: C1_5  and  N3_10 
REMARK    1  A    between atoms: N3_10  and  C2_12 
ROOT
HETATM    1  C2  UNL     1     -39.153 -29.051  -4.686  1.00  0.00     0.685 A 
HETATM    2  N4  UNL     1     -37.881 -28.632  -4.646  1.00  0.00    -0.155 N 
ATOM      3  H4  UNL     1     -37.611 -27.845  -4.056  1.00  0.00     0.187 HD
HETATM    4  C3  UNL     1     -36.960 -29.275  -5.405  1.00  0.00     0.279 A 
HETATM    5  O1  UNL     1     -35.740 -28.894  -5.384  1.00  0.00    -0.266 OA
HETATM    6  C4  UNL     1     -37.308 -30.342  -6.206  1.00  0.00     0.145 A 
HETATM    7  C5  UNL     1     -36.409 -31.028  -6.995  1.00  0.00     0.265 A 
HETATM    8  O2  UNL     1     -35.209 -30.663  -6.982  1.00  0.00    -0.267 OA
HETATM    9  N5  UNL     1     -36.833 -32.070  -7.758  1.00  0.00    -0.319 N 
ATOM     10  H5  UNL     1     -36.155 -32.568  -8.335  1.00  0.00     0.169 HD
HETATM   11  C6  UNL     1     -38.117 -32.466  -7.776  1.00  0.00     0.184 A 
HETATM   12  N6  UNL     1     -39.011 -31.810  -7.013  1.00  0.00    -0.337 N 
ATOM     13  H6  UNL     1     -39.988 -32.101  -7.018  1.00  0.00     0.168 HD
HETATM   14  C7  UNL     1     -38.622 -30.760  -6.234  1.00  0.00     0.143 A 
HETATM   15  N7  UNL     1     -39.490 -30.088  -5.466  1.00  0.00    -0.175 N 
ATOM     16  H7  UNL     1     -40.466 -30.384  -5.474  1.00  0.00     0.186 HD
ENDROOT
BRANCH   1  17
HETATM   17  N3  UNL     1     -40.029 -28.475  -3.995  1.00  0.00    -0.173 N 
HETATM   18  C1  UNL     1     -41.074 -28.986  -3.202  1.00  0.00     0.494 C 
HETATM   19  N1  UNL     1     -40.500 -29.732  -2.096  1.00  0.00    -0.032 N 
HETATM   20  N2  UNL     1     -42.052 -29.783  -3.876  1.00  0.00    -0.032 N 
ATOM     21  H13 UNL     1     -41.216 -30.080  -1.458  1.00  0.00     0.278 HD
ATOM     22  H12 UNL     1     -40.120 -30.629  -2.397  1.00  0.00     0.278 HD
ATOM     23  H11 UNL     1     -39.803 -29.164  -1.615  1.00  0.00     0.278 HD
ATOM     24  H23 UNL     1     -41.672 -30.680  -4.178  1.00  0.00     0.278 HD
ATOM     25  H22 UNL     1     -42.767 -30.130  -3.238  1.00  0.00     0.278 HD
ATOM     26  H21 UNL     1     -42.455 -29.259  -4.654  1.00  0.00     0.278 HD
ATOM     27  H3  UNL     1     -39.975 -27.456  -4.011  1.00  0.00     0.181 HD
ENDBRANCH   1  17
TORSDOF 1
ENDMDL
