MODEL 1
REMARK VINA RESULT: -8.747586101      0.000      0.000
REMARK  8 active torsions:
REMARK  status: ('A' for Active; 'I' for Inactive)
REMARK    1  A    between atoms: C5_5  and  N1_6 
REMARK    2  A    between atoms: N1_6  and  C6_8 
REMARK    3  A    between atoms: C13_15  and  N2_16 
REMARK    4  A    between atoms: N2_16  and  C14_18 
REMARK    5  A    between atoms: C15_21  and  N4_22 
REMARK    6  A    between atoms: N4_22  and  C16_24 
REMARK    7  A    between atoms: C16_24  and  C17_25 
REMARK    8  A    between atoms: C22_33  and  C23_34 
ROOT
HETATM    1  C14 UNL     1     -13.895 -45.909 -57.416  1.00  0.00     0.138 A 
HETATM    2  N3  UNL     1     -13.868 -45.898 -56.073  1.00  0.00    -0.176 N 
ATOM      3  H3  UNL     1     -13.258 -46.557 -55.589  1.00  0.00     0.186 HD
HETATM    4  C15 UNL     1     -14.626 -45.039 -55.329  1.00  0.00     0.679 A 
HETATM    5  N5  UNL     1     -15.447 -44.150 -55.917  1.00  0.00    -0.201 N 
ATOM      6  H5  UNL     1     -16.010 -43.509 -55.358  1.00  0.00     0.183 HD
HETATM    7  C21 UNL     1     -15.506 -44.127 -57.260  1.00  0.00     0.126 A 
HETATM    8  C22 UNL     1     -14.734 -45.001 -58.027  1.00  0.00     0.108 A 
ENDROOT
BRANCH   1   9
HETATM    9  N2  UNL     1     -13.212 -46.685 -58.153  1.00  0.00    -0.340 N 
ATOM     10  H2  UNL     1     -13.613 -46.965 -59.049  1.00  0.00     0.167 HD
BRANCH   9  11
HETATM   11  C13 UNL     1     -11.929 -47.192 -57.819  1.00  0.00     0.047 A 
HETATM   12  C2  UNL     1     -11.840 -48.542 -57.562  1.00  0.00    -0.035 A 
HETATM   13  C1  UNL     1     -12.997 -49.471 -57.618  1.00  0.00     0.050 C 
HETATM   14  C3  UNL     1     -10.599 -49.048 -57.235  1.00  0.00     0.011 A 
HETATM   15  C4  UNL     1      -9.496 -48.186 -57.177  1.00  0.00     0.030 A 
HETATM   16  C5  UNL     1      -9.624 -46.843 -57.441  1.00  0.00     0.036 A 
HETATM   17  C11 UNL     1     -10.883 -46.325 -57.773  1.00  0.00    -0.008 A 
HETATM   18  C12 UNL     1     -10.999 -44.859 -58.054  1.00  0.00     0.053 C 
BRANCH  16  19
HETATM   19  N1  UNL     1      -8.492 -46.003 -57.359  1.00  0.00    -0.385 N 
ATOM     20  H1  UNL     1      -8.348 -45.284 -58.068  1.00  0.00     0.160 HD
BRANCH  19  21
HETATM   21  C6  UNL     1      -7.547 -46.145 -56.301  1.00  0.00     0.081 C 
HETATM   22  C7  UNL     1      -8.153 -45.672 -54.962  1.00  0.00     0.025 C 
HETATM   23  C8  UNL     1      -6.914 -45.667 -54.093  1.00  0.00     0.002 C 
HETATM   24  C9  UNL     1      -5.936 -44.909 -54.966  1.00  0.00     0.002 C 
HETATM   25  C10 UNL     1      -6.409 -45.134 -56.407  1.00  0.00     0.025 C 
ENDBRANCH  19  21
ENDBRANCH  16  19
ENDBRANCH   9  11
ENDBRANCH   1   9
BRANCH   8  26
HETATM   26  C23 UNL     1     -14.819 -44.953 -59.497  1.00  0.00     0.422 C 
HETATM   27  F1  UNL     1     -15.710 -43.936 -59.825  1.00  0.00    -0.166 F 
HETATM   28  F2  UNL     1     -15.354 -46.129 -59.988  1.00  0.00    -0.166 F 
HETATM   29  F3  UNL     1     -13.599 -44.773 -60.097  1.00  0.00    -0.166 F 
ENDBRANCH   8  26
BRANCH   4  30
HETATM   30  N4  UNL     1     -14.496 -45.143 -54.068  1.00  0.00    -0.224 N 
ATOM     31  H4  UNL     1     -13.536 -45.210 -53.730  1.00  0.00     0.177 HD
BRANCH  30  32
HETATM   32  C16 UNL     1     -15.501 -45.181 -53.065  1.00  0.00     0.170 C 
BRANCH  32  33
HETATM   33  C17 UNL     1     -16.654 -46.111 -53.385  1.00  0.00     0.139 C 
HETATM   34  C18 UNL     1     -17.090 -46.936 -52.212  1.00  0.00     0.035 C 
HETATM   35  C19 UNL     1     -17.580 -48.219 -52.847  1.00  0.00     0.029 C 
HETATM   36  C20 UNL     1     -17.237 -48.037 -54.302  1.00  0.00     0.168 C 
HETATM   37  O1  UNL     1     -16.333 -47.005 -54.402  1.00  0.00    -0.384 OA
ENDBRANCH  32  33
ENDBRANCH  30  32
ENDBRANCH   4  30
TORSDOF 8
ENDMDL
MODEL 2
REMARK VINA RESULT: -8.313980456      1.058      1.369
REMARK  8 active torsions:
REMARK  status: ('A' for Active; 'I' for Inactive)
REMARK    1  A    between atoms: C5_5  and  N1_6 
REMARK    2  A    between atoms: N1_6  and  C6_8 
REMARK    3  A    between atoms: C13_15  and  N2_16 
REMARK    4  A    between atoms: N2_16  and  C14_18 
REMARK    5  A    between atoms: C15_21  and  N4_22 
REMARK    6  A    between atoms: N4_22  and  C16_24 
REMARK    7  A    between atoms: C16_24  and  C17_25 
REMARK    8  A    between atoms: C22_33  and  C23_34 
ROOT
HETATM    1  C14 UNL     1     -13.749 -45.302 -58.777  1.00  0.00     0.138 A 
HETATM    2  N3  UNL     1     -14.130 -45.253 -57.489  1.00  0.00    -0.176 N 
ATOM      3  H3  UNL     1     -13.700 -45.896 -56.826  1.00  0.00     0.186 HD
HETATM    4  C15 UNL     1     -15.072 -44.374 -57.035  1.00  0.00     0.679 A 
HETATM    5  N5  UNL     1     -15.670 -43.504 -57.867  1.00  0.00    -0.201 N 
ATOM      6  H5  UNL     1     -16.372 -42.849 -57.523  1.00  0.00     0.183 HD
HETATM    7  C21 UNL     1     -15.320 -43.520 -59.166  1.00  0.00     0.126 A 
HETATM    8  C22 UNL     1     -14.359 -44.414 -59.639  1.00  0.00     0.108 A 
ENDROOT
BRANCH   1   9
HETATM    9  N2  UNL     1     -12.881 -46.098 -59.251  1.00  0.00    -0.340 N 
ATOM     10  H2  UNL     1     -12.976 -46.378 -60.227  1.00  0.00     0.167 HD
BRANCH   9  11
HETATM   11  C13 UNL     1     -11.786 -46.626 -58.517  1.00  0.00     0.047 A 
HETATM   12  C2  UNL     1     -11.914 -47.913 -58.047  1.00  0.00    -0.035 A 
HETATM   13  C1  UNL     1     -13.116 -48.756 -58.266  1.00  0.00     0.050 C 
HETATM   14  C3  UNL     1     -10.858 -48.438 -57.331  1.00  0.00     0.011 A 
HETATM   15  C4  UNL     1      -9.716 -47.657 -57.114  1.00  0.00     0.030 A 
HETATM   16  C5  UNL     1      -9.624 -46.374 -57.601  1.00  0.00     0.036 A 
HETATM   17  C11 UNL     1     -10.695 -45.837 -58.327  1.00  0.00    -0.008 A 
HETATM   18  C12 UNL     1     -10.574 -44.438 -58.846  1.00  0.00     0.053 C 
BRANCH  16  19
HETATM   19  N1  UNL     1      -8.462 -45.612 -57.350  1.00  0.00    -0.385 N 
ATOM     20  H1  UNL     1      -8.255 -44.805 -57.937  1.00  0.00     0.160 HD
BRANCH  19  21
HETATM   21  C6  UNL     1      -7.575 -45.954 -56.289  1.00  0.00     0.081 C 
HETATM   22  C7  UNL     1      -8.142 -45.487 -54.931  1.00  0.00     0.025 C 
HETATM   23  C8  UNL     1      -6.937 -45.715 -54.044  1.00  0.00     0.002 C 
HETATM   24  C9  UNL     1      -5.841 -45.049 -54.848  1.00  0.00     0.002 C 
HETATM   25  C10 UNL     1      -6.303 -45.111 -56.308  1.00  0.00     0.025 C 
ENDBRANCH  19  21
ENDBRANCH  16  19
ENDBRANCH   9  11
ENDBRANCH   1   9
BRANCH   8  26
HETATM   26  C23 UNL     1     -13.995 -44.408 -61.066  1.00  0.00     0.422 C 
HETATM   27  F1  UNL     1     -14.854 -43.521 -61.706  1.00  0.00    -0.166 F 
HETATM   28  F2  UNL     1     -14.214 -45.653 -61.624  1.00  0.00    -0.166 F 
HETATM   29  F3  UNL     1     -12.679 -44.086 -61.280  1.00  0.00    -0.166 F 
ENDBRANCH   8  26
BRANCH   4  30
HETATM   30  N4  UNL     1     -15.330 -44.442 -55.791  1.00  0.00    -0.224 N 
ATOM     31  H4  UNL     1     -15.806 -43.630 -55.396  1.00  0.00     0.177 HD
BRANCH  30  32
HETATM   32  C16 UNL     1     -15.050 -45.490 -54.875  1.00  0.00     0.170 C 
BRANCH  32  33
HETATM   33  C17 UNL     1     -16.222 -45.865 -53.992  1.00  0.00     0.139 C 
HETATM   34  C18 UNL     1     -16.017 -45.504 -52.552  1.00  0.00     0.035 C 
HETATM   35  C19 UNL     1     -16.785 -46.574 -51.807  1.00  0.00     0.029 C 
HETATM   36  C20 UNL     1     -17.228 -47.507 -52.903  1.00  0.00     0.168 C 
HETATM   37  O1  UNL     1     -16.481 -47.232 -54.026  1.00  0.00    -0.384 OA
ENDBRANCH  32  33
ENDBRANCH  30  32
ENDBRANCH   4  30
TORSDOF 8
ENDMDL
MODEL 3
REMARK VINA RESULT: -7.998740135      3.506      6.853
REMARK  8 active torsions:
REMARK  status: ('A' for Active; 'I' for Inactive)
REMARK    1  A    between atoms: C5_5  and  N1_6 
REMARK    2  A    between atoms: N1_6  and  C6_8 
REMARK    3  A    between atoms: C13_15  and  N2_16 
REMARK    4  A    between atoms: N2_16  and  C14_18 
REMARK    5  A    between atoms: C15_21  and  N4_22 
REMARK    6  A    between atoms: N4_22  and  C16_24 
REMARK    7  A    between atoms: C16_24  and  C17_25 
REMARK    8  A    between atoms: C22_33  and  C23_34 
ROOT
HETATM    1  C14 UNL     1     -14.114 -47.270 -58.491  1.00  0.00     0.138 A 
HETATM    2  N3  UNL     1     -15.159 -47.492 -57.676  1.00  0.00    -0.176 N 
ATOM      3  H3  UNL     1     -15.659 -46.692 -57.291  1.00  0.00     0.186 HD
HETATM    4  C15 UNL     1     -15.577 -48.750 -57.344  1.00  0.00     0.679 A 
HETATM    5  N5  UNL     1     -14.953 -49.839 -57.824  1.00  0.00    -0.201 N 
ATOM      6  H5  UNL     1     -15.270 -50.776 -57.575  1.00  0.00     0.183 HD
HETATM    7  C21 UNL     1     -13.901 -49.663 -58.643  1.00  0.00     0.126 A 
HETATM    8  C22 UNL     1     -13.467 -48.383 -58.988  1.00  0.00     0.108 A 
ENDROOT
BRANCH   1   9
HETATM    9  N2  UNL     1     -13.685 -46.125 -58.831  1.00  0.00    -0.340 N 
ATOM     10  H2  UNL     1     -12.824 -46.083 -59.377  1.00  0.00     0.167 HD
BRANCH   9  11
HETATM   11  C13 UNL     1     -14.318 -44.897 -58.504  1.00  0.00     0.047 A 
HETATM   12  C2  UNL     1     -13.980 -44.323 -57.298  1.00  0.00    -0.035 A 
HETATM   13  C1  UNL     1     -13.005 -44.915 -56.348  1.00  0.00     0.050 C 
HETATM   14  C3  UNL     1     -14.588 -43.131 -56.967  1.00  0.00     0.011 A 
HETATM   15  C4  UNL     1     -15.511 -42.558 -57.853  1.00  0.00     0.030 A 
HETATM   16  C5  UNL     1     -15.823 -43.161 -59.048  1.00  0.00     0.036 A 
HETATM   17  C11 UNL     1     -15.208 -44.373 -59.388  1.00  0.00    -0.008 A 
HETATM   18  C12 UNL     1     -15.564 -45.012 -60.694  1.00  0.00     0.053 C 
BRANCH  16  19
HETATM   19  N1  UNL     1     -16.769 -42.561 -59.908  1.00  0.00    -0.385 N 
ATOM     20  H1  UNL     1     -16.934 -42.962 -60.831  1.00  0.00     0.160 HD
BRANCH  19  21
HETATM   21  C6  UNL     1     -17.495 -41.402 -59.507  1.00  0.00     0.081 C 
HETATM   22  C7  UNL     1     -18.959 -41.480 -59.992  1.00  0.00     0.025 C 
HETATM   23  C8  UNL     1     -19.418 -40.071 -59.689  1.00  0.00     0.002 C 
HETATM   24  C9  UNL     1     -18.301 -39.252 -60.300  1.00  0.00     0.002 C 
HETATM   25  C10 UNL     1     -17.065 -40.158 -60.278  1.00  0.00     0.025 C 
ENDBRANCH  19  21
ENDBRANCH  16  19
ENDBRANCH   9  11
ENDBRANCH   1   9
BRANCH   8  26
HETATM   26  C23 UNL     1     -12.312 -48.220 -59.887  1.00  0.00     0.422 C 
HETATM   27  F1  UNL     1     -12.782 -47.639 -61.061  1.00  0.00    -0.166 F 
HETATM   28  F2  UNL     1     -11.791 -49.453 -60.231  1.00  0.00    -0.166 F 
HETATM   29  F3  UNL     1     -11.298 -47.486 -59.327  1.00  0.00    -0.166 F 
ENDBRANCH   8  26
BRANCH   4  30
HETATM   30  N4  UNL     1     -16.580 -48.806 -56.563  1.00  0.00    -0.224 N 
ATOM     31  H4  UNL     1     -16.981 -49.735 -56.430  1.00  0.00     0.177 HD
BRANCH  30  32
HETATM   32  C16 UNL     1     -17.220 -47.756 -55.852  1.00  0.00     0.170 C 
BRANCH  32  33
HETATM   33  C17 UNL     1     -16.399 -47.201 -54.707  1.00  0.00     0.139 C 
HETATM   34  C18 UNL     1     -17.103 -47.272 -53.385  1.00  0.00     0.035 C 
HETATM   35  C19 UNL     1     -16.573 -46.067 -52.638  1.00  0.00     0.029 C 
HETATM   36  C20 UNL     1     -15.731 -45.364 -53.670  1.00  0.00     0.168 C 
HETATM   37  O1  UNL     1     -16.065 -45.864 -54.908  1.00  0.00    -0.384 OA
ENDBRANCH  32  33
ENDBRANCH  30  32
ENDBRANCH   4  30
TORSDOF 8
ENDMDL
MODEL 4
REMARK VINA RESULT: -7.914891608      3.212      7.246
REMARK  8 active torsions:
REMARK  status: ('A' for Active; 'I' for Inactive)
REMARK    1  A    between atoms: C5_5  and  N1_6 
REMARK    2  A    between atoms: N1_6  and  C6_8 
REMARK    3  A    between atoms: C13_15  and  N2_16 
REMARK    4  A    between atoms: N2_16  and  C14_18 
REMARK    5  A    between atoms: C15_21  and  N4_22 
REMARK    6  A    between atoms: N4_22  and  C16_24 
REMARK    7  A    between atoms: C16_24  and  C17_25 
REMARK    8  A    between atoms: C22_33  and  C23_34 
ROOT
HETATM    1  C14 UNL     1     -13.912 -45.942 -57.634  1.00  0.00     0.138 A 
HETATM    2  N3  UNL     1     -15.058 -46.501 -57.209  1.00  0.00    -0.176 N 
ATOM      3  H3  UNL     1     -15.936 -46.012 -57.383  1.00  0.00     0.186 HD
HETATM    4  C15 UNL     1     -15.091 -47.698 -56.551  1.00  0.00     0.679 A 
HETATM    5  N5  UNL     1     -13.963 -48.383 -56.296  1.00  0.00    -0.201 N 
ATOM      6  H5  UNL     1     -13.993 -49.277 -55.807  1.00  0.00     0.183 HD
HETATM    7  C21 UNL     1     -12.793 -47.859 -56.703  1.00  0.00     0.126 A 
HETATM    8  C22 UNL     1     -12.749 -46.637 -57.376  1.00  0.00     0.108 A 
ENDROOT
BRANCH   1   9
HETATM    9  N2  UNL     1     -13.825 -44.833 -58.247  1.00  0.00    -0.340 N 
ATOM     10  H2  UNL     1     -12.988 -44.271 -58.095  1.00  0.00     0.167 HD
BRANCH   9  11
HETATM   11  C13 UNL     1     -14.812 -44.322 -59.130  1.00  0.00     0.047 A 
HETATM   12  C2  UNL     1     -14.974 -44.977 -60.330  1.00  0.00    -0.035 A 
HETATM   13  C1  UNL     1     -14.184 -46.167 -60.734  1.00  0.00     0.050 C 
HETATM   14  C3  UNL     1     -15.929 -44.490 -61.198  1.00  0.00     0.011 A 
HETATM   15  C4  UNL     1     -16.684 -43.367 -60.834  1.00  0.00     0.030 A 
HETATM   16  C5  UNL     1     -16.493 -42.740 -59.625  1.00  0.00     0.036 A 
HETATM   17  C11 UNL     1     -15.524 -43.231 -58.741  1.00  0.00    -0.008 A 
HETATM   18  C12 UNL     1     -15.333 -42.530 -57.432  1.00  0.00     0.053 C 
BRANCH  16  19
HETATM   19  N1  UNL     1     -17.264 -41.602 -59.299  1.00  0.00    -0.385 N 
ATOM     20  H1  UNL     1     -17.123 -41.141 -58.400  1.00  0.00     0.160 HD
BRANCH  19  21
HETATM   21  C6  UNL     1     -18.236 -41.089 -60.206  1.00  0.00     0.081 C 
HETATM   22  C7  UNL     1     -18.165 -39.548 -60.267  1.00  0.00     0.025 C 
HETATM   23  C8  UNL     1     -19.424 -39.252 -61.053  1.00  0.00     0.002 C 
HETATM   24  C9  UNL     1     -20.446 -40.085 -60.311  1.00  0.00     0.002 C 
HETATM   25  C10 UNL     1     -19.657 -41.231 -59.667  1.00  0.00     0.025 C 
ENDBRANCH  19  21
ENDBRANCH  16  19
ENDBRANCH   9  11
ENDBRANCH   1   9
BRANCH   8  26
HETATM   26  C23 UNL     1     -11.453 -46.088 -57.810  1.00  0.00     0.422 C 
HETATM   27  F1  UNL     1     -11.441 -46.113 -59.201  1.00  0.00    -0.166 F 
HETATM   28  F2  UNL     1     -10.419 -46.900 -57.385  1.00  0.00    -0.166 F 
HETATM   29  F3  UNL     1     -11.216 -44.829 -57.321  1.00  0.00    -0.166 F 
ENDBRANCH   8  26
BRANCH   4  30
HETATM   30  N4  UNL     1     -16.248 -48.104 -56.210  1.00  0.00    -0.224 N 
ATOM     31  H4  UNL     1     -16.616 -48.887 -56.750  1.00  0.00     0.177 HD
BRANCH  30  32
HETATM   32  C16 UNL     1     -17.098 -47.618 -55.181  1.00  0.00     0.170 C 
BRANCH  32  33
HETATM   33  C17 UNL     1     -16.359 -47.003 -54.011  1.00  0.00     0.139 C 
HETATM   34  C18 UNL     1     -17.056 -47.204 -52.700  1.00  0.00     0.035 C 
HETATM   35  C19 UNL     1     -16.684 -45.968 -51.910  1.00  0.00     0.029 C 
HETATM   36  C20 UNL     1     -15.930 -45.133 -52.910  1.00  0.00     0.168 C 
HETATM   37  O1  UNL     1     -16.193 -45.630 -54.166  1.00  0.00    -0.384 OA
ENDBRANCH  32  33
ENDBRANCH  30  32
ENDBRANCH   4  30
TORSDOF 8
ENDMDL
MODEL 5
REMARK VINA RESULT: -7.824486972      1.949      3.183
REMARK  8 active torsions:
REMARK  status: ('A' for Active; 'I' for Inactive)
REMARK    1  A    between atoms: C5_5  and  N1_6 
REMARK    2  A    between atoms: N1_6  and  C6_8 
REMARK    3  A    between atoms: C13_15  and  N2_16 
REMARK    4  A    between atoms: N2_16  and  C14_18 
REMARK    5  A    between atoms: C15_21  and  N4_22 
REMARK    6  A    between atoms: N4_22  and  C16_24 
REMARK    7  A    between atoms: C16_24  and  C17_25 
REMARK    8  A    between atoms: C22_33  and  C23_34 
ROOT
HETATM    1  C14 UNL     1     -13.418 -47.173 -58.791  1.00  0.00     0.138 A 
HETATM    2  N3  UNL     1     -13.904 -46.285 -57.908  1.00  0.00    -0.176 N 
ATOM      3  H3  UNL     1     -13.506 -45.346 -57.887  1.00  0.00     0.186 HD
HETATM    4  C15 UNL     1     -14.910 -46.591 -57.036  1.00  0.00     0.679 A 
HETATM    5  N5  UNL     1     -15.469 -47.813 -57.021  1.00  0.00    -0.201 N 
ATOM      6  H5  UNL     1     -16.221 -48.037 -56.370  1.00  0.00     0.183 HD
HETATM    7  C21 UNL     1     -15.012 -48.734 -57.888  1.00  0.00     0.126 A 
HETATM    8  C22 UNL     1     -13.985 -48.431 -58.783  1.00  0.00     0.108 A 
ENDROOT
BRANCH   1   9
HETATM    9  N2  UNL     1     -12.485 -46.941 -59.621  1.00  0.00    -0.340 N 
ATOM     10  H2  UNL     1     -12.540 -47.393 -60.535  1.00  0.00     0.167 HD
BRANCH   9  11
HETATM   11  C13 UNL     1     -11.373 -46.097 -59.368  1.00  0.00     0.047 A 
HETATM   12  C2  UNL     1     -11.397 -44.846 -59.944  1.00  0.00    -0.035 A 
HETATM   13  C1  UNL     1     -12.506 -44.350 -60.796  1.00  0.00     0.050 C 
HETATM   14  C3  UNL     1     -10.321 -44.015 -59.707  1.00  0.00     0.011 A 
HETATM   15  C4  UNL     1      -9.264 -44.466 -58.905  1.00  0.00     0.030 A 
HETATM   16  C5  UNL     1      -9.277 -45.723 -58.347  1.00  0.00     0.036 A 
HETATM   17  C11 UNL     1     -10.367 -46.570 -58.585  1.00  0.00    -0.008 A 
HETATM   18  C12 UNL     1     -10.358 -47.934 -57.969  1.00  0.00     0.053 C 
BRANCH  16  19
HETATM   19  N1  UNL     1      -8.187 -46.147 -57.555  1.00  0.00    -0.385 N 
ATOM     20  H1  UNL     1      -7.669 -46.984 -57.822  1.00  0.00     0.160 HD
BRANCH  19  21
HETATM   21  C6  UNL     1      -7.801 -45.425 -56.389  1.00  0.00     0.081 C 
HETATM   22  C7  UNL     1      -6.268 -45.247 -56.341  1.00  0.00     0.025 C 
HETATM   23  C8  UNL     1      -6.104 -44.715 -54.933  1.00  0.00     0.002 C 
HETATM   24  C9  UNL     1      -6.929 -45.704 -54.139  1.00  0.00     0.002 C 
HETATM   25  C10 UNL     1      -7.976 -46.249 -55.117  1.00  0.00     0.025 C 
ENDBRANCH  19  21
ENDBRANCH  16  19
ENDBRANCH   9  11
ENDBRANCH   1   9
BRANCH   8  26
HETATM   26  C23 UNL     1     -13.505 -49.459 -59.721  1.00  0.00     0.422 C 
HETATM   27  F1  UNL     1     -14.252 -49.333 -60.888  1.00  0.00    -0.166 F 
HETATM   28  F2  UNL     1     -13.755 -50.723 -59.220  1.00  0.00    -0.166 F 
HETATM   29  F3  UNL     1     -12.159 -49.372 -59.966  1.00  0.00    -0.166 F 
ENDBRANCH   8  26
BRANCH   4  30
HETATM   30  N4  UNL     1     -15.267 -45.649 -56.259  1.00  0.00    -0.224 N 
ATOM     31  H4  UNL     1     -15.798 -44.896 -56.697  1.00  0.00     0.177 HD
BRANCH  30  32
HETATM   32  C16 UNL     1     -15.031 -45.500 -54.867  1.00  0.00     0.170 C 
BRANCH  32  33
HETATM   33  C17 UNL     1     -16.216 -45.868 -53.999  1.00  0.00     0.139 C 
HETATM   34  C18 UNL     1     -16.016 -45.533 -52.552  1.00  0.00     0.035 C 
HETATM   35  C19 UNL     1     -16.808 -46.600 -51.829  1.00  0.00     0.029 C 
HETATM   36  C20 UNL     1     -17.257 -47.510 -52.942  1.00  0.00     0.168 C 
HETATM   37  O1  UNL     1     -16.497 -47.230 -54.055  1.00  0.00    -0.384 OA
ENDBRANCH  32  33
ENDBRANCH  30  32
ENDBRANCH   4  30
TORSDOF 8
ENDMDL
