MODEL 1
REMARK VINA RESULT: -7.198198764      0.000      0.000
REMARK  7 active torsions:
REMARK  status: ('A' for Active; 'I' for Inactive)
REMARK    1  A    between atoms: C2_2  and  N1_4 
REMARK    2  A    between atoms: C2_2  and  C15_21 
REMARK       I    between atoms: N1_4  and  C4_6 
REMARK       I    between atoms: C4_6  and  N2_8 
REMARK    3  A    between atoms: N2_8  and  C5_9 
REMARK    4  A    between atoms: C10_14  and  C11_15 
REMARK    5  A    between atoms: C15_21  and  O5_23 
REMARK    6  A    between atoms: O5_23  and  C16_24 
REMARK    7  A    between atoms: C16_24  and  C17_25 
ROOT
HETATM    1  N1  UNL     1      19.770   6.084  11.444  1.00  0.00    -0.313 N 
ATOM      2  H1  UNL     1      20.092   5.948  12.402  1.00  0.00     0.166 HD
HETATM    3  C4  UNL     1      18.354   6.422  11.245  1.00  0.00     0.390 C 
HETATM    4  O1  UNL     1      18.107   6.589  10.005  1.00  0.00    -0.231 OA
HETATM    5  N2  UNL     1      17.486   6.531  12.261  1.00  0.00    -0.390 NA
ENDROOT
BRANCH   1   6
HETATM    6  C2  UNL     1      20.717   5.933  10.407  1.00  0.00     0.116 C 
HETATM    7  C1  UNL     1      21.031   7.227   9.676  1.00  0.00     0.049 C 
HETATM    8  C3  UNL     1      22.074   5.637  11.139  1.00  0.00     0.049 C 
BRANCH   6   9
HETATM    9  C15 UNL     1      20.463   4.851   9.443  1.00  0.00     0.286 C 
HETATM   10  O4  UNL     1      20.885   5.036   8.249  1.00  0.00    -0.262 OA
BRANCH   9  11
HETATM   11  O5  UNL     1      19.819   3.672   9.697  1.00  0.00    -0.318 OA
BRANCH  11  12
HETATM   12  C16 UNL     1      19.850   2.924  10.890  1.00  0.00     0.194 C 
BRANCH  12  13
HETATM   13  C17 UNL     1      18.405   2.670  11.338  1.00  0.00     0.141 C 
HETATM   14 CL1  UNL     1      18.120   0.898  11.437  1.00  0.00    -0.128 Cl
ENDBRANCH  12  13
ENDBRANCH  11  12
ENDBRANCH   9  11
ENDBRANCH   6   9
ENDBRANCH   1   6
BRANCH   5  15
HETATM   15  C5  UNL     1      16.592   6.643  13.306  1.00  0.00     0.177 C 
HETATM   16  C6  UNL     1      15.520   5.522  13.318  1.00  0.00     0.024 C 
HETATM   17  C7  UNL     1      14.660   6.140  14.439  1.00  0.00     0.013 C 
HETATM   18  C12 UNL     1      16.040   4.212  13.775  1.00  0.00     0.028 C 
HETATM   19  C8  UNL     1      15.759   6.365  15.481  1.00  0.00    -0.006 C 
HETATM   20  C9  UNL     1      15.889   5.021  16.165  1.00  0.00     0.025 C 
HETATM   21  C14 UNL     1      17.063   6.547  14.710  1.00  0.00     0.027 C 
HETATM   22  C10 UNL     1      16.720   4.270  15.102  1.00  0.00     0.050 C 
HETATM   23  C13 UNL     1      17.860   5.254  14.958  1.00  0.00     0.028 C 
BRANCH  22  24
HETATM   24  C11 UNL     1      17.091   2.945  15.567  1.00  0.00     0.181 C 
HETATM   25  O2  UNL     1      17.978   2.749  16.425  1.00  0.00    -0.647 OA
HETATM   26  O3  UNL     1      16.421   1.860  15.022  1.00  0.00    -0.647 OA
ENDBRANCH  22  24
ENDBRANCH   5  15
TORSDOF 7
ENDMDL
MODEL 2
REMARK VINA RESULT: -6.811076732      2.928      3.660
REMARK  7 active torsions:
REMARK  status: ('A' for Active; 'I' for Inactive)
REMARK    1  A    between atoms: C2_2  and  N1_4 
REMARK    2  A    between atoms: C2_2  and  C15_21 
REMARK       I    between atoms: N1_4  and  C4_6 
REMARK       I    between atoms: C4_6  and  N2_8 
REMARK    3  A    between atoms: N2_8  and  C5_9 
REMARK    4  A    between atoms: C10_14  and  C11_15 
REMARK    5  A    between atoms: C15_21  and  O5_23 
REMARK    6  A    between atoms: O5_23  and  C16_24 
REMARK    7  A    between atoms: C16_24  and  C17_25 
ROOT
HETATM    1  N1  UNL     1      20.178   6.740  10.942  1.00  0.00    -0.313 N 
ATOM      2  H1  UNL     1      19.628   7.579  10.758  1.00  0.00     0.166 HD
HETATM    3  C4  UNL     1      19.676   5.807  11.959  1.00  0.00     0.390 C 
HETATM    4  O1  UNL     1      20.449   4.797  12.057  1.00  0.00    -0.231 OA
HETATM    5  N2  UNL     1      18.553   6.033  12.656  1.00  0.00    -0.390 NA
ENDROOT
BRANCH   1   6
HETATM    6  C2  UNL     1      21.367   6.560  10.200  1.00  0.00     0.116 C 
HETATM    7  C1  UNL     1      21.272   5.463   9.153  1.00  0.00     0.049 C 
HETATM    8  C3  UNL     1      21.485   7.849   9.309  1.00  0.00     0.049 C 
BRANCH   6   9
HETATM    9  C15 UNL     1      22.607   6.418  10.977  1.00  0.00     0.286 C 
HETATM   10  O4  UNL     1      23.380   5.451  10.652  1.00  0.00    -0.262 OA
BRANCH   9  11
HETATM   11  O5  UNL     1      23.012   7.214  12.013  1.00  0.00    -0.318 OA
BRANCH  11  12
HETATM   12  C16 UNL     1      24.069   8.145  12.009  1.00  0.00     0.194 C 
BRANCH  12  13
HETATM   13  C17 UNL     1      25.253   7.535  12.771  1.00  0.00     0.141 C 
HETATM   14 CL1  UNL     1      25.993   8.794  13.819  1.00  0.00    -0.128 Cl
ENDBRANCH  12  13
ENDBRANCH  11  12
ENDBRANCH   9  11
ENDBRANCH   6   9
ENDBRANCH   1   6
BRANCH   5  15
HETATM   15  C5  UNL     1      17.398   6.264  13.374  1.00  0.00     0.177 C 
HETATM   16  C6  UNL     1      16.253   5.275  13.030  1.00  0.00     0.024 C 
HETATM   17  C7  UNL     1      15.165   6.006  13.841  1.00  0.00     0.013 C 
HETATM   18  C12 UNL     1      16.452   3.922  13.598  1.00  0.00     0.028 C 
HETATM   19  C8  UNL     1      15.904   6.119  15.178  1.00  0.00    -0.006 C 
HETATM   20  C9  UNL     1      15.660   4.781  15.840  1.00  0.00     0.025 C 
HETATM   21  C14 UNL     1      17.395   6.137  14.853  1.00  0.00     0.027 C 
HETATM   22  C10 UNL     1      16.688   3.922  15.072  1.00  0.00     0.050 C 
HETATM   23  C13 UNL     1      17.922   4.765  15.309  1.00  0.00     0.028 C 
BRANCH  22  24
HETATM   24  C11 UNL     1      16.742   2.570  15.601  1.00  0.00     0.181 C 
HETATM   25  O2  UNL     1      16.958   2.320  16.806  1.00  0.00    -0.647 OA
HETATM   26  O3  UNL     1      16.543   1.523  14.715  1.00  0.00    -0.647 OA
ENDBRANCH  22  24
ENDBRANCH   5  15
TORSDOF 7
ENDMDL
MODEL 3
REMARK VINA RESULT: -6.765484906      2.981      5.306
REMARK  7 active torsions:
REMARK  status: ('A' for Active; 'I' for Inactive)
REMARK    1  A    between atoms: C2_2  and  N1_4 
REMARK    2  A    between atoms: C2_2  and  C15_21 
REMARK       I    between atoms: N1_4  and  C4_6 
REMARK       I    between atoms: C4_6  and  N2_8 
REMARK    3  A    between atoms: N2_8  and  C5_9 
REMARK    4  A    between atoms: C10_14  and  C11_15 
REMARK    5  A    between atoms: C15_21  and  O5_23 
REMARK    6  A    between atoms: O5_23  and  C16_24 
REMARK    7  A    between atoms: C16_24  and  C17_25 
ROOT
HETATM    1  N1  UNL     1      17.879   4.006  11.163  1.00  0.00    -0.313 N 
ATOM      2  H1  UNL     1      18.772   4.480  11.025  1.00  0.00     0.166 HD
HETATM    3  C4  UNL     1      16.656   4.806  11.021  1.00  0.00     0.390 C 
HETATM    4  O1  UNL     1      15.624   4.076  11.192  1.00  0.00    -0.231 OA
HETATM    5  N2  UNL     1      16.677   6.118  10.745  1.00  0.00    -0.390 NA
ENDROOT
BRANCH   1   6
HETATM    6  C2  UNL     1      17.910   2.629  11.477  1.00  0.00     0.116 C 
HETATM    7  C1  UNL     1      17.265   1.748  10.422  1.00  0.00     0.049 C 
HETATM    8  C3  UNL     1      19.423   2.222  11.359  1.00  0.00     0.049 C 
BRANCH   6   9
HETATM    9  C15 UNL     1      17.432   2.254  12.817  1.00  0.00     0.286 C 
HETATM   10  O4  UNL     1      16.831   1.129  12.917  1.00  0.00    -0.262 OA
BRANCH   9  11
HETATM   11  O5  UNL     1      17.565   2.990  13.962  1.00  0.00    -0.318 OA
BRANCH  11  12
HETATM   12  C16 UNL     1      16.540   3.403  14.834  1.00  0.00     0.194 C 
BRANCH  12  13
HETATM   13  C17 UNL     1      16.405   4.928  14.736  1.00  0.00     0.141 C 
HETATM   14 CL1  UNL     1      18.044   5.667  14.736  1.00  0.00    -0.128 Cl
ENDBRANCH  12  13
ENDBRANCH  11  12
ENDBRANCH   9  11
ENDBRANCH   6   9
ENDBRANCH   1   6
BRANCH   5  15
HETATM   15  C5  UNL     1      16.698   7.468  10.461  1.00  0.00     0.177 C 
HETATM   16  C6  UNL     1      16.057   8.339  11.573  1.00  0.00     0.024 C 
HETATM   17  C7  UNL     1      16.090   9.659  10.778  1.00  0.00     0.013 C 
HETATM   18  C12 UNL     1      16.908   8.479  12.777  1.00  0.00     0.028 C 
HETATM   19  C8  UNL     1      17.564   9.647  10.362  1.00  0.00    -0.006 C 
HETATM   20  C9  UNL     1      18.283  10.220  11.564  1.00  0.00     0.025 C 
HETATM   21  C14 UNL     1      17.990   8.182  10.305  1.00  0.00     0.027 C 
HETATM   22  C10 UNL     1      18.284   8.977  12.481  1.00  0.00     0.050 C 
HETATM   23  C13 UNL     1      18.905   7.982  11.526  1.00  0.00     0.028 C 
BRANCH  22  24
HETATM   24  C11 UNL     1      19.033   9.226  13.701  1.00  0.00     0.181 C 
HETATM   25  O2  UNL     1      18.525   9.137  14.839  1.00  0.00    -0.647 OA
HETATM   26  O3  UNL     1      20.368   9.577  13.577  1.00  0.00    -0.647 OA
ENDBRANCH  22  24
ENDBRANCH   5  15
TORSDOF 7
ENDMDL
MODEL 4
REMARK VINA RESULT: -6.611684990      2.639      3.479
REMARK  7 active torsions:
REMARK  status: ('A' for Active; 'I' for Inactive)
REMARK    1  A    between atoms: C2_2  and  N1_4 
REMARK    2  A    between atoms: C2_2  and  C15_21 
REMARK       I    between atoms: N1_4  and  C4_6 
REMARK       I    between atoms: C4_6  and  N2_8 
REMARK    3  A    between atoms: N2_8  and  C5_9 
REMARK    4  A    between atoms: C10_14  and  C11_15 
REMARK    5  A    between atoms: C15_21  and  O5_23 
REMARK    6  A    between atoms: O5_23  and  C16_24 
REMARK    7  A    between atoms: C16_24  and  C17_25 
ROOT
HETATM    1  N1  UNL     1      20.182   6.679  11.262  1.00  0.00    -0.313 N 
ATOM      2  H1  UNL     1      19.651   7.528  11.070  1.00  0.00     0.166 HD
HETATM    3  C4  UNL     1      19.608   5.718  12.213  1.00  0.00     0.390 C 
HETATM    4  O1  UNL     1      20.366   4.699  12.328  1.00  0.00    -0.231 OA
HETATM    5  N2  UNL     1      18.443   5.931  12.842  1.00  0.00    -0.390 NA
ENDROOT
BRANCH   1   6
HETATM    6  C2  UNL     1      21.416   6.513  10.593  1.00  0.00     0.116 C 
HETATM    7  C1  UNL     1      21.556   5.169   9.899  1.00  0.00     0.049 C 
HETATM    8  C3  UNL     1      21.351   7.502   9.375  1.00  0.00     0.049 C 
BRANCH   6   9
HETATM    9  C15 UNL     1      22.627   6.814  11.372  1.00  0.00     0.286 C 
HETATM   10  O4  UNL     1      22.545   7.778  12.209  1.00  0.00    -0.262 OA
BRANCH   9  11
HETATM   11  O5  UNL     1      23.828   6.166  11.287  1.00  0.00    -0.318 OA
BRANCH  11  12
HETATM   12  C16 UNL     1      25.110   6.721  11.462  1.00  0.00     0.194 C 
BRANCH  12  13
HETATM   13  C17 UNL     1      25.750   6.905  10.080  1.00  0.00     0.141 C 
HETATM   14 CL1  UNL     1      24.974   5.779   8.914  1.00  0.00    -0.128 Cl
ENDBRANCH  12  13
ENDBRANCH  11  12
ENDBRANCH   9  11
ENDBRANCH   6   9
ENDBRANCH   1   6
BRANCH   5  15
HETATM   15  C5  UNL     1      17.245   6.149  13.491  1.00  0.00     0.177 C 
HETATM   16  C6  UNL     1      16.146   5.123  13.110  1.00  0.00     0.024 C 
HETATM   17  C7  UNL     1      14.998   5.844  13.843  1.00  0.00     0.013 C 
HETATM   18  C12 UNL     1      16.348   3.789  13.724  1.00  0.00     0.028 C 
HETATM   19  C8  UNL     1      15.659   6.009  15.214  1.00  0.00    -0.006 C 
HETATM   20  C9  UNL     1      15.412   4.682  15.896  1.00  0.00     0.025 C 
HETATM   21  C14 UNL     1      17.165   6.058  14.970  1.00  0.00     0.027 C 
HETATM   22  C10 UNL     1      16.503   3.831  15.208  1.00  0.00     0.050 C 
HETATM   23  C13 UNL     1      17.700   4.712  15.489  1.00  0.00     0.028 C 
BRANCH  22  24
HETATM   24  C11 UNL     1      16.561   2.494  15.774  1.00  0.00     0.181 C 
HETATM   25  O2  UNL     1      16.596   1.461  15.072  1.00  0.00    -0.647 OA
HETATM   26  O3  UNL     1      16.578   2.380  17.155  1.00  0.00    -0.647 OA
ENDBRANCH  22  24
ENDBRANCH   5  15
TORSDOF 7
ENDMDL
MODEL 5
REMARK VINA RESULT: -6.579424618      2.425      6.904
REMARK  7 active torsions:
REMARK  status: ('A' for Active; 'I' for Inactive)
REMARK    1  A    between atoms: C2_2  and  N1_4 
REMARK    2  A    between atoms: C2_2  and  C15_21 
REMARK       I    between atoms: N1_4  and  C4_6 
REMARK       I    between atoms: C4_6  and  N2_8 
REMARK    3  A    between atoms: N2_8  and  C5_9 
REMARK    4  A    between atoms: C10_14  and  C11_15 
REMARK    5  A    between atoms: C15_21  and  O5_23 
REMARK    6  A    between atoms: O5_23  and  C16_24 
REMARK    7  A    between atoms: C16_24  and  C17_25 
ROOT
HETATM    1  N1  UNL     1      18.196   4.623  13.709  1.00  0.00    -0.313 N 
ATOM      2  H1  UNL     1      18.760   4.039  13.092  1.00  0.00     0.166 HD
HETATM    3  C4  UNL     1      18.565   6.039  13.830  1.00  0.00     0.390 C 
HETATM    4  O1  UNL     1      17.756   6.645  14.608  1.00  0.00    -0.231 OA
HETATM    5  N2  UNL     1      19.614   6.571  13.186  1.00  0.00    -0.390 NA
ENDROOT
BRANCH   1   6
HETATM    6  C2  UNL     1      17.117   4.010  14.385  1.00  0.00     0.116 C 
HETATM    7  C1  UNL     1      15.774   4.664  14.109  1.00  0.00     0.049 C 
HETATM    8  C3  UNL     1      16.947   2.612  13.690  1.00  0.00     0.049 C 
BRANCH   6   9
HETATM    9  C15 UNL     1      17.291   3.792  15.830  1.00  0.00     0.286 C 
HETATM   10  O4  UNL     1      18.486   3.596  16.241  1.00  0.00    -0.262 OA
BRANCH   9  11
HETATM   11  O5  UNL     1      16.300   3.777  16.773  1.00  0.00    -0.318 OA
BRANCH  11  12
HETATM   12  C16 UNL     1      15.520   2.676  17.172  1.00  0.00     0.194 C 
BRANCH  12  13
HETATM   13  C17 UNL     1      14.047   3.105  17.184  1.00  0.00     0.141 C 
HETATM   14 CL1  UNL     1      13.954   4.899  17.108  1.00  0.00    -0.128 Cl
ENDBRANCH  12  13
ENDBRANCH  11  12
ENDBRANCH   9  11
ENDBRANCH   6   9
ENDBRANCH   1   6
BRANCH   5  15
HETATM   15  C5  UNL     1      20.693   7.119  12.524  1.00  0.00     0.177 C 
HETATM   16  C6  UNL     1      21.613   6.057  11.865  1.00  0.00     0.024 C 
HETATM   17  C7  UNL     1      22.730   7.042  11.469  1.00  0.00     0.013 C 
HETATM   18  C12 UNL     1      21.038   5.460  10.638  1.00  0.00     0.028 C 
HETATM   19  C8  UNL     1      21.878   8.088  10.745  1.00  0.00    -0.006 C 
HETATM   20  C9  UNL     1      21.723   7.525   9.350  1.00  0.00     0.025 C 
HETATM   21  C14 UNL     1      20.483   8.017  11.361  1.00  0.00     0.027 C 
HETATM   22  C10 UNL     1      20.628   6.470   9.618  1.00  0.00     0.050 C 
HETATM   23  C13 UNL     1      19.602   7.360  10.284  1.00  0.00     0.028 C 
BRANCH  22  24
HETATM   24  C11 UNL     1      20.198   5.834   8.384  1.00  0.00     0.181 C 
HETATM   25  O2  UNL     1      20.886   4.980   7.785  1.00  0.00    -0.647 OA
HETATM   26  O3  UNL     1      18.968   6.203   7.863  1.00  0.00    -0.647 OA
ENDBRANCH  22  24
ENDBRANCH   5  15
TORSDOF 7
ENDMDL
