MODEL 1
REMARK VINA RESULT: -6.939015218      0.000      0.000
REMARK  3 active torsions:
REMARK  status: ('A' for Active; 'I' for Inactive)
REMARK    1  A    between atoms: C7_9  and  C8_10 
REMARK    2  A    between atoms: C8_10  and  N1_11 
REMARK    3  A    between atoms: C15_20  and  C16_21 
ROOT
HETATM    1  C1  UNL     1      45.282  47.396  27.623  1.00  0.00     0.078 C 
HETATM    2  C2  UNL     1      46.192  47.905  28.733  1.00  0.00     0.158 C 
HETATM    3  C3  UNL     1      47.238  46.858  28.991  1.00  0.00     0.078 C 
HETATM    4  O1  UNL     1      46.781  49.072  28.298  1.00  0.00    -0.346 OA
HETATM    5  C4  UNL     1      46.489  50.053  29.247  1.00  0.00     0.179 C 
HETATM    6  C5  UNL     1      45.485  50.984  28.661  1.00  0.00     0.209 C 
HETATM    7  O2  UNL     1      45.280  52.154  29.435  1.00  0.00    -0.360 OA
HETATM    8  C6  UNL     1      45.712  52.290  30.770  1.00  0.00     0.144 C 
HETATM    9  C7  UNL     1      45.767  51.351  31.705  1.00  0.00    -0.005 C 
HETATM   10  C15 UNL     1      45.362  49.951  31.526  1.00  0.00     0.143 C 
HETATM   11  C17 UNL     1      46.073  49.253  30.410  1.00  0.00     0.173 C 
HETATM   12  O5  UNL     1      45.426  48.180  29.861  1.00  0.00    -0.347 OA
ENDROOT
BRANCH   9  13
HETATM   13  C8  UNL     1      46.268  51.835  32.992  1.00  0.00     0.103 C 
BRANCH  13  14
HETATM   14  N1  UNL     1      47.262  51.089  33.657  1.00  0.00    -0.334 N 
HETATM   15  C9  UNL     1      48.611  50.893  33.209  1.00  0.00     0.086 C 
HETATM   16 BR1  UNL     1      49.301  51.108  31.445  1.00  0.00    -0.031 Br
HETATM   17  C10 UNL     1      49.360  50.524  34.231  1.00  0.00     0.090 C 
HETATM   18  C11 UNL     1      48.539  50.449  35.443  1.00  0.00     0.179 C 
HETATM   19  O3  UNL     1      48.800  50.472  36.646  1.00  0.00    -0.290 OA
HETATM   20  C12 UNL     1      47.146  50.326  34.864  1.00  0.00     0.095 C 
HETATM   21  C13 UNL     1      46.909  48.844  34.550  1.00  0.00     0.047 C 
HETATM   22  C14 UNL     1      46.137  50.718  35.857  1.00  0.00     0.047 C 
ENDBRANCH  13  14
ENDBRANCH   9  13
BRANCH  10  23
HETATM   23  C16 UNL     1      43.890  49.838  31.245  1.00  0.00     0.242 C 
HETATM   24  N2  UNL     1      43.010  49.999  32.331  1.00  0.00    -0.061 NA
HETATM   25  O4  UNL     1      43.428  49.611  30.111  1.00  0.00    -0.276 OA
ENDBRANCH  10  23
TORSDOF 3
ENDMDL
MODEL 2
REMARK VINA RESULT: -6.915367862     10.078     12.509
REMARK  3 active torsions:
REMARK  status: ('A' for Active; 'I' for Inactive)
REMARK    1  A    between atoms: C7_9  and  C8_10 
REMARK    2  A    between atoms: C8_10  and  N1_11 
REMARK    3  A    between atoms: C15_20  and  C16_21 
ROOT
HETATM    1  C1  UNL     1      53.796  44.032  32.344  1.00  0.00     0.078 C 
HETATM    2  C2  UNL     1      55.048  44.864  32.090  1.00  0.00     0.158 C 
HETATM    3  C3  UNL     1      55.513  44.586  30.690  1.00  0.00     0.078 C 
HETATM    4  O1  UNL     1      54.709  46.193  32.227  1.00  0.00    -0.346 OA
HETATM    5  C4  UNL     1      55.571  46.735  33.183  1.00  0.00     0.179 C 
HETATM    6  C5  UNL     1      54.794  46.973  34.430  1.00  0.00     0.209 C 
HETATM    7  O2  UNL     1      55.496  47.736  35.397  1.00  0.00    -0.360 OA
HETATM    8  C6  UNL     1      56.886  47.968  35.346  1.00  0.00     0.144 C 
HETATM    9  C7  UNL     1      57.831  47.146  34.907  1.00  0.00    -0.005 C 
HETATM   10  C15 UNL     1      57.603  45.792  34.389  1.00  0.00     0.143 C 
HETATM   11  C17 UNL     1      56.650  45.735  33.237  1.00  0.00     0.173 C 
HETATM   12  O5  UNL     1      56.009  44.543  33.044  1.00  0.00    -0.347 OA
ENDROOT
BRANCH   9  13
HETATM   13  C8  UNL     1      59.180  47.706  34.994  1.00  0.00     0.103 C 
BRANCH  13  14
HETATM   14  N1  UNL     1      59.687  48.431  33.897  1.00  0.00    -0.334 N 
HETATM   15  C9  UNL     1      59.750  49.860  33.786  1.00  0.00     0.086 C 
HETATM   16 BR1  UNL     1      58.760  51.155  34.775  1.00  0.00    -0.031 Br
HETATM   17  C10 UNL     1      60.632  50.187  32.861  1.00  0.00     0.090 C 
HETATM   18  C11 UNL     1      61.219  48.972  32.288  1.00  0.00     0.179 C 
HETATM   19  O3  UNL     1      62.257  48.744  31.667  1.00  0.00    -0.290 OA
HETATM   20  C12 UNL     1      60.183  47.929  32.650  1.00  0.00     0.095 C 
HETATM   21  C13 UNL     1      59.093  47.972  31.574  1.00  0.00     0.047 C 
HETATM   22  C14 UNL     1      60.769  46.583  32.610  1.00  0.00     0.047 C 
ENDBRANCH  13  14
ENDBRANCH   9  13
BRANCH  10  23
HETATM   23  C16 UNL     1      57.056  44.883  35.454  1.00  0.00     0.242 C 
HETATM   24  N2  UNL     1      57.518  45.074  36.769  1.00  0.00    -0.061 NA
HETATM   25  O4  UNL     1      56.226  43.983  35.221  1.00  0.00    -0.276 OA
ENDBRANCH  10  23
TORSDOF 3
ENDMDL
MODEL 3
REMARK VINA RESULT: -6.882014928      5.964      8.131
REMARK  3 active torsions:
REMARK  status: ('A' for Active; 'I' for Inactive)
REMARK    1  A    between atoms: C7_9  and  C8_10 
REMARK    2  A    between atoms: C8_10  and  N1_11 
REMARK    3  A    between atoms: C15_20  and  C16_21 
ROOT
HETATM    1  C1  UNL     1      49.516  47.594  31.804  1.00  0.00     0.078 C 
HETATM    2  C2  UNL     1      50.931  47.501  32.362  1.00  0.00     0.158 C 
HETATM    3  C3  UNL     1      51.393  46.079  32.216  1.00  0.00     0.078 C 
HETATM    4  O1  UNL     1      51.734  48.343  31.624  1.00  0.00    -0.346 OA
HETATM    5  C4  UNL     1      52.346  49.215  32.527  1.00  0.00     0.179 C 
HETATM    6  C5  UNL     1      51.726  50.559  32.370  1.00  0.00     0.209 C 
HETATM    7  O2  UNL     1      52.417  51.585  33.063  1.00  0.00    -0.360 OA
HETATM    8  C6  UNL     1      53.383  51.337  34.060  1.00  0.00     0.144 C 
HETATM    9  C7  UNL     1      53.400  50.349  34.945  1.00  0.00    -0.005 C 
HETATM   10  C15 UNL     1      52.377  49.304  35.069  1.00  0.00     0.143 C 
HETATM   11  C17 UNL     1      52.151  48.525  33.813  1.00  0.00     0.173 C 
HETATM   12  O5  UNL     1      50.928  47.926  33.687  1.00  0.00    -0.347 OA
ENDROOT
BRANCH   9  13
HETATM   13  C8  UNL     1      54.556  50.387  35.842  1.00  0.00     0.103 C 
BRANCH  13  14
HETATM   14  N1  UNL     1      55.819  50.017  35.338  1.00  0.00    -0.334 N 
HETATM   15  C9  UNL     1      56.941  50.891  35.147  1.00  0.00     0.086 C 
HETATM   16 BR1  UNL     1      56.933  52.794  35.018  1.00  0.00    -0.031 Br
HETATM   17  C10 UNL     1      58.045  50.173  35.070  1.00  0.00     0.090 C 
HETATM   18  C11 UNL     1      57.717  48.751  35.204  1.00  0.00     0.179 C 
HETATM   19  O3  UNL     1      58.374  47.755  35.511  1.00  0.00    -0.290 OA
HETATM   20  C12 UNL     1      56.245  48.738  34.853  1.00  0.00     0.095 C 
HETATM   21  C13 UNL     1      56.138  48.671  33.326  1.00  0.00     0.047 C 
HETATM   22  C14 UNL     1      55.599  47.529  35.380  1.00  0.00     0.047 C 
ENDBRANCH  13  14
ENDBRANCH   9  13
BRANCH  10  23
HETATM   23  C16 UNL     1      51.049  49.881  35.471  1.00  0.00     0.242 C 
HETATM   24  N2  UNL     1      51.055  51.120  36.138  1.00  0.00    -0.061 NA
HETATM   25  O4  UNL     1      49.963  49.315  35.241  1.00  0.00    -0.276 OA
ENDBRANCH  10  23
TORSDOF 3
ENDMDL
MODEL 4
REMARK VINA RESULT: -6.880636943      2.139      6.300
REMARK  3 active torsions:
REMARK  status: ('A' for Active; 'I' for Inactive)
REMARK    1  A    between atoms: C7_9  and  C8_10 
REMARK    2  A    between atoms: C8_10  and  N1_11 
REMARK    3  A    between atoms: C15_20  and  C16_21 
ROOT
HETATM    1  C1  UNL     1      51.982  51.237  35.424  1.00  0.00     0.078 C 
HETATM    2  C2  UNL     1      51.144  50.016  35.064  1.00  0.00     0.158 C 
HETATM    3  C3  UNL     1      52.071  48.842  34.930  1.00  0.00     0.078 C 
HETATM    4  O1  UNL     1      50.246  49.802  36.087  1.00  0.00    -0.346 OA
HETATM    5  C4  UNL     1      48.973  49.790  35.514  1.00  0.00     0.179 C 
HETATM    6  C5  UNL     1      48.276  51.049  35.899  1.00  0.00     0.209 C 
HETATM    7  O2  UNL     1      46.896  51.053  35.575  1.00  0.00    -0.360 OA
HETATM    8  C6  UNL     1      46.301  50.128  34.693  1.00  0.00     0.144 C 
HETATM    9  C7  UNL     1      46.834  49.581  33.609  1.00  0.00    -0.005 C 
HETATM   10  C15 UNL     1      48.182  49.855  33.096  1.00  0.00     0.143 C 
HETATM   11  C17 UNL     1      49.272  49.591  34.086  1.00  0.00     0.173 C 
HETATM   12  O5  UNL     1      50.440  50.276  33.893  1.00  0.00    -0.347 OA
ENDROOT
BRANCH   9  13
HETATM   13  C8  UNL     1      45.936  48.655  32.918  1.00  0.00     0.103 C 
BRANCH  13  14
HETATM   14  N1  UNL     1      45.597  48.913  31.574  1.00  0.00    -0.334 N 
HETATM   15  C9  UNL     1      46.070  48.188  30.430  1.00  0.00     0.086 C 
HETATM   16 BR1  UNL     1      47.608  47.067  30.309  1.00  0.00    -0.031 Br
HETATM   17  C10 UNL     1      45.260  48.404  29.411  1.00  0.00     0.090 C 
HETATM   18  C11 UNL     1      44.179  49.305  29.824  1.00  0.00     0.179 C 
HETATM   19  O3  UNL     1      43.057  49.543  29.377  1.00  0.00    -0.290 OA
HETATM   20  C12 UNL     1      44.777  49.964  31.048  1.00  0.00     0.095 C 
HETATM   21  C13 UNL     1      45.639  51.136  30.565  1.00  0.00     0.047 C 
HETATM   22  C14 UNL     1      43.722  50.533  31.897  1.00  0.00     0.047 C 
ENDBRANCH  13  14
ENDBRANCH   9  13
BRANCH  10  23
HETATM   23  C16 UNL     1      48.323  51.287  32.662  1.00  0.00     0.242 C 
HETATM   24  N2  UNL     1      49.295  51.576  31.687  1.00  0.00    -0.061 NA
HETATM   25  O4  UNL     1      47.625  52.211  33.123  1.00  0.00    -0.276 OA
ENDBRANCH  10  23
TORSDOF 3
ENDMDL
MODEL 5
REMARK VINA RESULT: -6.830542876      4.058      6.843
REMARK  3 active torsions:
REMARK  status: ('A' for Active; 'I' for Inactive)
REMARK    1  A    between atoms: C7_9  and  C8_10 
REMARK    2  A    between atoms: C8_10  and  N1_11 
REMARK    3  A    between atoms: C15_20  and  C16_21 
ROOT
HETATM    1  C1  UNL     1      45.894  50.854  32.592  1.00  0.00     0.078 C 
HETATM    2  C2  UNL     1      46.149  49.674  31.661  1.00  0.00     0.158 C 
HETATM    3  C3  UNL     1      45.188  49.775  30.512  1.00  0.00     0.078 C 
HETATM    4  O1  UNL     1      47.448  49.765  31.209  1.00  0.00    -0.346 OA
HETATM    5  C4  UNL     1      48.073  48.558  31.527  1.00  0.00     0.179 C 
HETATM    6  C5  UNL     1      49.024  48.805  32.646  1.00  0.00     0.209 C 
HETATM    7  O2  UNL     1      49.889  47.713  32.905  1.00  0.00    -0.360 OA
HETATM    8  C6  UNL     1      49.674  46.413  32.402  1.00  0.00     0.144 C 
HETATM    9  C7  UNL     1      48.514  45.802  32.203  1.00  0.00    -0.005 C 
HETATM   10  C15 UNL     1      47.194  46.374  32.491  1.00  0.00     0.143 C 
HETATM   11  C17 UNL     1      46.929  47.670  31.794  1.00  0.00     0.173 C 
HETATM   12  O5  UNL     1      46.002  48.490  32.376  1.00  0.00    -0.347 OA
ENDROOT
BRANCH   9  13
HETATM   13  C8  UNL     1      48.651  44.447  31.666  1.00  0.00     0.103 C 
BRANCH  13  14
HETATM   14  N1  UNL     1      49.264  44.274  30.409  1.00  0.00    -0.334 N 
HETATM   15  C9  UNL     1      50.524  43.632  30.165  1.00  0.00     0.086 C 
HETATM   16 BR1  UNL     1      51.929  43.302  31.410  1.00  0.00    -0.031 Br
HETATM   17  C10 UNL     1      50.593  43.276  28.896  1.00  0.00     0.090 C 
HETATM   18  C11 UNL     1      49.361  43.669  28.206  1.00  0.00     0.179 C 
HETATM   19  O3  UNL     1      48.819  43.300  27.164  1.00  0.00    -0.290 OA
HETATM   20  C12 UNL     1      48.818  44.739  29.129  1.00  0.00     0.095 C 
HETATM   21  C13 UNL     1      49.506  46.057  28.758  1.00  0.00     0.047 C 
HETATM   22  C14 UNL     1      47.379  44.932  28.906  1.00  0.00     0.047 C 
ENDBRANCH  13  14
ENDBRANCH   9  13
BRANCH  10  23
HETATM   23  C16 UNL     1      47.013  46.624  33.962  1.00  0.00     0.242 C 
HETATM   24  N2  UNL     1      46.699  45.518  34.774  1.00  0.00    -0.061 NA
HETATM   25  O4  UNL     1      47.130  47.751  34.481  1.00  0.00    -0.276 OA
ENDBRANCH  10  23
TORSDOF 3
ENDMDL
