MODEL 1
REMARK VINA RESULT: -8.238282681      0.000      0.000
REMARK  8 active torsions:
REMARK  status: ('A' for Active; 'I' for Inactive)
REMARK    1  A    between atoms: C2_2  and  C3_3 
REMARK    2  A    between atoms: C3_3  and  O1_4 
REMARK    3  A    between atoms: O1_4  and  C4_5 
REMARK    4  A    between atoms: C14_15  and  C16_17 
REMARK       I    between atoms: C16_17  and  N1_19 
REMARK    5  A    between atoms: N1_19  and  C17_21 
REMARK    6  A    between atoms: C17_21  and  C18_22 
REMARK    7  A    between atoms: C18_22  and  N2_23 
REMARK    8  A    between atoms: C24_32  and  O3_33 
ROOT
HETATM    1  C4  UNL     1      52.924  37.178   5.262  1.00  0.00     0.130 C 
HETATM    2  C5  UNL     1      52.276  38.553   5.249  1.00  0.00     0.043 C 
HETATM    3  C6  UNL     1      53.449  39.476   5.302  1.00  0.00    -0.030 C 
HETATM    4  C7  UNL     1      53.893  39.637   3.834  1.00  0.00     0.016 C 
HETATM    5  C8  UNL     1      54.581  38.802   5.981  1.00  0.00     0.005 C 
HETATM    6  C9  UNL     1      54.875  39.223   7.377  1.00  0.00     0.007 C 
HETATM    7  C10 UNL     1      54.804  40.702   7.609  1.00  0.00     0.006 C 
HETATM    8  C11 UNL     1      54.364  41.473   6.353  1.00  0.00    -0.001 C 
HETATM    9  C12 UNL     1      54.385  42.923   6.532  1.00  0.00    -0.002 C 
HETATM   10  C13 UNL     1      54.642  43.419   7.944  1.00  0.00     0.024 C 
HETATM   11  C14 UNL     1      55.066  44.883   7.821  1.00  0.00     0.040 C 
HETATM   12  C15 UNL     1      56.450  44.857   7.166  1.00  0.00     0.025 C 
HETATM   13  C23 UNL     1      54.103  45.729   7.091  1.00  0.00     0.051 C 
HETATM   14  C24 UNL     1      53.498  45.117   5.858  1.00  0.00     0.123 C 
HETATM   15  C25 UNL     1      53.135  43.659   6.108  1.00  0.00     0.019 C 
HETATM   16  C26 UNL     1      52.502  43.112   4.892  1.00  0.00     0.008 C 
HETATM   17  C27 UNL     1      52.339  41.631   4.851  1.00  0.00     0.011 C 
HETATM   18  C28 UNL     1      53.089  40.851   5.883  1.00  0.00    -0.032 C 
HETATM   19  C29 UNL     1      52.175  40.717   7.081  1.00  0.00     0.016 C 
HETATM   20  C30 UNL     1      54.262  37.331   5.910  1.00  0.00    -0.017 C 
HETATM   21  C31 UNL     1      54.188  36.677   7.277  1.00  0.00     0.018 C 
HETATM   22  C32 UNL     1      55.327  36.543   5.136  1.00  0.00     0.018 C 
ENDROOT
BRANCH  11  23
HETATM   23  C16 UNL     1      55.277  45.478   9.174  1.00  0.00     0.226 C 
HETATM   24  O2  UNL     1      55.604  44.736  10.129  1.00  0.00    -0.273 OA
HETATM   25  N1  UNL     1      55.094  46.873   9.309  1.00  0.00    -0.359 N 
ATOM     26  H1  UNL     1      54.831  47.405   8.480  1.00  0.00     0.162 HD
BRANCH  25  27
HETATM   27  C17 UNL     1      55.260  47.591  10.556  1.00  0.00     0.152 C 
BRANCH  27  28
HETATM   28  C18 UNL     1      54.242  48.692  10.755  1.00  0.00     0.292 C 
BRANCH  28  29
HETATM   29  N2  UNL     1      54.057  48.792  12.212  1.00  0.00     0.093 N 
HETATM   30  C19 UNL     1      53.879  50.193  12.566  1.00  0.00     0.300 C 
HETATM   31  C20 UNL     1      55.224  50.861  12.708  1.00  0.00     0.262 C 
HETATM   32  N3  UNL     1      55.865  50.389  13.922  1.00  0.00    -0.072 N 
HETATM   33  C21 UNL     1      55.419  49.036  14.208  1.00  0.00     0.262 C 
ATOM     34  H32 UNL     1      56.881  50.458  13.873  1.00  0.00     0.277 HD
ATOM     35  H31 UNL     1      55.714  51.020  14.709  1.00  0.00     0.277 HD
HETATM   36  C22 UNL     1      55.186  48.265  12.919  1.00  0.00     0.300 C 
ENDBRANCH  28  29
ENDBRANCH  27  28
ENDBRANCH  25  27
ENDBRANCH  11  23
BRANCH  14  37
HETATM   37  O3  UNL     1      54.198  45.331   4.709  1.00  0.00    -0.395 OA
ATOM     38  H3  UNL     1      53.720  45.791   4.029  1.00  0.00     0.210 HD
ENDBRANCH  14  37
BRANCH   1  39
HETATM   39  O1  UNL     1      53.059  36.754   3.954  1.00  0.00    -0.381 OA
BRANCH  39  40
HETATM   40  C3  UNL     1      52.072  35.852   3.595  1.00  0.00     0.194 C 
BRANCH  40  41
HETATM   41  C2  UNL     1      51.717  36.056   2.171  1.00  0.00    -0.011 C 
HETATM   42  C1  UNL     1      52.500  36.803   1.376  1.00  0.00     0.009 C 
ENDBRANCH  40  41
ENDBRANCH  39  40
ENDBRANCH   1  39
TORSDOF 8
ENDMDL
MODEL 2
REMARK VINA RESULT: -8.179957086      6.439      9.403
REMARK  8 active torsions:
REMARK  status: ('A' for Active; 'I' for Inactive)
REMARK    1  A    between atoms: C2_2  and  C3_3 
REMARK    2  A    between atoms: C3_3  and  O1_4 
REMARK    3  A    between atoms: O1_4  and  C4_5 
REMARK    4  A    between atoms: C14_15  and  C16_17 
REMARK       I    between atoms: C16_17  and  N1_19 
REMARK    5  A    between atoms: N1_19  and  C17_21 
REMARK    6  A    between atoms: C17_21  and  C18_22 
REMARK    7  A    between atoms: C18_22  and  N2_23 
REMARK    8  A    between atoms: C24_32  and  O3_33 
ROOT
HETATM    1  C4  UNL     1      50.958  37.195  15.931  1.00  0.00     0.130 C 
HETATM    2  C5  UNL     1      52.281  36.954  15.221  1.00  0.00     0.043 C 
HETATM    3  C6  UNL     1      52.631  38.309  14.699  1.00  0.00    -0.030 C 
HETATM    4  C7  UNL     1      53.350  39.011  15.868  1.00  0.00     0.016 C 
HETATM    5  C8  UNL     1      51.392  39.091  14.476  1.00  0.00     0.005 C 
HETATM    6  C9  UNL     1      50.946  39.259  13.067  1.00  0.00     0.007 C 
HETATM    7  C10 UNL     1      52.050  39.554  12.097  1.00  0.00     0.006 C 
HETATM    8  C11 UNL     1      53.436  39.548  12.763  1.00  0.00    -0.001 C 
HETATM    9  C12 UNL     1      54.513  39.931  11.854  1.00  0.00    -0.002 C 
HETATM   10  C13 UNL     1      54.132  40.081  10.391  1.00  0.00     0.024 C 
HETATM   11  C14 UNL     1      55.244  40.901   9.734  1.00  0.00     0.040 C 
HETATM   12  C15 UNL     1      55.112  42.313  10.312  1.00  0.00     0.025 C 
HETATM   13  C23 UNL     1      56.594  40.333   9.911  1.00  0.00     0.051 C 
HETATM   14  C24 UNL     1      56.902  39.792  11.279  1.00  0.00     0.123 C 
HETATM   15  C25 UNL     1      55.713  39.013  11.826  1.00  0.00     0.019 C 
HETATM   16  C26 UNL     1      56.074  38.460  13.147  1.00  0.00     0.008 C 
HETATM   17  C27 UNL     1      54.948  37.911  13.953  1.00  0.00     0.011 C 
HETATM   18  C28 UNL     1      53.569  38.245  13.484  1.00  0.00    -0.032 C 
HETATM   19  C29 UNL     1      53.152  37.149  12.529  1.00  0.00     0.016 C 
HETATM   20  C30 UNL     1      50.338  38.401  15.303  1.00  0.00    -0.017 C 
HETATM   21  C31 UNL     1      49.154  37.934  14.480  1.00  0.00     0.018 C 
HETATM   22  C32 UNL     1      49.750  39.324  16.380  1.00  0.00     0.018 C 
ENDROOT
BRANCH  11  23
HETATM   23  C16 UNL     1      54.986  41.044   8.270  1.00  0.00     0.226 C 
HETATM   24  O2  UNL     1      55.399  40.162   7.483  1.00  0.00    -0.273 OA
HETATM   25  N1  UNL     1      54.276  42.188   7.842  1.00  0.00    -0.359 N 
ATOM     26  H1  UNL     1      53.972  42.857   8.549  1.00  0.00     0.162 HD
BRANCH  25  27
HETATM   27  C17 UNL     1      53.952  42.465   6.457  1.00  0.00     0.152 C 
BRANCH  27  28
HETATM   28  C18 UNL     1      53.532  43.898   6.214  1.00  0.00     0.292 C 
BRANCH  28  29
HETATM   29  N2  UNL     1      54.563  44.460   5.327  1.00  0.00     0.093 N 
HETATM   30  C19 UNL     1      54.835  45.831   5.734  1.00  0.00     0.300 C 
HETATM   31  C20 UNL     1      53.820  46.760   5.114  1.00  0.00     0.262 C 
HETATM   32  N3  UNL     1      54.087  46.877   3.692  1.00  0.00    -0.072 N 
HETATM   33  C21 UNL     1      54.697  45.649   3.213  1.00  0.00     0.262 C 
ATOM     34  H32 UNL     1      53.251  47.126   3.163  1.00  0.00     0.277 HD
ATOM     35  H31 UNL     1      54.649  47.699   3.471  1.00  0.00     0.277 HD
HETATM   36  C22 UNL     1      54.139  44.448   3.959  1.00  0.00     0.300 C 
ENDBRANCH  28  29
ENDBRANCH  27  28
ENDBRANCH  25  27
ENDBRANCH  11  23
BRANCH  14  37
HETATM   37  O3  UNL     1      57.425  40.700  12.150  1.00  0.00    -0.395 OA
ATOM     38  H3  UNL     1      57.862  40.323  12.905  1.00  0.00     0.210 HD
ENDBRANCH  14  37
BRANCH   1  39
HETATM   39  O1  UNL     1      51.222  37.419  17.268  1.00  0.00    -0.381 OA
BRANCH  39  40
HETATM   40  C3  UNL     1      51.507  36.246  17.947  1.00  0.00     0.194 C 
BRANCH  40  41
HETATM   41  C2  UNL     1      52.716  36.444  18.780  1.00  0.00    -0.011 C 
HETATM   42  C1  UNL     1      53.826  35.726  18.549  1.00  0.00     0.009 C 
ENDBRANCH  40  41
ENDBRANCH  39  40
ENDBRANCH   1  39
TORSDOF 8
ENDMDL
MODEL 3
REMARK VINA RESULT: -8.130729820      5.874      8.801
REMARK  8 active torsions:
REMARK  status: ('A' for Active; 'I' for Inactive)
REMARK    1  A    between atoms: C2_2  and  C3_3 
REMARK    2  A    between atoms: C3_3  and  O1_4 
REMARK    3  A    between atoms: O1_4  and  C4_5 
REMARK    4  A    between atoms: C14_15  and  C16_17 
REMARK       I    between atoms: C16_17  and  N1_19 
REMARK    5  A    between atoms: N1_19  and  C17_21 
REMARK    6  A    between atoms: C17_21  and  C18_22 
REMARK    7  A    between atoms: C18_22  and  N2_23 
REMARK    8  A    between atoms: C24_32  and  O3_33 
ROOT
HETATM    1  C4  UNL     1      52.062  36.672  14.835  1.00  0.00     0.130 C 
HETATM    2  C5  UNL     1      53.395  36.753  14.108  1.00  0.00     0.043 C 
HETATM    3  C6  UNL     1      53.563  38.220  13.883  1.00  0.00    -0.030 C 
HETATM    4  C7  UNL     1      54.204  38.749  15.181  1.00  0.00     0.016 C 
HETATM    5  C8  UNL     1      52.233  38.868  13.811  1.00  0.00     0.005 C 
HETATM    6  C9  UNL     1      51.750  39.267  12.461  1.00  0.00     0.007 C 
HETATM    7  C10 UNL     1      52.794  39.894  11.588  1.00  0.00     0.006 C 
HETATM    8  C11 UNL     1      54.179  39.925  12.257  1.00  0.00    -0.001 C 
HETATM    9  C12 UNL     1      55.186  40.623  11.461  1.00  0.00    -0.002 C 
HETATM   10  C13 UNL     1      54.769  41.024  10.057  1.00  0.00     0.024 C 
HETATM   11  C14 UNL     1      55.759  42.096   9.598  1.00  0.00     0.040 C 
HETATM   12  C15 UNL     1      55.457  43.329  10.455  1.00  0.00     0.025 C 
HETATM   13  C23 UNL     1      57.173  41.679   9.671  1.00  0.00     0.051 C 
HETATM   14  C24 UNL     1      57.566  40.909  10.901  1.00  0.00     0.123 C 
HETATM   15  C25 UNL     1      56.492  39.890  11.258  1.00  0.00     0.019 C 
HETATM   16  C26 UNL     1      56.938  39.125  12.441  1.00  0.00     0.008 C 
HETATM   17  C27 UNL     1      55.902  38.283  13.101  1.00  0.00     0.011 C 
HETATM   18  C28 UNL     1      54.485  38.530  12.693  1.00  0.00    -0.032 C 
HETATM   19  C29 UNL     1      54.198  37.611  11.526  1.00  0.00     0.016 C 
HETATM   20  C30 UNL     1      51.286  37.894  14.463  1.00  0.00    -0.017 C 
HETATM   21  C31 UNL     1      50.159  37.461  13.544  1.00  0.00     0.018 C 
HETATM   22  C32 UNL     1      50.600  38.491  15.699  1.00  0.00     0.018 C 
ENDROOT
BRANCH  11  23
HETATM   23  C16 UNL     1      55.466  42.505   8.192  1.00  0.00     0.226 C 
HETATM   24  O2  UNL     1      56.348  43.091   7.525  1.00  0.00    -0.273 OA
HETATM   25  N1  UNL     1      54.184  42.204   7.680  1.00  0.00    -0.359 N 
ATOM     26  H1  UNL     1      53.524  41.722   8.290  1.00  0.00     0.162 HD
BRANCH  25  27
HETATM   27  C17 UNL     1      53.752  42.540   6.338  1.00  0.00     0.152 C 
BRANCH  27  28
HETATM   28  C18 UNL     1      53.378  43.997   6.175  1.00  0.00     0.292 C 
BRANCH  28  29
HETATM   29  N2  UNL     1      54.458  44.587   5.369  1.00  0.00     0.093 N 
HETATM   30  C19 UNL     1      54.640  45.974   5.774  1.00  0.00     0.300 C 
HETATM   31  C20 UNL     1      53.647  46.852   5.054  1.00  0.00     0.262 C 
HETATM   32  N3  UNL     1      54.030  46.960   3.658  1.00  0.00    -0.072 N 
HETATM   33  C21 UNL     1      54.727  45.751   3.254  1.00  0.00     0.262 C 
ATOM     34  H32 UNL     1      53.234  47.167   3.055  1.00  0.00     0.277 HD
ATOM     35  H31 UNL     1      54.576  47.801   3.472  1.00  0.00     0.277 HD
HETATM   36  C22 UNL     1      54.154  44.539   3.971  1.00  0.00     0.300 C 
ENDBRANCH  28  29
ENDBRANCH  27  28
ENDBRANCH  25  27
ENDBRANCH  11  23
BRANCH  14  37
HETATM   37  O3  UNL     1      57.981  41.676  11.949  1.00  0.00    -0.395 OA
ATOM     38  H3  UNL     1      58.916  41.654  12.113  1.00  0.00     0.210 HD
ENDBRANCH  14  37
BRANCH   1  39
HETATM   39  O1  UNL     1      52.314  36.646  16.192  1.00  0.00    -0.381 OA
BRANCH  39  40
HETATM   40  C3  UNL     1      53.079  35.550  16.559  1.00  0.00     0.194 C 
BRANCH  40  41
HETATM   41  C2  UNL     1      53.492  35.695  17.974  1.00  0.00    -0.011 C 
HETATM   42  C1  UNL     1      52.768  36.445  18.820  1.00  0.00     0.009 C 
ENDBRANCH  40  41
ENDBRANCH  39  40
ENDBRANCH   1  39
TORSDOF 8
ENDMDL
MODEL 4
REMARK VINA RESULT: -7.946946259      5.015     14.394
REMARK  8 active torsions:
REMARK  status: ('A' for Active; 'I' for Inactive)
REMARK    1  A    between atoms: C2_2  and  C3_3 
REMARK    2  A    between atoms: C3_3  and  O1_4 
REMARK    3  A    between atoms: O1_4  and  C4_5 
REMARK    4  A    between atoms: C14_15  and  C16_17 
REMARK       I    between atoms: C16_17  and  N1_19 
REMARK    5  A    between atoms: N1_19  and  C17_21 
REMARK    6  A    between atoms: C17_21  and  C18_22 
REMARK    7  A    between atoms: C18_22  and  N2_23 
REMARK    8  A    between atoms: C24_32  and  O3_33 
ROOT
HETATM    1  C4  UNL     1      50.421  54.119  16.839  1.00  0.00     0.130 C 
HETATM    2  C5  UNL     1      51.904  53.802  16.721  1.00  0.00     0.043 C 
HETATM    3  C6  UNL     1      52.037  53.353  15.303  1.00  0.00    -0.030 C 
HETATM    4  C7  UNL     1      52.218  54.651  14.492  1.00  0.00     0.016 C 
HETATM    5  C8  UNL     1      50.752  52.779  14.840  1.00  0.00     0.005 C 
HETATM    6  C9  UNL     1      50.676  51.297  14.732  1.00  0.00     0.007 C 
HETATM    7  C10 UNL     1      51.893  50.654  14.139  1.00  0.00     0.006 C 
HETATM    8  C11 UNL     1      53.004  51.671  13.831  1.00  0.00    -0.001 C 
HETATM    9  C12 UNL     1      54.158  51.076  13.161  1.00  0.00    -0.002 C 
HETATM   10  C13 UNL     1      54.161  49.561  13.053  1.00  0.00     0.024 C 
HETATM   11  C14 UNL     1      55.173  49.205  11.962  1.00  0.00     0.040 C 
HETATM   12  C15 UNL     1      54.546  49.682  10.648  1.00  0.00     0.025 C 
HETATM   13  C23 UNL     1      56.521  49.759  12.188  1.00  0.00     0.051 C 
HETATM   14  C24 UNL     1      56.572  51.175  12.689  1.00  0.00     0.123 C 
HETATM   15  C25 UNL     1      55.509  51.402  13.756  1.00  0.00     0.019 C 
HETATM   16  C26 UNL     1      55.624  52.788  14.254  1.00  0.00     0.008 C 
HETATM   17  C27 UNL     1      54.493  53.275  15.092  1.00  0.00     0.011 C 
HETATM   18  C28 UNL     1      53.253  52.440  15.088  1.00  0.00    -0.032 C 
HETATM   19  C29 UNL     1      53.394  51.442  16.216  1.00  0.00     0.016 C 
HETATM   20  C30 UNL     1      49.717  53.310  15.798  1.00  0.00    -0.017 C 
HETATM   21  C31 UNL     1      48.952  52.210  16.510  1.00  0.00     0.018 C 
HETATM   22  C32 UNL     1      48.652  54.158  15.090  1.00  0.00     0.018 C 
ENDROOT
BRANCH  11  23
HETATM   23  C16 UNL     1      55.293  47.722  11.830  1.00  0.00     0.226 C 
HETATM   24  O2  UNL     1      55.494  47.028  12.852  1.00  0.00    -0.273 OA
HETATM   25  N1  UNL     1      55.170  47.171  10.535  1.00  0.00    -0.359 N 
ATOM     26  H1  UNL     1      55.004  47.808   9.755  1.00  0.00     0.162 HD
BRANCH  25  27
HETATM   27  C17 UNL     1      55.266  45.753  10.249  1.00  0.00     0.152 C 
BRANCH  27  28
HETATM   28  C18 UNL     1      55.584  45.453   8.801  1.00  0.00     0.292 C 
BRANCH  28  29
HETATM   29  N2  UNL     1      56.166  44.102   8.804  1.00  0.00     0.093 N 
HETATM   30  C19 UNL     1      55.945  43.494   7.499  1.00  0.00     0.300 C 
HETATM   31  C20 UNL     1      54.568  42.882   7.446  1.00  0.00     0.262 C 
HETATM   32  N3  UNL     1      54.544  41.688   8.270  1.00  0.00    -0.072 N 
HETATM   33  C21 UNL     1      55.500  41.832   9.355  1.00  0.00     0.262 C 
ATOM     34  H32 UNL     1      53.606  41.470   8.608  1.00  0.00     0.277 HD
ATOM     35  H31 UNL     1      54.702  40.840   7.726  1.00  0.00     0.277 HD
HETATM   36  C22 UNL     1      55.573  43.278   9.815  1.00  0.00     0.300 C 
ENDBRANCH  28  29
ENDBRANCH  27  28
ENDBRANCH  25  27
ENDBRANCH  11  23
BRANCH  14  37
HETATM   37  O3  UNL     1      56.599  52.127  11.715  1.00  0.00    -0.395 OA
ATOM     38  H3  UNL     1      57.445  52.249  11.300  1.00  0.00     0.210 HD
ENDBRANCH  14  37
BRANCH   1  39
HETATM   39  O1  UNL     1      50.251  55.469  16.608  1.00  0.00    -0.381 OA
BRANCH  39  40
HETATM   40  C3  UNL     1      49.932  56.159  17.766  1.00  0.00     0.194 C 
BRANCH  40  41
HETATM   41  C2  UNL     1      48.807  57.082  17.491  1.00  0.00    -0.011 C 
HETATM   42  C1  UNL     1      47.537  56.666  17.626  1.00  0.00     0.009 C 
ENDBRANCH  40  41
ENDBRANCH  39  40
ENDBRANCH   1  39
TORSDOF 8
ENDMDL
MODEL 5
REMARK VINA RESULT: -7.888261360      5.583      8.076
REMARK  8 active torsions:
REMARK  status: ('A' for Active; 'I' for Inactive)
REMARK    1  A    between atoms: C2_2  and  C3_3 
REMARK    2  A    between atoms: C3_3  and  O1_4 
REMARK    3  A    between atoms: O1_4  and  C4_5 
REMARK    4  A    between atoms: C14_15  and  C16_17 
REMARK       I    between atoms: C16_17  and  N1_19 
REMARK    5  A    between atoms: N1_19  and  C17_21 
REMARK    6  A    between atoms: C17_21  and  C18_22 
REMARK    7  A    between atoms: C18_22  and  N2_23 
REMARK    8  A    between atoms: C24_32  and  O3_33 
ROOT
HETATM    1  C4  UNL     1      51.865  36.660  14.981  1.00  0.00     0.130 C 
HETATM    2  C5  UNL     1      51.547  37.051  13.546  1.00  0.00     0.043 C 
HETATM    3  C6  UNL     1      52.890  37.392  12.988  1.00  0.00    -0.030 C 
HETATM    4  C7  UNL     1      53.480  36.045  12.523  1.00  0.00     0.016 C 
HETATM    5  C8  UNL     1      53.779  37.853  14.079  1.00  0.00     0.005 C 
HETATM    6  C9  UNL     1      54.044  39.315  14.161  1.00  0.00     0.007 C 
HETATM    7  C10 UNL     1      54.288  39.977  12.838  1.00  0.00     0.006 C 
HETATM    8  C11 UNL     1      54.140  39.003  11.657  1.00  0.00    -0.001 C 
HETATM    9  C12 UNL     1      54.472  39.608  10.369  1.00  0.00    -0.002 C 
HETATM   10  C13 UNL     1      54.716  41.107  10.377  1.00  0.00     0.024 C 
HETATM   11  C14 UNL     1      55.468  41.432   9.085  1.00  0.00     0.040 C 
HETATM   12  C15 UNL     1      56.861  40.816   9.254  1.00  0.00     0.025 C 
HETATM   13  C23 UNL     1      54.785  40.975   7.860  1.00  0.00     0.051 C 
HETATM   14  C24 UNL     1      54.162  39.609   7.928  1.00  0.00     0.123 C 
HETATM   15  C25 UNL     1      53.461  39.407   9.264  1.00  0.00     0.019 C 
HETATM   16  C26 UNL     1      52.824  38.075   9.271  1.00  0.00     0.008 C 
HETATM   17  C27 UNL     1      52.336  37.592  10.593  1.00  0.00     0.011 C 
HETATM   18  C28 UNL     1      52.802  38.353  11.792  1.00  0.00    -0.032 C 
HETATM   19  C29 UNL     1      51.785  39.444  12.042  1.00  0.00     0.016 C 
HETATM   20  C30 UNL     1      53.144  37.342  15.346  1.00  0.00    -0.017 C 
HETATM   21  C31 UNL     1      52.810  38.449  16.328  1.00  0.00     0.018 C 
HETATM   22  C32 UNL     1      54.065  36.381  16.110  1.00  0.00     0.018 C 
ENDROOT
BRANCH  11  23
HETATM   23  C16 UNL     1      55.694  42.903   8.973  1.00  0.00     0.226 C 
HETATM   24  O2  UNL     1      55.466  43.638   9.961  1.00  0.00    -0.273 OA
HETATM   25  N1  UNL     1      56.163  43.398   7.735  1.00  0.00    -0.359 N 
ATOM     26  H1  UNL     1      56.326  42.730   6.981  1.00  0.00     0.162 HD
BRANCH  25  27
HETATM   27  C17 UNL     1      56.426  44.799   7.474  1.00  0.00     0.152 C 
BRANCH  27  28
HETATM   28  C18 UNL     1      55.900  45.269   6.136  1.00  0.00     0.292 C 
BRANCH  28  29
HETATM   29  N2  UNL     1      54.457  44.981   6.163  1.00  0.00     0.093 N 
HETATM   30  C19 UNL     1      53.969  44.908   4.793  1.00  0.00     0.300 C 
HETATM   31  C20 UNL     1      53.664  46.296   4.284  1.00  0.00     0.262 C 
HETATM   32  N3  UNL     1      52.467  46.791   4.938  1.00  0.00    -0.072 N 
HETATM   33  C21 UNL     1      52.357  46.198   6.259  1.00  0.00     0.262 C 
ATOM     34  H32 UNL     1      52.437  47.810   4.968  1.00  0.00     0.277 HD
ATOM     35  H31 UNL     1      51.629  46.639   4.376  1.00  0.00     0.277 HD
HETATM   36  C22 UNL     1      53.734  45.995   6.870  1.00  0.00     0.300 C 
ENDBRANCH  28  29
ENDBRANCH  27  28
ENDBRANCH  25  27
ENDBRANCH  11  23
BRANCH  14  37
HETATM   37  O3  UNL     1      54.986  38.585   7.568  1.00  0.00    -0.395 OA
ATOM     38  H3  UNL     1      55.526  38.241   8.271  1.00  0.00     0.210 HD
ENDBRANCH  14  37
BRANCH   1  39
HETATM   39  O1  UNL     1      52.010  35.288  15.031  1.00  0.00    -0.381 OA
BRANCH  39  40
HETATM   40  C3  UNL     1      50.863  34.660  15.490  1.00  0.00     0.194 C 
BRANCH  40  41
HETATM   41  C2  UNL     1      50.444  35.283  16.767  1.00  0.00    -0.011 C 
HETATM   42  C1  UNL     1      50.830  34.756  17.940  1.00  0.00     0.009 C 
ENDBRANCH  40  41
ENDBRANCH  39  40
ENDBRANCH   1  39
TORSDOF 8
ENDMDL
