MODEL 1
REMARK VINA RESULT: -6.490422203      0.000      0.000
REMARK  7 active torsions:
REMARK  status: ('A' for Active; 'I' for Inactive)
REMARK    1  A    between atoms: C2_2  and  C3_3 
REMARK    2  A    between atoms: C3_3  and  C4_4 
REMARK    3  A    between atoms: C4_4  and  N1_5 
REMARK    4  A    between atoms: N1_5  and  C5_8 
REMARK    5  A    between atoms: C5_8  and  C6_9 
REMARK    6  A    between atoms: C6_9  and  C7_10 
REMARK    7  A    between atoms: C7_10  and  C8_11 
ROOT
HETATM    1  C5  UNL     1      11.213  -3.593   0.753  1.00  0.00     0.232 C 
ENDROOT
BRANCH   1   2
HETATM    2  N1  UNL     1      10.233  -3.372  -0.259  1.00  0.00    -0.075 N 
ATOM      3  H12 UNL     1       9.744  -4.235  -0.496  1.00  0.00     0.277 HD
ATOM      4  H11 UNL     1      10.669  -3.181  -1.161  1.00  0.00     0.277 HD
BRANCH   2   5
HETATM    5  C4  UNL     1       9.288  -2.309   0.110  1.00  0.00     0.236 C 
BRANCH   5   6
HETATM    6  C3  UNL     1       8.476  -2.932   1.300  1.00  0.00     0.054 C 
BRANCH   6   7
HETATM    7  C2  UNL     1       7.176  -2.155   1.258  1.00  0.00    -0.035 C 
HETATM    8  C1  UNL     1       5.992  -2.646   1.324  1.00  0.00     0.007 C 
ENDBRANCH   6   7
ENDBRANCH   5   6
ENDBRANCH   2   5
ENDBRANCH   1   2
BRANCH   1   9
HETATM    9  C6  UNL     1      12.625  -3.546   0.136  1.00  0.00     0.028 C 
BRANCH   9  10
HETATM   10  C7  UNL     1      13.361  -4.820   0.575  1.00  0.00     0.006 C 
BRANCH  10  11
HETATM   11  C8  UNL     1      14.254  -5.281  -0.529  1.00  0.00    -0.014 C 
HETATM   12  C9  UNL     1      15.044  -4.092  -1.112  1.00  0.00     0.004 C 
HETATM   13  C10 UNL     1      16.344  -4.734  -1.504  1.00  0.00     0.000 C 
HETATM   14  C11 UNL     1      16.656  -5.624  -0.299  1.00  0.00     0.000 C 
HETATM   15  C12 UNL     1      15.293  -6.284  -0.081  1.00  0.00     0.004 C 
ENDBRANCH  10  11
ENDBRANCH   9  10
ENDBRANCH   1   9
TORSDOF 7
ENDMDL
MODEL 2
REMARK VINA RESULT: -6.461788561      0.844      1.114
REMARK  7 active torsions:
REMARK  status: ('A' for Active; 'I' for Inactive)
REMARK    1  A    between atoms: C2_2  and  C3_3 
REMARK    2  A    between atoms: C3_3  and  C4_4 
REMARK    3  A    between atoms: C4_4  and  N1_5 
REMARK    4  A    between atoms: N1_5  and  C5_8 
REMARK    5  A    between atoms: C5_8  and  C6_9 
REMARK    6  A    between atoms: C6_9  and  C7_10 
REMARK    7  A    between atoms: C7_10  and  C8_11 
ROOT
HETATM    1  C5  UNL     1      11.939  -3.625   1.260  1.00  0.00     0.232 C 
ENDROOT
BRANCH   1   2
HETATM    2  N1  UNL     1      10.553  -3.870   1.030  1.00  0.00    -0.075 N 
ATOM      3  H12 UNL     1       9.982  -3.512   1.796  1.00  0.00     0.277 HD
ATOM      4  H11 UNL     1      10.334  -4.862   1.116  1.00  0.00     0.277 HD
BRANCH   2   5
HETATM    5  C4  UNL     1      10.104  -3.336  -0.262  1.00  0.00     0.236 C 
BRANCH   5   6
HETATM    6  C3  UNL     1       9.225  -2.098   0.133  1.00  0.00     0.054 C 
BRANCH   6   7
HETATM    7  C2  UNL     1       8.350  -2.649   1.239  1.00  0.00    -0.035 C 
HETATM    8  C1  UNL     1       7.067  -2.645   1.270  1.00  0.00     0.007 C 
ENDBRANCH   6   7
ENDBRANCH   5   6
ENDBRANCH   2   5
ENDBRANCH   1   2
BRANCH   1   9
HETATM    9  C6  UNL     1      12.790  -4.641   0.472  1.00  0.00     0.028 C 
BRANCH   9  10
HETATM   10  C7  UNL     1      13.846  -3.846  -0.309  1.00  0.00     0.006 C 
BRANCH  10  11
HETATM   11  C8  UNL     1      14.723  -4.793  -1.059  1.00  0.00    -0.014 C 
HETATM   12  C9  UNL     1      16.025  -4.090  -1.494  1.00  0.00     0.004 C 
HETATM   13  C10 UNL     1      17.027  -5.206  -1.432  1.00  0.00     0.000 C 
HETATM   14  C11 UNL     1      16.679  -5.897  -0.112  1.00  0.00     0.000 C 
HETATM   15  C12 UNL     1      15.157  -5.987  -0.240  1.00  0.00     0.004 C 
ENDBRANCH  10  11
ENDBRANCH   9  10
ENDBRANCH   1   9
TORSDOF 7
ENDMDL
MODEL 3
REMARK VINA RESULT: -6.416434029      1.438      7.181
REMARK  7 active torsions:
REMARK  status: ('A' for Active; 'I' for Inactive)
REMARK    1  A    between atoms: C2_2  and  C3_3 
REMARK    2  A    between atoms: C3_3  and  C4_4 
REMARK    3  A    between atoms: C4_4  and  N1_5 
REMARK    4  A    between atoms: N1_5  and  C5_8 
REMARK    5  A    between atoms: C5_8  and  C6_9 
REMARK    6  A    between atoms: C6_9  and  C7_10 
REMARK    7  A    between atoms: C7_10  and  C8_11 
ROOT
HETATM    1  C5  UNL     1      13.185  -4.457   0.193  1.00  0.00     0.232 C 
ENDROOT
BRANCH   1   2
HETATM    2  N1  UNL     1      13.974  -3.513  -0.528  1.00  0.00    -0.075 N 
ATOM      3  H12 UNL     1      14.342  -2.790   0.089  1.00  0.00     0.277 HD
ATOM      4  H11 UNL     1      13.393  -2.930  -1.131  1.00  0.00     0.277 HD
BRANCH   2   5
HETATM    5  C4  UNL     1      15.050  -4.160  -1.290  1.00  0.00     0.236 C 
BRANCH   5   6
HETATM    6  C3  UNL     1      15.413  -5.418  -0.426  1.00  0.00     0.054 C 
BRANCH   6   7
HETATM    7  C2  UNL     1      16.899  -5.574  -0.672  1.00  0.00    -0.035 C 
HETATM    8  C1  UNL     1      17.629  -4.834  -1.425  1.00  0.00     0.007 C 
ENDBRANCH   6   7
ENDBRANCH   5   6
ENDBRANCH   2   5
ENDBRANCH   1   2
BRANCH   1   9
HETATM    9  C6  UNL     1      12.014  -3.739   0.893  1.00  0.00     0.028 C 
BRANCH   9  10
HETATM   10  C7  UNL     1      11.489  -2.667  -0.074  1.00  0.00     0.006 C 
BRANCH  10  11
HETATM   11  C8  UNL     1      10.001  -2.758  -0.154  1.00  0.00    -0.014 C 
HETATM   12  C9  UNL     1       9.435  -3.422   1.117  1.00  0.00     0.004 C 
HETATM   13  C10 UNL     1       8.114  -2.727   1.279  1.00  0.00     0.000 C 
HETATM   14  C11 UNL     1       8.470  -1.263   1.013  1.00  0.00     0.000 C 
HETATM   15  C12 UNL     1       9.322  -1.411  -0.250  1.00  0.00     0.004 C 
ENDBRANCH  10  11
ENDBRANCH   9  10
ENDBRANCH   1   9
TORSDOF 7
ENDMDL
MODEL 4
REMARK VINA RESULT: -6.411425990      1.270      7.524
REMARK  7 active torsions:
REMARK  status: ('A' for Active; 'I' for Inactive)
REMARK    1  A    between atoms: C2_2  and  C3_3 
REMARK    2  A    between atoms: C3_3  and  C4_4 
REMARK    3  A    between atoms: C4_4  and  N1_5 
REMARK    4  A    between atoms: N1_5  and  C5_8 
REMARK    5  A    between atoms: C5_8  and  C6_9 
REMARK    6  A    between atoms: C6_9  and  C7_10 
REMARK    7  A    between atoms: C7_10  and  C8_11 
ROOT
HETATM    1  C5  UNL     1      12.266  -3.382   0.478  1.00  0.00     0.232 C 
ENDROOT
BRANCH   1   2
HETATM    2  N1  UNL     1      13.156  -4.437   0.122  1.00  0.00    -0.075 N 
ATOM      3  H12 UNL     1      12.674  -5.167  -0.404  1.00  0.00     0.277 HD
ATOM      4  H11 UNL     1      13.430  -4.982   0.940  1.00  0.00     0.277 HD
BRANCH   2   5
HETATM    5  C4  UNL     1      14.332  -3.946  -0.608  1.00  0.00     0.236 C 
BRANCH   5   6
HETATM    6  C3  UNL     1      15.303  -5.179  -0.621  1.00  0.00     0.054 C 
BRANCH   6   7
HETATM    7  C2  UNL     1      16.543  -4.619  -1.287  1.00  0.00    -0.035 C 
HETATM    8  C1  UNL     1      17.680  -5.204  -1.394  1.00  0.00     0.007 C 
ENDBRANCH   6   7
ENDBRANCH   5   6
ENDBRANCH   2   5
ENDBRANCH   1   2
BRANCH   1   9
HETATM    9  C6  UNL     1      10.818  -3.909   0.527  1.00  0.00     0.028 C 
BRANCH   9  10
HETATM   10  C7  UNL     1       9.959  -2.972  -0.333  1.00  0.00     0.006 C 
BRANCH  10  11
HETATM   11  C8  UNL     1       9.201  -2.041   0.554  1.00  0.00    -0.014 C 
HETATM   12  C9  UNL     1       8.387  -1.039  -0.289  1.00  0.00     0.004 C 
HETATM   13  C10 UNL     1       7.174  -0.812   0.567  1.00  0.00     0.000 C 
HETATM   14  C11 UNL     1       6.816  -2.227   1.024  1.00  0.00     0.000 C 
HETATM   15  C12 UNL     1       8.197  -2.741   1.441  1.00  0.00     0.004 C 
ENDBRANCH  10  11
ENDBRANCH   9  10
ENDBRANCH   1   9
TORSDOF 7
ENDMDL
MODEL 5
REMARK VINA RESULT: -6.390695966      1.631      7.162
REMARK  7 active torsions:
REMARK  status: ('A' for Active; 'I' for Inactive)
REMARK    1  A    between atoms: C2_2  and  C3_3 
REMARK    2  A    between atoms: C3_3  and  C4_4 
REMARK    3  A    between atoms: C4_4  and  N1_5 
REMARK    4  A    between atoms: N1_5  and  C5_8 
REMARK    5  A    between atoms: C5_8  and  C6_9 
REMARK    6  A    between atoms: C6_9  and  C7_10 
REMARK    7  A    between atoms: C7_10  and  C8_11 
ROOT
HETATM    1  C5  UNL     1      14.001  -3.536  -0.618  1.00  0.00     0.232 C 
ENDROOT
BRANCH   1   2
HETATM    2  N1  UNL     1      13.927  -4.909  -0.240  1.00  0.00    -0.075 N 
ATOM      3  H12 UNL     1      13.263  -5.418  -0.825  1.00  0.00     0.277 HD
ATOM      4  H11 UNL     1      13.464  -5.019   0.662  1.00  0.00     0.277 HD
BRANCH   2   5
HETATM    5  C4  UNL     1      15.245  -5.556  -0.244  1.00  0.00     0.236 C 
BRANCH   5   6
HETATM    6  C3  UNL     1      16.162  -4.526  -0.993  1.00  0.00     0.054 C 
BRANCH   6   7
HETATM    7  C2  UNL     1      17.492  -5.249  -1.057  1.00  0.00    -0.035 C 
HETATM    8  C1  UNL     1      18.156  -5.530  -2.118  1.00  0.00     0.007 C 
ENDBRANCH   6   7
ENDBRANCH   5   6
ENDBRANCH   2   5
ENDBRANCH   1   2
BRANCH   1   9
HETATM    9  C6  UNL     1      12.798  -2.765  -0.040  1.00  0.00     0.028 C 
BRANCH   9  10
HETATM   10  C7  UNL     1      11.987  -3.752   0.812  1.00  0.00     0.006 C 
BRANCH  10  11
HETATM   11  C8  UNL     1      10.556  -3.710   0.390  1.00  0.00    -0.014 C 
HETATM   12  C9  UNL     1       9.647  -3.416   1.602  1.00  0.00     0.004 C 
HETATM   13  C10 UNL     1       8.533  -2.624   0.980  1.00  0.00     0.000 C 
HETATM   14  C11 UNL     1       9.281  -1.659   0.058  1.00  0.00     0.000 C 
HETATM   15  C12 UNL     1      10.258  -2.624  -0.618  1.00  0.00     0.004 C 
ENDBRANCH  10  11
ENDBRANCH   9  10
ENDBRANCH   1   9
TORSDOF 7
ENDMDL
