MODEL 1
REMARK VINA RESULT: -5.997145322      0.000      0.000
REMARK  8 active torsions:
REMARK  status: ('A' for Active; 'I' for Inactive)
REMARK    1  A    between atoms: C2_2  and  C3_3 
REMARK    2  A    between atoms: C3_3  and  C4_4 
REMARK    3  A    between atoms: C4_4  and  N1_5 
REMARK    4  A    between atoms: N1_5  and  C5_8 
REMARK    5  A    between atoms: C5_8  and  C6_9 
REMARK    6  A    between atoms: C6_9  and  C7_10 
REMARK    7  A    between atoms: C7_10  and  C8_11 
REMARK    8  A    between atoms: C8_11  and  C9_12 
ROOT
HETATM    1  C5  UNL     1      10.081  -2.709  -0.294  1.00  0.00     0.233 C 
ENDROOT
BRANCH   1   2
HETATM    2  N1  UNL     1       9.594  -1.427   0.200  1.00  0.00    -0.075 N 
ATOM      3  H12 UNL     1       9.052  -0.936  -0.511  1.00  0.00     0.277 HD
ATOM      4  H11 UNL     1      10.356  -0.757   0.311  1.00  0.00     0.277 HD
BRANCH   2   5
HETATM    5  C4  UNL     1       8.844  -1.578   1.422  1.00  0.00     0.236 C 
BRANCH   5   6
HETATM    6  C3  UNL     1       7.781  -2.666   1.276  1.00  0.00     0.054 C 
BRANCH   6   7
HETATM    7  C2  UNL     1       6.419  -2.111   1.324  1.00  0.00    -0.035 C 
HETATM    8  C1  UNL     1       5.362  -2.903   1.296  1.00  0.00     0.007 C 
ENDBRANCH   6   7
ENDBRANCH   5   6
ENDBRANCH   2   5
ENDBRANCH   1   2
BRANCH   1   9
HETATM    9  C6  UNL     1      11.551  -2.841  -0.153  1.00  0.00     0.037 C 
BRANCH   9  10
HETATM   10  C7  UNL     1      11.989  -4.076   0.668  1.00  0.00    -0.039 A 
HETATM   11  C11 UNL     1      10.909  -4.784   1.314  1.00  0.00     0.010 A 
HETATM   12  C12 UNL     1      11.842  -3.913   2.143  1.00  0.00     0.010 A 
BRANCH  10  13
HETATM   13  C8  UNL     1      13.273  -4.635   0.195  1.00  0.00     0.009 C 
BRANCH  13  14
HETATM   14  C9  UNL     1      14.217  -3.817  -0.571  1.00  0.00    -0.004 C 
HETATM   15  C10 UNL     1      15.524  -4.473  -0.924  1.00  0.00     0.005 C 
ENDBRANCH  13  14
ENDBRANCH  10  13
ENDBRANCH   9  10
ENDBRANCH   1   9
TORSDOF 8
ENDMDL
MODEL 2
REMARK VINA RESULT: -5.836731413      1.797      6.615
REMARK  8 active torsions:
REMARK  status: ('A' for Active; 'I' for Inactive)
REMARK    1  A    between atoms: C2_2  and  C3_3 
REMARK    2  A    between atoms: C3_3  and  C4_4 
REMARK    3  A    between atoms: C4_4  and  N1_5 
REMARK    4  A    between atoms: N1_5  and  C5_8 
REMARK    5  A    between atoms: C5_8  and  C6_9 
REMARK    6  A    between atoms: C6_9  and  C7_10 
REMARK    7  A    between atoms: C7_10  and  C8_11 
REMARK    8  A    between atoms: C8_11  and  C9_12 
ROOT
HETATM    1  C5  UNL     1      13.134  -2.691  -0.106  1.00  0.00     0.233 C 
ENDROOT
BRANCH   1   2
HETATM    2  N1  UNL     1      14.258  -3.425  -0.672  1.00  0.00    -0.075 N 
ATOM      3  H12 UNL     1      15.149  -3.005  -0.405  1.00  0.00     0.277 HD
ATOM      4  H11 UNL     1      14.317  -3.296  -1.683  1.00  0.00     0.277 HD
BRANCH   2   5
HETATM    5  C4  UNL     1      14.210  -4.823  -0.323  1.00  0.00     0.236 C 
BRANCH   5   6
HETATM    6  C3  UNL     1      15.586  -5.469  -0.476  1.00  0.00     0.054 C 
BRANCH   6   7
HETATM    7  C2  UNL     1      16.501  -4.628  -1.265  1.00  0.00    -0.035 C 
HETATM    8  C1  UNL     1      17.752  -4.998  -1.474  1.00  0.00     0.007 C 
ENDBRANCH   6   7
ENDBRANCH   5   6
ENDBRANCH   2   5
ENDBRANCH   1   2
BRANCH   1   9
HETATM    9  C6  UNL     1      11.829  -3.263  -0.516  1.00  0.00     0.037 C 
BRANCH   9  10
HETATM   10  C7  UNL     1      10.845  -3.471   0.659  1.00  0.00    -0.039 A 
HETATM   11  C11 UNL     1      11.467  -3.548   1.960  1.00  0.00     0.010 A 
HETATM   12  C12 UNL     1      10.936  -4.814   1.301  1.00  0.00     0.010 A 
BRANCH  10  13
HETATM   13  C8  UNL     1       9.485  -2.988   0.341  1.00  0.00     0.009 C 
BRANCH  13  14
HETATM   14  C9  UNL     1       8.656  -2.339   1.361  1.00  0.00    -0.004 C 
HETATM   15  C10 UNL     1       7.182  -2.637   1.301  1.00  0.00     0.005 C 
ENDBRANCH  13  14
ENDBRANCH  10  13
ENDBRANCH   9  10
ENDBRANCH   1   9
TORSDOF 8
ENDMDL
MODEL 3
REMARK VINA RESULT: -5.823279776      1.307      6.722
REMARK  8 active torsions:
REMARK  status: ('A' for Active; 'I' for Inactive)
REMARK    1  A    between atoms: C2_2  and  C3_3 
REMARK    2  A    between atoms: C3_3  and  C4_4 
REMARK    3  A    between atoms: C4_4  and  N1_5 
REMARK    4  A    between atoms: N1_5  and  C5_8 
REMARK    5  A    between atoms: C5_8  and  C6_9 
REMARK    6  A    between atoms: C6_9  and  C7_10 
REMARK    7  A    between atoms: C7_10  and  C8_11 
REMARK    8  A    between atoms: C8_11  and  C9_12 
ROOT
HETATM    1  C5  UNL     1      10.636  -3.057  -0.152  1.00  0.00     0.233 C 
ENDROOT
BRANCH   1   2
HETATM    2  N1  UNL     1      12.031  -2.854   0.215  1.00  0.00    -0.075 N 
ATOM      3  H12 UNL     1      12.114  -2.340   1.093  1.00  0.00     0.277 HD
ATOM      4  H11 UNL     1      12.486  -2.184  -0.405  1.00  0.00     0.277 HD
BRANCH   2   5
HETATM    5  C4  UNL     1      12.755  -4.100   0.265  1.00  0.00     0.236 C 
BRANCH   5   6
HETATM    6  C3  UNL     1      14.094  -3.980  -0.461  1.00  0.00     0.054 C 
BRANCH   6   7
HETATM    7  C2  UNL     1      14.859  -5.237  -0.409  1.00  0.00    -0.035 C 
HETATM    8  C1  UNL     1      16.129  -5.273  -0.772  1.00  0.00     0.007 C 
ENDBRANCH   6   7
ENDBRANCH   5   6
ENDBRANCH   2   5
ENDBRANCH   1   2
BRANCH   1   9
HETATM    9  C6  UNL     1       9.741  -3.066   1.030  1.00  0.00     0.037 C 
BRANCH   9  10
HETATM   10  C7  UNL     1       8.495  -2.165   0.873  1.00  0.00    -0.039 A 
HETATM   11  C11 UNL     1       8.621  -1.130  -0.126  1.00  0.00     0.010 A 
HETATM   12  C12 UNL     1       8.689  -0.766   1.351  1.00  0.00     0.010 A 
BRANCH  10  13
HETATM   13  C8  UNL     1       7.257  -2.842   1.313  1.00  0.00     0.009 C 
BRANCH  13  14
HETATM   14  C9  UNL     1       5.968  -2.144   1.300  1.00  0.00    -0.004 C 
HETATM   15  C10 UNL     1       4.768  -2.967   1.684  1.00  0.00     0.005 C 
ENDBRANCH  13  14
ENDBRANCH  10  13
ENDBRANCH   9  10
ENDBRANCH   1   9
TORSDOF 8
ENDMDL
MODEL 4
REMARK VINA RESULT: -5.801448041      1.610      6.852
REMARK  8 active torsions:
REMARK  status: ('A' for Active; 'I' for Inactive)
REMARK    1  A    between atoms: C2_2  and  C3_3 
REMARK    2  A    between atoms: C3_3  and  C4_4 
REMARK    3  A    between atoms: C4_4  and  N1_5 
REMARK    4  A    between atoms: N1_5  and  C5_8 
REMARK    5  A    between atoms: C5_8  and  C6_9 
REMARK    6  A    between atoms: C6_9  and  C7_10 
REMARK    7  A    between atoms: C7_10  and  C8_11 
REMARK    8  A    between atoms: C8_11  and  C9_12 
ROOT
HETATM    1  C5  UNL     1      12.081  -4.581   0.838  1.00  0.00     0.233 C 
ENDROOT
BRANCH   1   2
HETATM    2  N1  UNL     1      13.233  -4.044   0.126  1.00  0.00    -0.075 N 
ATOM      3  H12 UNL     1      13.686  -3.300   0.658  1.00  0.00     0.277 HD
ATOM      4  H11 UNL     1      12.948  -3.505  -0.692  1.00  0.00     0.277 HD
BRANCH   2   5
HETATM    5  C4  UNL     1      14.170  -5.082  -0.228  1.00  0.00     0.236 C 
BRANCH   5   6
HETATM    6  C3  UNL     1      15.302  -4.522  -1.088  1.00  0.00     0.054 C 
BRANCH   6   7
HETATM    7  C2  UNL     1      16.545  -5.295  -0.927  1.00  0.00    -0.035 C 
HETATM    8  C1  UNL     1      17.692  -4.838  -1.396  1.00  0.00     0.007 C 
ENDBRANCH   6   7
ENDBRANCH   5   6
ENDBRANCH   2   5
ENDBRANCH   1   2
BRANCH   1   9
HETATM    9  C6  UNL     1      11.283  -3.517   1.494  1.00  0.00     0.037 C 
BRANCH   9  10
HETATM   10  C7  UNL     1      10.016  -3.114   0.704  1.00  0.00    -0.039 A 
HETATM   11  C11 UNL     1      10.045  -3.455  -0.699  1.00  0.00     0.010 A 
HETATM   12  C12 UNL     1      10.230  -2.006  -0.271  1.00  0.00     0.010 A 
BRANCH  10  13
HETATM   13  C8  UNL     1       8.827  -3.001   1.575  1.00  0.00     0.009 C 
BRANCH  13  14
HETATM   14  C9  UNL     1       7.718  -2.108   1.228  1.00  0.00    -0.004 C 
HETATM   15  C10 UNL     1       6.342  -2.713   1.281  1.00  0.00     0.005 C 
ENDBRANCH  13  14
ENDBRANCH  10  13
ENDBRANCH   9  10
ENDBRANCH   1   9
TORSDOF 8
ENDMDL
MODEL 5
REMARK VINA RESULT: -5.797973953      2.266      6.999
REMARK  8 active torsions:
REMARK  status: ('A' for Active; 'I' for Inactive)
REMARK    1  A    between atoms: C2_2  and  C3_3 
REMARK    2  A    between atoms: C3_3  and  C4_4 
REMARK    3  A    between atoms: C4_4  and  N1_5 
REMARK    4  A    between atoms: N1_5  and  C5_8 
REMARK    5  A    between atoms: C5_8  and  C6_9 
REMARK    6  A    between atoms: C6_9  and  C7_10 
REMARK    7  A    between atoms: C7_10  and  C8_11 
REMARK    8  A    between atoms: C8_11  and  C9_12 
ROOT
HETATM    1  C5  UNL     1      13.938  -3.450  -0.550  1.00  0.00     0.233 C 
ENDROOT
BRANCH   1   2
HETATM    2  N1  UNL     1      15.227  -3.989  -0.962  1.00  0.00    -0.075 N 
ATOM      3  H12 UNL     1      15.997  -3.406  -0.634  1.00  0.00     0.277 HD
ATOM      4  H11 UNL     1      15.369  -3.889  -1.968  1.00  0.00     0.277 HD
BRANCH   2   5
HETATM    5  C4  UNL     1      15.390  -5.359  -0.542  1.00  0.00     0.236 C 
BRANCH   5   6
HETATM    6  C3  UNL     1      16.868  -5.741  -0.493  1.00  0.00     0.054 C 
BRANCH   6   7
HETATM    7  C2  UNL     1      17.653  -5.025  -1.512  1.00  0.00    -0.035 C 
HETATM    8  C1  UNL     1      18.472  -5.676  -2.318  1.00  0.00     0.007 C 
ENDBRANCH   6   7
ENDBRANCH   5   6
ENDBRANCH   2   5
ENDBRANCH   1   2
BRANCH   1   9
HETATM    9  C6  UNL     1      13.133  -4.440   0.205  1.00  0.00     0.037 C 
BRANCH   9  10
HETATM   10  C7  UNL     1      11.837  -3.853   0.813  1.00  0.00    -0.039 A 
HETATM   11  C11 UNL     1      11.760  -3.925   2.252  1.00  0.00     0.010 A 
HETATM   12  C12 UNL     1      10.924  -4.873   1.404  1.00  0.00     0.010 A 
BRANCH  10  13
HETATM   13  C8  UNL     1      11.212  -2.847  -0.071  1.00  0.00     0.009 C 
BRANCH  13  14
HETATM   14  C9  UNL     1       9.768  -2.850  -0.318  1.00  0.00    -0.004 C 
HETATM   15  C10 UNL     1       8.958  -1.868   0.484  1.00  0.00     0.005 C 
ENDBRANCH  13  14
ENDBRANCH  10  13
ENDBRANCH   9  10
ENDBRANCH   1   9
TORSDOF 8
ENDMDL
