MODEL 1
REMARK VINA RESULT: -8.781415339      0.000      0.000
REMARK  12 active torsions:
REMARK  status: ('A' for Active; 'I' for Inactive)
REMARK    1  A    between atoms: C2_2  and  C3_3 
REMARK    2  A    between atoms: C4_4  and  C5_5 
REMARK       I    between atoms: C5_5  and  N1_7 
REMARK    3  A    between atoms: N1_7  and  C6_9 
REMARK    4  A    between atoms: C10_13  and  C11_14 
REMARK       I    between atoms: C11_14  and  N2_16 
REMARK    5  A    between atoms: N2_16  and  C12_18 
REMARK    6  A    between atoms: C12_18  and  C13_19 
REMARK       I    between atoms: C13_19  and  N3_21 
REMARK    7  A    between atoms: N3_21  and  C14_23 
REMARK    8  A    between atoms: C14_23  and  C15_24 
REMARK    9  A    between atoms: C15_24  and  O4_25 
REMARK   10  A    between atoms: N5_29  and  C17_30 
REMARK   11  A    between atoms: N6_33  and  C20_34 
REMARK   12  A    between atoms: C20_34  and  C21_35 
ROOT
HETATM    1  C3  UNL     1      17.088  22.625  17.613  1.00  0.00     0.052 A 
HETATM    2  C4  UNL     1      15.905  21.970  17.294  1.00  0.00     0.090 A 
HETATM    3  C10 UNL     1      15.643  22.249  15.990  1.00  0.00     0.134 A 
HETATM    4  N4  UNL     1      16.667  23.063  15.568  1.00  0.00    -0.287 N 
ATOM      5  H4  UNL     1      16.752  23.446  14.627  1.00  0.00     0.188 HD
HETATM    6  N5  UNL     1      17.510  23.277  16.526  1.00  0.00    -0.259 N 
ENDROOT
BRANCH   3   7
HETATM    7  C11 UNL     1      14.599  21.751  15.119  1.00  0.00     0.271 C 
HETATM    8  O2  UNL     1      14.812  21.012  14.173  1.00  0.00    -0.266 OA
HETATM    9  N2  UNL     1      13.233  22.162  15.400  1.00  0.00    -0.347 N 
ATOM     10  H2  UNL     1      12.998  22.778  16.179  1.00  0.00     0.163 HD
BRANCH   9  11
HETATM   11  C12 UNL     1      12.244  21.645  14.513  1.00  0.00     0.225 C 
BRANCH  11  12
HETATM   12  C13 UNL     1      11.921  20.231  14.774  1.00  0.00     0.235 C 
HETATM   13  O3  UNL     1      11.333  19.949  15.895  1.00  0.00    -0.272 OA
HETATM   14  N3  UNL     1      12.226  19.214  13.862  1.00  0.00    -0.358 N 
ATOM     15  H3  UNL     1      12.676  19.431  12.972  1.00  0.00     0.162 HD
BRANCH  14  16
HETATM   16  C14 UNL     1      11.885  17.821  14.212  1.00  0.00     0.148 C 
BRANCH  16  17
HETATM   17  C15 UNL     1      11.209  17.197  13.026  1.00  0.00     0.186 C 
BRANCH  17  18
HETATM   18  O4  UNL     1      10.071  17.872  12.614  1.00  0.00    -0.394 OA
HETATM   19  C16 UNL     1       9.668  17.432  11.370  1.00  0.00     0.201 C 
ENDBRANCH  17  18
ENDBRANCH  16  17
ENDBRANCH  14  16
ENDBRANCH  11  12
ENDBRANCH   9  11
ENDBRANCH   3   7
BRANCH   2  20
HETATM   20  C5  UNL     1      15.141  21.147  18.214  1.00  0.00     0.256 C 
HETATM   21  O1  UNL     1      14.236  21.724  18.927  1.00  0.00    -0.267 OA
HETATM   22  N1  UNL     1      15.266  19.765  18.419  1.00  0.00    -0.349 N 
ATOM     23  H1  UNL     1      15.949  19.231  17.881  1.00  0.00     0.163 HD
BRANCH  22  24
HETATM   24  C6  UNL     1      14.429  19.095  19.386  1.00  0.00     0.022 C 
HETATM   25  C7  UNL     1      14.802  17.633  19.410  1.00  0.00     0.037 C 
HETATM   26  C8  UNL     1      14.644  19.634  20.787  1.00  0.00     0.037 C 
HETATM   27  C9  UNL     1      12.976  19.249  18.985  1.00  0.00     0.037 C 
ENDBRANCH  22  24
ENDBRANCH   2  20
BRANCH   1  28
HETATM   28  C2  UNL     1      17.812  22.620  18.906  1.00  0.00     0.056 C 
HETATM   29  C1  UNL     1      18.728  21.456  19.079  1.00  0.00     0.011 C 
ENDBRANCH   1  28
BRANCH   6  30
HETATM   30  C17 UNL     1      18.705  24.075  16.465  1.00  0.00     0.063 A 
HETATM   31  C18 UNL     1      18.931  25.137  17.309  1.00  0.00     0.049 A 
HETATM   32  C19 UNL     1      20.094  25.840  17.185  1.00  0.00     0.097 A 
HETATM   33  N6  UNL     1      21.028  25.519  16.257  1.00  0.00    -0.321 N 
HETATM   34  C25 UNL     1      20.832  24.489  15.423  1.00  0.00     0.249 A 
HETATM   35  O5  UNL     1      21.697  24.178  14.552  1.00  0.00    -0.268 OA
HETATM   36  C26 UNL     1      19.664  23.766  15.530  1.00  0.00     0.106 A 
BRANCH  33  37
HETATM   37  C20 UNL     1      22.251  26.291  16.165  1.00  0.00     0.159 C 
BRANCH  37  38
HETATM   38  C21 UNL     1      22.113  27.415  15.203  1.00  0.00    -0.005 C 
HETATM   39  C22 UNL     1      23.093  28.270  15.033  1.00  0.00    -0.090 C 
HETATM   40  C23 UNL     1      24.375  28.166  15.781  1.00  0.00     0.042 C 
HETATM   41  C24 UNL     1      22.929  29.385  14.062  1.00  0.00     0.042 C 
ENDBRANCH  37  38
ENDBRANCH  33  37
ENDBRANCH   6  30
TORSDOF 12
ENDMDL
MODEL 2
REMARK VINA RESULT: -8.769826540      2.689      4.736
REMARK  12 active torsions:
REMARK  status: ('A' for Active; 'I' for Inactive)
REMARK    1  A    between atoms: C2_2  and  C3_3 
REMARK    2  A    between atoms: C4_4  and  C5_5 
REMARK       I    between atoms: C5_5  and  N1_7 
REMARK    3  A    between atoms: N1_7  and  C6_9 
REMARK    4  A    between atoms: C10_13  and  C11_14 
REMARK       I    between atoms: C11_14  and  N2_16 
REMARK    5  A    between atoms: N2_16  and  C12_18 
REMARK    6  A    between atoms: C12_18  and  C13_19 
REMARK       I    between atoms: C13_19  and  N3_21 
REMARK    7  A    between atoms: N3_21  and  C14_23 
REMARK    8  A    between atoms: C14_23  and  C15_24 
REMARK    9  A    between atoms: C15_24  and  O4_25 
REMARK   10  A    between atoms: N5_29  and  C17_30 
REMARK   11  A    between atoms: N6_33  and  C20_34 
REMARK   12  A    between atoms: C20_34  and  C21_35 
ROOT
HETATM    1  C3  UNL     1      18.185  23.694  15.947  1.00  0.00     0.052 A 
HETATM    2  C4  UNL     1      17.300  22.806  16.543  1.00  0.00     0.090 A 
HETATM    3  C10 UNL     1      17.864  22.424  17.719  1.00  0.00     0.134 A 
HETATM    4  N4  UNL     1      19.066  23.086  17.791  1.00  0.00    -0.287 N 
ATOM      5  H4  UNL     1      19.728  23.003  18.562  1.00  0.00     0.188 HD
HETATM    6  N5  UNL     1      19.245  23.830  16.747  1.00  0.00    -0.259 N 
ENDROOT
BRANCH   3   7
HETATM    7  C11 UNL     1      17.338  21.593  18.783  1.00  0.00     0.271 C 
HETATM    8  O2  UNL     1      17.957  20.667  19.277  1.00  0.00    -0.266 OA
HETATM    9  N2  UNL     1      16.003  21.894  19.276  1.00  0.00    -0.347 N 
ATOM     10  H2  UNL     1      15.442  22.658  18.899  1.00  0.00     0.163 HD
BRANCH   9  11
HETATM   11  C12 UNL     1      15.532  21.047  20.322  1.00  0.00     0.225 C 
BRANCH  11  12
HETATM   12  C13 UNL     1      14.677  19.951  19.832  1.00  0.00     0.235 C 
HETATM   13  O3  UNL     1      13.967  20.175  18.771  1.00  0.00    -0.272 OA
HETATM   14  N3  UNL     1      14.617  18.707  20.473  1.00  0.00    -0.358 N 
ATOM     15  H3  UNL     1      15.184  18.521  21.300  1.00  0.00     0.162 HD
BRANCH  14  16
HETATM   16  C14 UNL     1      13.718  17.671  19.926  1.00  0.00     0.148 C 
BRANCH  16  17
HETATM   17  C15 UNL     1      12.500  17.609  20.800  1.00  0.00     0.186 C 
BRANCH  17  18
HETATM   18  O4  UNL     1      11.377  18.194  20.234  1.00  0.00    -0.394 OA
HETATM   19  C16 UNL     1      11.268  17.850  18.902  1.00  0.00     0.201 C 
ENDBRANCH  17  18
ENDBRANCH  16  17
ENDBRANCH  14  16
ENDBRANCH  11  12
ENDBRANCH   9  11
ENDBRANCH   3   7
BRANCH   2  20
HETATM   20  C5  UNL     1      16.023  22.405  15.980  1.00  0.00     0.256 C 
HETATM   21  O1  UNL     1      14.956  22.711  16.633  1.00  0.00    -0.267 OA
HETATM   22  N1  UNL     1      15.806  21.716  14.778  1.00  0.00    -0.349 N 
ATOM     23  H1  UNL     1      16.599  21.450  14.194  1.00  0.00     0.163 HD
BRANCH  22  24
HETATM   24  C6  UNL     1      14.464  21.382  14.364  1.00  0.00     0.022 C 
HETATM   25  C7  UNL     1      14.516  20.855  12.951  1.00  0.00     0.037 C 
HETATM   26  C8  UNL     1      13.863  20.288  15.226  1.00  0.00     0.037 C 
HETATM   27  C9  UNL     1      13.598  22.625  14.418  1.00  0.00     0.037 C 
ENDBRANCH  22  24
ENDBRANCH   2  20
BRANCH   1  28
HETATM   28  C2  UNL     1      18.024  24.414  14.661  1.00  0.00     0.056 C 
HETATM   29  C1  UNL     1      17.545  25.818  14.811  1.00  0.00     0.011 C 
ENDBRANCH   1  28
BRANCH   6  30
HETATM   30  C17 UNL     1      20.379  24.669  16.467  1.00  0.00     0.063 A 
HETATM   31  C18 UNL     1      21.080  24.597  15.285  1.00  0.00     0.049 A 
HETATM   32  C19 UNL     1      22.143  25.433  15.099  1.00  0.00     0.097 A 
HETATM   33  N6  UNL     1      22.522  26.327  16.043  1.00  0.00    -0.321 N 
HETATM   34  C25 UNL     1      21.857  26.418  17.203  1.00  0.00     0.249 A 
HETATM   35  O5  UNL     1      22.201  27.250  18.093  1.00  0.00    -0.268 OA
HETATM   36  C26 UNL     1      20.781  25.582  17.411  1.00  0.00     0.106 A 
BRANCH  33  37
HETATM   37  C20 UNL     1      23.655  27.198  15.800  1.00  0.00     0.159 C 
BRANCH  37  38
HETATM   38  C21 UNL     1      24.941  26.460  15.905  1.00  0.00    -0.005 C 
HETATM   39  C22 UNL     1      26.070  27.041  15.578  1.00  0.00    -0.090 C 
HETATM   40  C23 UNL     1      26.128  28.445  15.090  1.00  0.00     0.042 C 
HETATM   41  C24 UNL     1      27.343  26.280  15.694  1.00  0.00     0.042 C 
ENDBRANCH  37  38
ENDBRANCH  33  37
ENDBRANCH   6  30
TORSDOF 12
ENDMDL
MODEL 3
REMARK VINA RESULT: -8.694671731      1.219      1.504
REMARK  12 active torsions:
REMARK  status: ('A' for Active; 'I' for Inactive)
REMARK    1  A    between atoms: C2_2  and  C3_3 
REMARK    2  A    between atoms: C4_4  and  C5_5 
REMARK       I    between atoms: C5_5  and  N1_7 
REMARK    3  A    between atoms: N1_7  and  C6_9 
REMARK    4  A    between atoms: C10_13  and  C11_14 
REMARK       I    between atoms: C11_14  and  N2_16 
REMARK    5  A    between atoms: N2_16  and  C12_18 
REMARK    6  A    between atoms: C12_18  and  C13_19 
REMARK       I    between atoms: C13_19  and  N3_21 
REMARK    7  A    between atoms: N3_21  and  C14_23 
REMARK    8  A    between atoms: C14_23  and  C15_24 
REMARK    9  A    between atoms: C15_24  and  O4_25 
REMARK   10  A    between atoms: N5_29  and  C17_30 
REMARK   11  A    between atoms: N6_33  and  C20_34 
REMARK   12  A    between atoms: C20_34  and  C21_35 
ROOT
HETATM    1  C3  UNL     1      17.264  22.592  17.777  1.00  0.00     0.052 A 
HETATM    2  C4  UNL     1      15.990  22.080  17.575  1.00  0.00     0.090 A 
HETATM    3  C10 UNL     1      15.560  22.560  16.378  1.00  0.00     0.134 A 
HETATM    4  N4  UNL     1      16.582  23.347  15.903  1.00  0.00    -0.287 N 
ATOM      5  H4  UNL     1      16.559  23.854  15.018  1.00  0.00     0.188 HD
HETATM    6  N5  UNL     1      17.577  23.359  16.729  1.00  0.00    -0.259 N 
ENDROOT
BRANCH   3   7
HETATM    7  C11 UNL     1      14.353  22.271  15.633  1.00  0.00     0.271 C 
HETATM    8  O2  UNL     1      13.554  23.127  15.294  1.00  0.00    -0.266 OA
HETATM    9  N2  UNL     1      14.095  20.884  15.278  1.00  0.00    -0.347 N 
ATOM     10  H2  UNL     1      14.730  20.128  15.536  1.00  0.00     0.163 HD
BRANCH   9  11
HETATM   11  C12 UNL     1      12.894  20.654  14.546  1.00  0.00     0.225 C 
BRANCH  11  12
HETATM   12  C13 UNL     1      12.821  19.298  13.972  1.00  0.00     0.235 C 
HETATM   13  O3  UNL     1      13.717  18.972  13.093  1.00  0.00    -0.272 OA
HETATM   14  N3  UNL     1      11.832  18.380  14.346  1.00  0.00    -0.358 N 
ATOM     15  H3  UNL     1      11.133  18.626  15.047  1.00  0.00     0.162 HD
BRANCH  14  16
HETATM   16  C14 UNL     1      11.822  17.049  13.707  1.00  0.00     0.148 C 
BRANCH  16  17
HETATM   17  C15 UNL     1      10.948  16.148  14.529  1.00  0.00     0.186 C 
BRANCH  17  18
HETATM   18  O4  UNL     1      10.688  16.631  15.802  1.00  0.00    -0.394 OA
HETATM   19  C16 UNL     1      10.078  15.664  16.574  1.00  0.00     0.201 C 
ENDBRANCH  17  18
ENDBRANCH  16  17
ENDBRANCH  14  16
ENDBRANCH  11  12
ENDBRANCH   9  11
ENDBRANCH   3   7
BRANCH   2  20
HETATM   20  C5  UNL     1      15.298  21.193  18.494  1.00  0.00     0.256 C 
HETATM   21  O1  UNL     1      14.597  21.729  19.432  1.00  0.00    -0.267 OA
HETATM   22  N1  UNL     1      15.295  19.790  18.477  1.00  0.00    -0.349 N 
ATOM     23  H1  UNL     1      15.815  19.289  17.756  1.00  0.00     0.163 HD
BRANCH  22  24
HETATM   24  C6  UNL     1      14.559  19.054  19.477  1.00  0.00     0.022 C 
HETATM   25  C7  UNL     1      14.907  17.591  19.346  1.00  0.00     0.037 C 
HETATM   26  C8  UNL     1      14.937  19.479  20.883  1.00  0.00     0.037 C 
HETATM   27  C9  UNL     1      13.073  19.251  19.253  1.00  0.00     0.037 C 
ENDBRANCH  22  24
ENDBRANCH   2  20
BRANCH   1  28
HETATM   28  C2  UNL     1      18.173  22.349  18.922  1.00  0.00     0.056 C 
HETATM   29  C1  UNL     1      17.871  23.186  20.120  1.00  0.00     0.011 C 
ENDBRANCH   1  28
BRANCH   6  30
HETATM   30  C17 UNL     1      18.820  24.066  16.576  1.00  0.00     0.063 A 
HETATM   31  C18 UNL     1      19.202  25.085  17.418  1.00  0.00     0.049 A 
HETATM   32  C19 UNL     1      20.400  25.701  17.204  1.00  0.00     0.097 A 
HETATM   33  N6  UNL     1      21.220  25.336  16.188  1.00  0.00    -0.321 N 
HETATM   34  C25 UNL     1      20.872  24.347  15.354  1.00  0.00     0.249 A 
HETATM   35  O5  UNL     1      21.629  23.997  14.402  1.00  0.00    -0.268 OA
HETATM   36  C26 UNL     1      19.665  23.712  15.552  1.00  0.00     0.106 A 
BRANCH  33  37
HETATM   37  C20 UNL     1      22.486  26.017  16.001  1.00  0.00     0.159 C 
BRANCH  37  38
HETATM   38  C21 UNL     1      22.317  27.279  15.235  1.00  0.00    -0.005 C 
HETATM   39  C22 UNL     1      23.267  28.184  15.225  1.00  0.00    -0.090 C 
HETATM   40  C23 UNL     1      24.543  28.002  15.967  1.00  0.00     0.042 C 
HETATM   41  C24 UNL     1      23.072  29.437  14.449  1.00  0.00     0.042 C 
ENDBRANCH  37  38
ENDBRANCH  33  37
ENDBRANCH   6  30
TORSDOF 12
ENDMDL
MODEL 4
REMARK VINA RESULT: -8.641664068      1.881      2.214
REMARK  12 active torsions:
REMARK  status: ('A' for Active; 'I' for Inactive)
REMARK    1  A    between atoms: C2_2  and  C3_3 
REMARK    2  A    between atoms: C4_4  and  C5_5 
REMARK       I    between atoms: C5_5  and  N1_7 
REMARK    3  A    between atoms: N1_7  and  C6_9 
REMARK    4  A    between atoms: C10_13  and  C11_14 
REMARK       I    between atoms: C11_14  and  N2_16 
REMARK    5  A    between atoms: N2_16  and  C12_18 
REMARK    6  A    between atoms: C12_18  and  C13_19 
REMARK       I    between atoms: C13_19  and  N3_21 
REMARK    7  A    between atoms: N3_21  and  C14_23 
REMARK    8  A    between atoms: C14_23  and  C15_24 
REMARK    9  A    between atoms: C15_24  and  O4_25 
REMARK   10  A    between atoms: N5_29  and  C17_30 
REMARK   11  A    between atoms: N6_33  and  C20_34 
REMARK   12  A    between atoms: C20_34  and  C21_35 
ROOT
HETATM    1  C3  UNL     1      16.863  22.389  17.177  1.00  0.00     0.052 A 
HETATM    2  C4  UNL     1      15.742  21.572  17.110  1.00  0.00     0.090 A 
HETATM    3  C10 UNL     1      15.340  21.566  15.812  1.00  0.00     0.134 A 
HETATM    4  N4  UNL     1      16.223  22.380  15.143  1.00  0.00    -0.287 N 
ATOM      5  H4  UNL     1      16.182  22.581  14.143  1.00  0.00     0.188 HD
HETATM    6  N5  UNL     1      17.113  22.858  15.951  1.00  0.00    -0.259 N 
ENDROOT
BRANCH   3   7
HETATM    7  C11 UNL     1      14.291  20.809  15.161  1.00  0.00     0.271 C 
HETATM    8  O2  UNL     1      14.454  20.200  14.118  1.00  0.00    -0.266 OA
HETATM    9  N2  UNL     1      12.984  20.782  15.798  1.00  0.00    -0.347 N 
ATOM     10  H2  UNL     1      12.793  21.273  16.672  1.00  0.00     0.163 HD
BRANCH   9  11
HETATM   11  C12 UNL     1      11.987  20.024  15.117  1.00  0.00     0.225 C 
BRANCH  11  12
HETATM   12  C13 UNL     1      11.331  19.028  15.983  1.00  0.00     0.235 C 
HETATM   13  O3  UNL     1      10.645  19.471  16.990  1.00  0.00    -0.272 OA
HETATM   14  N3  UNL     1      11.431  17.651  15.748  1.00  0.00    -0.358 N 
ATOM     15  H3  UNL     1      11.959  17.297  14.950  1.00  0.00     0.162 HD
BRANCH  14  16
HETATM   16  C14 UNL     1      10.759  16.722  16.678  1.00  0.00     0.148 C 
BRANCH  16  17
HETATM   17  C15 UNL     1      10.190  15.592  15.872  1.00  0.00     0.186 C 
BRANCH  17  18
HETATM   18  O4  UNL     1      10.512  14.337  16.365  1.00  0.00    -0.394 OA
HETATM   19  C16 UNL     1       9.704  14.013  17.436  1.00  0.00     0.201 C 
ENDBRANCH  17  18
ENDBRANCH  16  17
ENDBRANCH  14  16
ENDBRANCH  11  12
ENDBRANCH   9  11
ENDBRANCH   3   7
BRANCH   2  20
HETATM   20  C5  UNL     1      15.160  20.871  18.240  1.00  0.00     0.256 C 
HETATM   21  O1  UNL     1      14.648  21.579  19.187  1.00  0.00    -0.267 OA
HETATM   22  N1  UNL     1      15.078  19.483  18.425  1.00  0.00    -0.349 N 
ATOM     23  H1  UNL     1      15.447  18.852  17.713  1.00  0.00     0.163 HD
BRANCH  22  24
HETATM   24  C6  UNL     1      14.472  18.944  19.620  1.00  0.00     0.022 C 
HETATM   25  C7  UNL     1      14.835  17.483  19.723  1.00  0.00     0.037 C 
HETATM   26  C8  UNL     1      14.993  19.623  20.872  1.00  0.00     0.037 C 
HETATM   27  C9  UNL     1      12.967  19.095  19.532  1.00  0.00     0.037 C 
ENDBRANCH  22  24
ENDBRANCH   2  20
BRANCH   1  28
HETATM   28  C2  UNL     1      17.690  22.706  18.365  1.00  0.00     0.056 C 
HETATM   29  C1  UNL     1      18.553  21.576  18.818  1.00  0.00     0.011 C 
ENDBRANCH   1  28
BRANCH   6  30
HETATM   30  C17 UNL     1      18.197  23.742  15.619  1.00  0.00     0.063 A 
HETATM   31  C18 UNL     1      19.504  23.469  15.952  1.00  0.00     0.049 A 
HETATM   32  C19 UNL     1      20.473  24.361  15.595  1.00  0.00     0.097 A 
HETATM   33  N6  UNL     1      20.183  25.502  14.924  1.00  0.00    -0.321 N 
HETATM   34  C25 UNL     1      18.918  25.791  14.588  1.00  0.00     0.249 A 
HETATM   35  O5  UNL     1      18.634  26.853  13.960  1.00  0.00    -0.268 OA
HETATM   36  C26 UNL     1      17.924  24.904  14.939  1.00  0.00     0.106 A 
BRANCH  33  37
HETATM   37  C20 UNL     1      21.246  26.418  14.562  1.00  0.00     0.159 C 
BRANCH  37  38
HETATM   38  C21 UNL     1      22.356  26.380  15.550  1.00  0.00    -0.005 C 
HETATM   39  C22 UNL     1      23.119  27.431  15.735  1.00  0.00    -0.090 C 
HETATM   40  C23 UNL     1      22.921  28.697  14.980  1.00  0.00     0.042 C 
HETATM   41  C24 UNL     1      24.221  27.366  16.730  1.00  0.00     0.042 C 
ENDBRANCH  37  38
ENDBRANCH  33  37
ENDBRANCH   6  30
TORSDOF 12
ENDMDL
MODEL 5
REMARK VINA RESULT: -8.636434349      1.452      1.654
REMARK  12 active torsions:
REMARK  status: ('A' for Active; 'I' for Inactive)
REMARK    1  A    between atoms: C2_2  and  C3_3 
REMARK    2  A    between atoms: C4_4  and  C5_5 
REMARK       I    between atoms: C5_5  and  N1_7 
REMARK    3  A    between atoms: N1_7  and  C6_9 
REMARK    4  A    between atoms: C10_13  and  C11_14 
REMARK       I    between atoms: C11_14  and  N2_16 
REMARK    5  A    between atoms: N2_16  and  C12_18 
REMARK    6  A    between atoms: C12_18  and  C13_19 
REMARK       I    between atoms: C13_19  and  N3_21 
REMARK    7  A    between atoms: N3_21  and  C14_23 
REMARK    8  A    between atoms: C14_23  and  C15_24 
REMARK    9  A    between atoms: C15_24  and  O4_25 
REMARK   10  A    between atoms: N5_29  and  C17_30 
REMARK   11  A    between atoms: N6_33  and  C20_34 
REMARK   12  A    between atoms: C20_34  and  C21_35 
ROOT
HETATM    1  C3  UNL     1      17.070  22.345  17.963  1.00  0.00     0.052 A 
HETATM    2  C4  UNL     1      15.926  21.598  17.719  1.00  0.00     0.090 A 
HETATM    3  C10 UNL     1      15.609  21.785  16.410  1.00  0.00     0.134 A 
HETATM    4  N4  UNL     1      16.564  22.639  15.912  1.00  0.00    -0.287 N 
ATOM      5  H4  UNL     1      16.595  22.974  14.949  1.00  0.00     0.188 HD
HETATM    6  N5  UNL     1      17.417  22.962  16.830  1.00  0.00    -0.259 N 
ENDROOT
BRANCH   3   7
HETATM    7  C11 UNL     1      14.576  21.171  15.601  1.00  0.00     0.271 C 
HETATM    8  O2  UNL     1      14.788  20.677  14.507  1.00  0.00    -0.266 OA
HETATM    9  N2  UNL     1      13.224  21.151  16.135  1.00  0.00    -0.347 N 
ATOM     10  H2  UNL     1      12.991  21.549  17.045  1.00  0.00     0.163 HD
BRANCH   9  11
HETATM   11  C12 UNL     1      12.246  20.537  15.300  1.00  0.00     0.225 C 
BRANCH  11  12
HETATM   12  C13 UNL     1      11.471  19.492  15.994  1.00  0.00     0.235 C 
HETATM   13  O3  UNL     1      10.596  19.880  16.869  1.00  0.00    -0.272 OA
HETATM   14  N3  UNL     1      11.656  18.129  15.736  1.00  0.00    -0.358 N 
ATOM     15  H3  UNL     1      12.334  17.819  15.039  1.00  0.00     0.162 HD
BRANCH  14  16
HETATM   16  C14 UNL     1      10.851  17.149  16.491  1.00  0.00     0.148 C 
BRANCH  16  17
HETATM   17  C15 UNL     1      10.554  15.994  15.581  1.00  0.00     0.186 C 
BRANCH  17  18
HETATM   18  O4  UNL     1      10.605  14.760  16.211  1.00  0.00    -0.394 OA
HETATM   19  C16 UNL     1       9.949  14.805  17.424  1.00  0.00     0.201 C 
ENDBRANCH  17  18
ENDBRANCH  16  17
ENDBRANCH  14  16
ENDBRANCH  11  12
ENDBRANCH   9  11
ENDBRANCH   3   7
BRANCH   2  20
HETATM   20  C5  UNL     1      15.246  20.779  18.706  1.00  0.00     0.256 C 
HETATM   21  O1  UNL     1      14.753  21.369  19.740  1.00  0.00    -0.267 OA
HETATM   22  N1  UNL     1      15.047  19.391  18.664  1.00  0.00    -0.349 N 
ATOM     23  H1  UNL     1      15.394  18.851  17.870  1.00  0.00     0.163 HD
BRANCH  22  24
HETATM   24  C6  UNL     1      14.353  18.723  19.740  1.00  0.00     0.022 C 
HETATM   25  C7  UNL     1      14.685  17.252  19.683  1.00  0.00     0.037 C 
HETATM   26  C8  UNL     1      14.799  19.229  21.098  1.00  0.00     0.037 C 
HETATM   27  C9  UNL     1      12.860  18.921  19.573  1.00  0.00     0.037 C 
ENDBRANCH  22  24
ENDBRANCH   2  20
BRANCH   1  28
HETATM   28  C2  UNL     1      17.830  22.460  19.230  1.00  0.00     0.056 C 
HETATM   29  C1  UNL     1      18.846  21.386  19.424  1.00  0.00     0.011 C 
ENDBRANCH   1  28
BRANCH   6  30
HETATM   30  C17 UNL     1      18.553  23.832  16.686  1.00  0.00     0.063 A 
HETATM   31  C18 UNL     1      18.732  24.951  17.466  1.00  0.00     0.049 A 
HETATM   32  C19 UNL     1      19.841  25.721  17.267  1.00  0.00     0.097 A 
HETATM   33  N6  UNL     1      20.766  25.411  16.326  1.00  0.00    -0.321 N 
HETATM   34  C25 UNL     1      20.616  24.327  15.554  1.00  0.00     0.249 A 
HETATM   35  O5  UNL     1      21.473  24.027  14.672  1.00  0.00    -0.268 OA
HETATM   36  C26 UNL     1      19.502  23.536  15.738  1.00  0.00     0.106 A 
BRANCH  33  37
HETATM   37  C20 UNL     1      21.931  26.256  16.153  1.00  0.00     0.159 C 
BRANCH  37  38
HETATM   38  C21 UNL     1      21.713  27.272  15.091  1.00  0.00    -0.005 C 
HETATM   39  C22 UNL     1      22.603  28.212  14.876  1.00  0.00    -0.090 C 
HETATM   40  C23 UNL     1      23.857  28.314  15.669  1.00  0.00     0.042 C 
HETATM   41  C24 UNL     1      22.360  29.215  13.805  1.00  0.00     0.042 C 
ENDBRANCH  37  38
ENDBRANCH  33  37
ENDBRANCH   6  30
TORSDOF 12
ENDMDL
