MODEL 1
REMARK VINA RESULT: -8.909156072      0.000      0.000
REMARK  14 active torsions:
REMARK  status: ('A' for Active; 'I' for Inactive)
REMARK    1  A    between atoms: C2_2  and  C3_3 
REMARK    2  A    between atoms: C3_3  and  N1_4 
REMARK    3  A    between atoms: N1_4  and  C4_6 
REMARK    4  A    between atoms: C7_11  and  N3_12 
REMARK    5  A    between atoms: N3_12  and  C8_14 
REMARK    6  A    between atoms: C11_17  and  N4_18 
REMARK       I    between atoms: N4_18  and  C12_20 
REMARK    7  A    between atoms: C12_20  and  C13_22 
REMARK    8  A    between atoms: C13_22  and  C14_23 
REMARK    9  A    between atoms: C14_23  and  C15_24 
REMARK   10  A    between atoms: C15_24  and  C16_25 
REMARK   11  A    between atoms: C16_25  and  C17_26 
REMARK   12  A    between atoms: C17_26  and  C18_27 
REMARK   13  A    between atoms: C18_27  and  O3_29 
REMARK   14  A    between atoms: O3_29  and  C19_30 
ROOT
HETATM    1  N3  UNL     1      15.148  20.475  15.565  1.00  0.00    -0.370 N 
ATOM      2  H3  UNL     1      15.829  20.429  16.322  1.00  0.00     0.161 HD
ENDROOT
BRANCH   1   3
HETATM    3  C7  UNL     1      13.994  19.951  15.777  1.00  0.00     0.134 A 
HETATM    4  C6  UNL     1      13.351  20.330  16.938  1.00  0.00     0.090 A 
HETATM    5  C5  UNL     1      12.117  19.783  17.179  1.00  0.00     0.073 A 
HETATM    6  C23 UNL     1      13.988  21.277  17.856  1.00  0.00     0.237 A 
HETATM    7  N2  UNL     1      11.516  18.897  16.327  1.00  0.00    -0.190 N 
HETATM    8  C26 UNL     1      11.418  20.165  18.400  1.00  0.00    -0.030 A 
HETATM    9  C4  UNL     1      12.153  18.545  15.212  1.00  0.00     0.684 A 
ATOM     10  H2  UNL     1      10.596  18.513  16.543  1.00  0.00     0.184 HD
HETATM   11  N5  UNL     1      13.389  19.096  14.978  1.00  0.00    -0.176 N 
ATOM     12  H5  UNL     1      13.874  18.824  14.122  1.00  0.00     0.186 HD
HETATM   13  C25 UNL     1      11.963  21.018  19.250  1.00  0.00     0.068 A 
HETATM   14  C27 UNL     1      10.061  19.584  18.697  1.00  0.00     0.050 C 
HETATM   15  C24 UNL     1      13.256  21.631  19.061  1.00  0.00     0.223 A 
HETATM   16  O5  UNL     1      13.779  22.439  19.860  1.00  0.00    -0.284 OA
HETATM   17  O4  UNL     1      15.119  21.730  17.560  1.00  0.00    -0.283 OA
BRANCH   9  18
HETATM   18  N1  UNL     1      11.690  17.749  14.385  1.00  0.00    -0.202 N 
ATOM     19  H1  UNL     1      12.465  17.354  13.853  1.00  0.00     0.183 HD
BRANCH  18  20
HETATM   20  C3  UNL     1      10.522  17.197  13.915  1.00  0.00     0.105 C 
BRANCH  20  21
HETATM   21  C2  UNL     1       9.492  18.077  13.315  1.00  0.00     0.007 C 
HETATM   22  C1  UNL     1       8.558  18.685  14.027  1.00  0.00     0.012 C 
ENDBRANCH  20  21
ENDBRANCH  18  20
ENDBRANCH   9  18
ENDBRANCH   1   3
BRANCH   1  23
HETATM   23  C8  UNL     1      15.558  21.124  14.337  1.00  0.00     0.083 C 
HETATM   24  C9  UNL     1      14.726  22.340  14.036  1.00  0.00     0.027 C 
HETATM   25  C10 UNL     1      15.302  23.249  13.006  1.00  0.00     0.027 C 
HETATM   26  C11 UNL     1      16.719  23.695  13.288  1.00  0.00     0.084 C 
HETATM   27  C21 UNL     1      17.143  22.967  14.568  1.00  0.00     0.027 C 
HETATM   28  C22 UNL     1      17.005  21.500  14.310  1.00  0.00     0.027 C 
BRANCH  26  29
HETATM   29  N4  UNL     1      16.842  25.110  13.413  1.00  0.00    -0.356 N 
HETATM   30  C12 UNL     1      18.019  25.770  13.011  1.00  0.00     0.217 C 
HETATM   31  O1  UNL     1      18.988  25.104  12.530  1.00  0.00    -0.274 OA
ATOM     32  H4  UNL     1      16.068  25.651  13.799  1.00  0.00     0.162 HD
BRANCH  30  33
HETATM   33  C13 UNL     1      18.126  27.240  13.150  1.00  0.00     0.103 C 
BRANCH  33  34
HETATM   34  C14 UNL     1      19.143  27.543  14.223  1.00  0.00     0.009 C 
BRANCH  34  35
HETATM   35  C15 UNL     1      18.556  27.681  15.587  1.00  0.00     0.001 C 
BRANCH  35  36
HETATM   36  C16 UNL     1      18.870  26.462  16.407  1.00  0.00     0.010 C 
BRANCH  36  37
HETATM   37  C17 UNL     1      18.242  26.661  17.774  1.00  0.00     0.111 C 
BRANCH  37  38
HETATM   38  C18 UNL     1      18.164  25.318  18.428  1.00  0.00     0.258 C 
HETATM   39  O2  UNL     1      18.201  24.254  17.782  1.00  0.00    -0.265 OA
BRANCH  38  40
HETATM   40  O3  UNL     1      18.047  25.280  19.800  1.00  0.00    -0.322 OA
BRANCH  40  41
HETATM   41  C19 UNL     1      16.981  25.899  20.477  1.00  0.00     0.174 C 
HETATM   42  C20 UNL     1      15.665  25.280  20.056  1.00  0.00     0.034 C 
ENDBRANCH  40  41
ENDBRANCH  38  40
ENDBRANCH  37  38
ENDBRANCH  36  37
ENDBRANCH  35  36
ENDBRANCH  34  35
ENDBRANCH  33  34
ENDBRANCH  30  33
ENDBRANCH  26  29
ENDBRANCH   1  23
TORSDOF 14
ENDMDL
MODEL 2
REMARK VINA RESULT: -8.788663352      3.617      9.491
REMARK  14 active torsions:
REMARK  status: ('A' for Active; 'I' for Inactive)
REMARK    1  A    between atoms: C2_2  and  C3_3 
REMARK    2  A    between atoms: C3_3  and  N1_4 
REMARK    3  A    between atoms: N1_4  and  C4_6 
REMARK    4  A    between atoms: C7_11  and  N3_12 
REMARK    5  A    between atoms: N3_12  and  C8_14 
REMARK    6  A    between atoms: C11_17  and  N4_18 
REMARK       I    between atoms: N4_18  and  C12_20 
REMARK    7  A    between atoms: C12_20  and  C13_22 
REMARK    8  A    between atoms: C13_22  and  C14_23 
REMARK    9  A    between atoms: C14_23  and  C15_24 
REMARK   10  A    between atoms: C15_24  and  C16_25 
REMARK   11  A    between atoms: C16_25  and  C17_26 
REMARK   12  A    between atoms: C17_26  and  C18_27 
REMARK   13  A    between atoms: C18_27  and  O3_29 
REMARK   14  A    between atoms: O3_29  and  C19_30 
ROOT
HETATM    1  N3  UNL     1      15.255  21.546  16.016  1.00  0.00    -0.370 N 
ATOM      2  H3  UNL     1      16.187  21.196  15.792  1.00  0.00     0.161 HD
ENDROOT
BRANCH   1   3
HETATM    3  C7  UNL     1      15.097  22.115  17.157  1.00  0.00     0.134 A 
HETATM    4  C6  UNL     1      15.941  23.171  17.440  1.00  0.00     0.090 A 
HETATM    5  C5  UNL     1      15.784  23.792  18.652  1.00  0.00     0.073 A 
HETATM    6  C23 UNL     1      16.953  23.585  16.465  1.00  0.00     0.237 A 
HETATM    7  N2  UNL     1      14.842  23.410  19.568  1.00  0.00    -0.190 N 
HETATM    8  C26 UNL     1      16.664  24.908  18.976  1.00  0.00    -0.030 A 
HETATM    9  C4  UNL     1      14.038  22.390  19.275  1.00  0.00     0.684 A 
ATOM     10  H2  UNL     1      14.757  23.899  20.460  1.00  0.00     0.184 HD
HETATM   11  N5  UNL     1      14.201  21.772  18.060  1.00  0.00    -0.176 N 
ATOM     12  H5  UNL     1      13.583  20.991  17.839  1.00  0.00     0.186 HD
HETATM   13  C25 UNL     1      17.588  25.308  18.120  1.00  0.00     0.068 A 
HETATM   14  C27 UNL     1      16.520  25.614  20.299  1.00  0.00     0.050 C 
HETATM   15  C24 UNL     1      17.809  24.703  16.829  1.00  0.00     0.223 A 
HETATM   16  O5  UNL     1      18.681  25.075  16.013  1.00  0.00    -0.284 OA
HETATM   17  O4  UNL     1      17.030  22.962  15.380  1.00  0.00    -0.283 OA
BRANCH   9  18
HETATM   18  N1  UNL     1      13.159  21.973  20.042  1.00  0.00    -0.202 N 
ATOM     19  H1  UNL     1      13.594  21.756  20.938  1.00  0.00     0.183 HD
BRANCH  18  20
HETATM   20  C3  UNL     1      11.817  21.693  20.138  1.00  0.00     0.105 C 
BRANCH  20  21
HETATM   21  C2  UNL     1      11.287  20.453  19.522  1.00  0.00     0.007 C 
HETATM   22  C1  UNL     1      10.841  19.429  20.230  1.00  0.00     0.012 C 
ENDBRANCH  20  21
ENDBRANCH  18  20
ENDBRANCH   9  18
ENDBRANCH   1   3
BRANCH   1  23
HETATM   23  C8  UNL     1      14.218  21.362  15.023  1.00  0.00     0.083 C 
HETATM   24  C9  UNL     1      14.486  20.175  14.140  1.00  0.00     0.027 C 
HETATM   25  C10 UNL     1      13.315  19.713  13.343  1.00  0.00     0.027 C 
HETATM   26  C11 UNL     1      12.075  19.431  14.162  1.00  0.00     0.084 C 
HETATM   27  C21 UNL     1      12.430  19.804  15.606  1.00  0.00     0.027 C 
HETATM   28  C22 UNL     1      12.845  21.241  15.603  1.00  0.00     0.027 C 
BRANCH  26  29
HETATM   29  N4  UNL     1      11.633  18.079  14.054  1.00  0.00    -0.356 N 
HETATM   30  C12 UNL     1      10.264  17.776  13.939  1.00  0.00     0.217 C 
HETATM   31  O1  UNL     1       9.403  18.712  13.932  1.00  0.00    -0.274 OA
ATOM     32  H4  UNL     1      12.318  17.323  14.060  1.00  0.00     0.162 HD
BRANCH  30  33
HETATM   33  C13 UNL     1       9.826  16.367  13.828  1.00  0.00     0.103 C 
BRANCH  33  34
HETATM   34  C14 UNL     1       8.317  16.341  13.769  1.00  0.00     0.009 C 
BRANCH  34  35
HETATM   35  C15 UNL     1       7.749  14.986  13.514  1.00  0.00     0.001 C 
BRANCH  35  36
HETATM   36  C16 UNL     1       6.868  14.575  14.660  1.00  0.00     0.010 C 
BRANCH  36  37
HETATM   37  C17 UNL     1       6.205  15.830  15.196  1.00  0.00     0.111 C 
BRANCH  37  38
HETATM   38  C18 UNL     1       6.339  15.803  16.686  1.00  0.00     0.258 C 
HETATM   39  O2  UNL     1       5.396  16.084  17.449  1.00  0.00    -0.265 OA
BRANCH  38  40
HETATM   40  O3  UNL     1       7.562  15.451  17.212  1.00  0.00    -0.322 OA
BRANCH  40  41
HETATM   41  C19 UNL     1       8.265  16.290  18.096  1.00  0.00     0.174 C 
HETATM   42  C20 UNL     1       8.828  17.481  17.349  1.00  0.00     0.034 C 
ENDBRANCH  40  41
ENDBRANCH  38  40
ENDBRANCH  37  38
ENDBRANCH  36  37
ENDBRANCH  35  36
ENDBRANCH  34  35
ENDBRANCH  33  34
ENDBRANCH  30  33
ENDBRANCH  26  29
ENDBRANCH   1  23
TORSDOF 14
ENDMDL
MODEL 3
REMARK VINA RESULT: -8.633244197      3.933     10.647
REMARK  14 active torsions:
REMARK  status: ('A' for Active; 'I' for Inactive)
REMARK    1  A    between atoms: C2_2  and  C3_3 
REMARK    2  A    between atoms: C3_3  and  N1_4 
REMARK    3  A    between atoms: N1_4  and  C4_6 
REMARK    4  A    between atoms: C7_11  and  N3_12 
REMARK    5  A    between atoms: N3_12  and  C8_14 
REMARK    6  A    between atoms: C11_17  and  N4_18 
REMARK       I    between atoms: N4_18  and  C12_20 
REMARK    7  A    between atoms: C12_20  and  C13_22 
REMARK    8  A    between atoms: C13_22  and  C14_23 
REMARK    9  A    between atoms: C14_23  and  C15_24 
REMARK   10  A    between atoms: C15_24  and  C16_25 
REMARK   11  A    between atoms: C16_25  and  C17_26 
REMARK   12  A    between atoms: C17_26  and  C18_27 
REMARK   13  A    between atoms: C18_27  and  O3_29 
REMARK   14  A    between atoms: O3_29  and  C19_30 
ROOT
HETATM    1  N3  UNL     1      12.601  20.127  18.612  1.00  0.00    -0.370 N 
ATOM      2  H3  UNL     1      13.023  19.198  18.624  1.00  0.00     0.161 HD
ENDROOT
BRANCH   1   3
HETATM    3  C7  UNL     1      13.135  21.007  17.843  1.00  0.00     0.134 A 
HETATM    4  C6  UNL     1      13.218  20.684  16.504  1.00  0.00     0.090 A 
HETATM    5  C5  UNL     1      13.782  21.613  15.668  1.00  0.00     0.073 A 
HETATM    6  C23 UNL     1      12.717  19.393  16.026  1.00  0.00     0.237 A 
HETATM    7  N2  UNL     1      14.252  22.820  16.106  1.00  0.00    -0.190 N 
HETATM    8  C26 UNL     1      13.883  21.295  14.249  1.00  0.00    -0.030 A 
HETATM    9  C4  UNL     1      14.163  23.113  17.403  1.00  0.00     0.684 A 
ATOM     10  H2  UNL     1      14.665  23.485  15.452  1.00  0.00     0.184 HD
HETATM   11  N5  UNL     1      13.597  22.177  18.234  1.00  0.00    -0.176 N 
ATOM     12  H5  UNL     1      13.530  22.405  19.226  1.00  0.00     0.186 HD
HETATM   13  C25 UNL     1      13.441  20.140  13.784  1.00  0.00     0.068 A 
HETATM   14  C27 UNL     1      14.497  22.293  13.302  1.00  0.00     0.050 C 
HETATM   15  C24 UNL     1      12.837  19.117  14.604  1.00  0.00     0.223 A 
HETATM   16  O5  UNL     1      12.416  18.021  14.172  1.00  0.00    -0.284 OA
HETATM   17  O4  UNL     1      12.216  18.600  16.858  1.00  0.00    -0.283 OA
BRANCH   9  18
HETATM   18  N1  UNL     1      14.564  24.178  17.891  1.00  0.00    -0.202 N 
ATOM     19  H1  UNL     1      13.790  24.842  17.887  1.00  0.00     0.183 HD
BRANCH  18  20
HETATM   20  C3  UNL     1      15.661  24.801  18.435  1.00  0.00     0.105 C 
BRANCH  20  21
HETATM   21  C2  UNL     1      15.654  25.162  19.873  1.00  0.00     0.007 C 
HETATM   22  C1  UNL     1      16.643  25.815  20.458  1.00  0.00     0.012 C 
ENDBRANCH  20  21
ENDBRANCH  18  20
ENDBRANCH   9  18
ENDBRANCH   1   3
BRANCH   1  23
HETATM   23  C8  UNL     1      11.450  20.347  19.462  1.00  0.00     0.083 C 
HETATM   24  C9  UNL     1      10.322  21.013  18.723  1.00  0.00     0.027 C 
HETATM   25  C10 UNL     1       9.003  20.952  19.413  1.00  0.00     0.027 C 
HETATM   26  C11 UNL     1       8.565  19.556  19.800  1.00  0.00     0.084 C 
HETATM   27  C21 UNL     1       9.718  18.627  19.401  1.00  0.00     0.027 C 
HETATM   28  C22 UNL     1      10.940  19.105  20.119  1.00  0.00     0.027 C 
BRANCH  26  29
HETATM   29  N4  UNL     1       7.334  19.171  19.192  1.00  0.00    -0.356 N 
HETATM   30  C12 UNL     1       6.521  18.181  19.775  1.00  0.00     0.217 C 
HETATM   31  O1  UNL     1       6.881  17.618  20.856  1.00  0.00    -0.274 OA
ATOM     32  H4  UNL     1       7.040  19.618  18.324  1.00  0.00     0.162 HD
BRANCH  30  33
HETATM   33  C13 UNL     1       5.247  17.796  19.128  1.00  0.00     0.103 C 
BRANCH  33  34
HETATM   34  C14 UNL     1       5.493  16.564  18.290  1.00  0.00     0.009 C 
BRANCH  34  35
HETATM   35  C15 UNL     1       5.308  16.785  16.827  1.00  0.00     0.001 C 
BRANCH  35  36
HETATM   36  C16 UNL     1       6.212  15.871  16.050  1.00  0.00     0.010 C 
BRANCH  36  37
HETATM   37  C17 UNL     1       7.624  16.088  16.561  1.00  0.00     0.111 C 
BRANCH  37  38
HETATM   38  C18 UNL     1       8.555  15.832  15.418  1.00  0.00     0.258 C 
HETATM   39  O2  UNL     1       8.685  14.709  14.897  1.00  0.00    -0.265 OA
BRANCH  38  40
HETATM   40  O3  UNL     1       9.289  16.896  14.940  1.00  0.00    -0.322 OA
BRANCH  40  41
HETATM   41  C19 UNL     1       8.953  17.558  13.745  1.00  0.00     0.174 C 
HETATM   42  C20 UNL     1       8.099  18.771  14.042  1.00  0.00     0.034 C 
ENDBRANCH  40  41
ENDBRANCH  38  40
ENDBRANCH  37  38
ENDBRANCH  36  37
ENDBRANCH  35  36
ENDBRANCH  34  35
ENDBRANCH  33  34
ENDBRANCH  30  33
ENDBRANCH  26  29
ENDBRANCH   1  23
TORSDOF 14
ENDMDL
MODEL 4
REMARK VINA RESULT: -8.630236767      2.671      4.470
REMARK  14 active torsions:
REMARK  status: ('A' for Active; 'I' for Inactive)
REMARK    1  A    between atoms: C2_2  and  C3_3 
REMARK    2  A    between atoms: C3_3  and  N1_4 
REMARK    3  A    between atoms: N1_4  and  C4_6 
REMARK    4  A    between atoms: C7_11  and  N3_12 
REMARK    5  A    between atoms: N3_12  and  C8_14 
REMARK    6  A    between atoms: C11_17  and  N4_18 
REMARK       I    between atoms: N4_18  and  C12_20 
REMARK    7  A    between atoms: C12_20  and  C13_22 
REMARK    8  A    between atoms: C13_22  and  C14_23 
REMARK    9  A    between atoms: C14_23  and  C15_24 
REMARK   10  A    between atoms: C15_24  and  C16_25 
REMARK   11  A    between atoms: C16_25  and  C17_26 
REMARK   12  A    between atoms: C17_26  and  C18_27 
REMARK   13  A    between atoms: C18_27  and  O3_29 
REMARK   14  A    between atoms: O3_29  and  C19_30 
ROOT
HETATM    1  N3  UNL     1      12.687  18.893  14.573  1.00  0.00    -0.370 N 
ATOM      2  H3  UNL     1      12.644  18.062  13.983  1.00  0.00     0.161 HD
ENDROOT
BRANCH   1   3
HETATM    3  C7  UNL     1      12.058  18.856  15.692  1.00  0.00     0.134 A 
HETATM    4  C6  UNL     1      10.899  18.107  15.721  1.00  0.00     0.090 A 
HETATM    5  C5  UNL     1      10.216  18.054  16.909  1.00  0.00     0.073 A 
HETATM    6  C23 UNL     1      10.441  17.412  14.516  1.00  0.00     0.237 A 
HETATM    7  N2  UNL     1      10.636  18.701  18.039  1.00  0.00    -0.190 N 
HETATM    8  C26 UNL     1       8.988  17.272  16.966  1.00  0.00    -0.030 A 
HETATM    9  C4  UNL     1      11.757  19.418  17.990  1.00  0.00     0.684 A 
ATOM     10  H2  UNL     1      10.099  18.636  18.905  1.00  0.00     0.184 HD
HETATM   11  N5  UNL     1      12.435  19.467  16.797  1.00  0.00    -0.176 N 
ATOM     12  H5  UNL     1      13.294  20.017  16.763  1.00  0.00     0.186 HD
HETATM   13  C25 UNL     1       8.546  16.631  15.898  1.00  0.00     0.068 A 
HETATM   14  C27 UNL     1       8.212  17.191  18.255  1.00  0.00     0.050 C 
HETATM   15  C24 UNL     1       9.212  16.643  14.617  1.00  0.00     0.223 A 
HETATM   16  O5  UNL     1       8.801  16.040  13.601  1.00  0.00    -0.284 OA
HETATM   17  O4  UNL     1      11.125  17.514  13.470  1.00  0.00    -0.283 OA
BRANCH   9  18
HETATM   18  N1  UNL     1      12.213  20.039  18.960  1.00  0.00    -0.202 N 
ATOM     19  H1  UNL     1      13.079  19.586  19.250  1.00  0.00     0.183 HD
BRANCH  18  20
HETATM   20  C3  UNL     1      11.989  21.110  19.791  1.00  0.00     0.105 C 
BRANCH  20  21
HETATM   21  C2  UNL     1      10.850  22.018  19.517  1.00  0.00     0.007 C 
HETATM   22  C1  UNL     1       9.728  22.001  20.216  1.00  0.00     0.012 C 
ENDBRANCH  20  21
ENDBRANCH  18  20
ENDBRANCH   9  18
ENDBRANCH   1   3
BRANCH   1  23
HETATM   23  C8  UNL     1      13.452  20.020  14.081  1.00  0.00     0.083 C 
HETATM   24  C9  UNL     1      13.271  21.242  14.938  1.00  0.00     0.027 C 
HETATM   25  C10 UNL     1      14.279  22.316  14.714  1.00  0.00     0.027 C 
HETATM   26  C11 UNL     1      15.716  21.857  14.829  1.00  0.00     0.084 C 
HETATM   27  C21 UNL     1      15.657  20.345  15.077  1.00  0.00     0.027 C 
HETATM   28  C22 UNL     1      14.912  19.737  13.932  1.00  0.00     0.027 C 
BRANCH  26  29
HETATM   29  N4  UNL     1      16.437  22.538  15.853  1.00  0.00    -0.356 N 
HETATM   30  C12 UNL     1      17.662  23.172  15.573  1.00  0.00     0.217 C 
HETATM   31  O1  UNL     1      18.140  23.141  14.396  1.00  0.00    -0.274 OA
ATOM     32  H4  UNL     1      16.060  22.567  16.801  1.00  0.00     0.162 HD
BRANCH  30  33
HETATM   33  C13 UNL     1      18.395  23.874  16.651  1.00  0.00     0.103 C 
BRANCH  33  34
HETATM   34  C14 UNL     1      18.275  25.360  16.417  1.00  0.00     0.009 C 
BRANCH  34  35
HETATM   35  C15 UNL     1      18.417  26.178  17.656  1.00  0.00     0.001 C 
BRANCH  35  36
HETATM   36  C16 UNL     1      17.085  26.316  18.336  1.00  0.00     0.010 C 
BRANCH  36  37
HETATM   37  C17 UNL     1      17.249  25.823  19.761  1.00  0.00     0.111 C 
BRANCH  37  38
HETATM   38  C18 UNL     1      16.262  24.718  19.967  1.00  0.00     0.258 C 
HETATM   39  O2  UNL     1      15.709  24.507  21.062  1.00  0.00    -0.265 OA
BRANCH  38  40
HETATM   40  O3  UNL     1      15.967  23.914  18.887  1.00  0.00    -0.322 OA
BRANCH  40  41
HETATM   41  C19 UNL     1      14.729  23.258  18.760  1.00  0.00     0.174 C 
HETATM   42  C20 UNL     1      13.825  24.025  17.820  1.00  0.00     0.034 C 
ENDBRANCH  40  41
ENDBRANCH  38  40
ENDBRANCH  37  38
ENDBRANCH  36  37
ENDBRANCH  35  36
ENDBRANCH  34  35
ENDBRANCH  33  34
ENDBRANCH  30  33
ENDBRANCH  26  29
ENDBRANCH   1  23
TORSDOF 14
ENDMDL
MODEL 5
REMARK VINA RESULT: -8.610375578      3.711     10.627
REMARK  14 active torsions:
REMARK  status: ('A' for Active; 'I' for Inactive)
REMARK    1  A    between atoms: C2_2  and  C3_3 
REMARK    2  A    between atoms: C3_3  and  N1_4 
REMARK    3  A    between atoms: N1_4  and  C4_6 
REMARK    4  A    between atoms: C7_11  and  N3_12 
REMARK    5  A    between atoms: N3_12  and  C8_14 
REMARK    6  A    between atoms: C11_17  and  N4_18 
REMARK       I    between atoms: N4_18  and  C12_20 
REMARK    7  A    between atoms: C12_20  and  C13_22 
REMARK    8  A    between atoms: C13_22  and  C14_23 
REMARK    9  A    between atoms: C14_23  and  C15_24 
REMARK   10  A    between atoms: C15_24  and  C16_25 
REMARK   11  A    between atoms: C16_25  and  C17_26 
REMARK   12  A    between atoms: C17_26  and  C18_27 
REMARK   13  A    between atoms: C18_27  and  O3_29 
REMARK   14  A    between atoms: O3_29  and  C19_30 
ROOT
HETATM    1  N3  UNL     1      11.929  21.517  17.308  1.00  0.00    -0.370 N 
ATOM      2  H3  UNL     1      11.347  21.782  16.514  1.00  0.00     0.161 HD
ENDROOT
BRANCH   1   3
HETATM    3  C7  UNL     1      13.061  22.110  17.435  1.00  0.00     0.134 A 
HETATM    4  C6  UNL     1      13.807  22.263  16.284  1.00  0.00     0.090 A 
HETATM    5  C5  UNL     1      15.018  22.896  16.400  1.00  0.00     0.073 A 
HETATM    6  C23 UNL     1      13.301  21.756  15.005  1.00  0.00     0.237 A 
HETATM    7  N2  UNL     1      15.498  23.371  17.590  1.00  0.00    -0.190 N 
HETATM    8  C26 UNL     1      15.825  23.069  15.199  1.00  0.00    -0.030 A 
HETATM    9  C4  UNL     1      14.763  23.213  18.689  1.00  0.00     0.684 A 
ATOM     10  H2  UNL     1      16.405  23.838  17.634  1.00  0.00     0.184 HD
HETATM   11  N5  UNL     1      13.552  22.577  18.565  1.00  0.00    -0.176 N 
ATOM     12  H5  UNL     1      12.991  22.459  19.409  1.00  0.00     0.186 HD
HETATM   13  C25 UNL     1      15.399  22.625  14.030  1.00  0.00     0.068 A 
HETATM   14  C27 UNL     1      17.161  23.760  15.290  1.00  0.00     0.050 C 
HETATM   15  C24 UNL     1      14.138  21.950  13.834  1.00  0.00     0.223 A 
HETATM   16  O5  UNL     1      13.727  21.527  12.731  1.00  0.00    -0.284 OA
HETATM   17  O4  UNL     1      12.183  21.188  14.988  1.00  0.00    -0.283 OA
BRANCH   9  18
HETATM   18  N1  UNL     1      15.117  23.607  19.808  1.00  0.00    -0.202 N 
ATOM     19  H1  UNL     1      15.263  22.791  20.402  1.00  0.00     0.183 HD
BRANCH  18  20
HETATM   20  C3  UNL     1      15.387  24.731  20.550  1.00  0.00     0.105 C 
BRANCH  20  21
HETATM   21  C2  UNL     1      16.727  25.357  20.462  1.00  0.00     0.007 C 
HETATM   22  C1  UNL     1      17.056  26.229  19.524  1.00  0.00     0.012 C 
ENDBRANCH  20  21
ENDBRANCH  18  20
ENDBRANCH   9  18
ENDBRANCH   1   3
BRANCH   1  23
HETATM   23  C8  UNL     1      11.412  20.501  18.202  1.00  0.00     0.083 C 
HETATM   24  C9  UNL     1      10.177  20.962  18.926  1.00  0.00     0.027 C 
HETATM   25  C10 UNL     1       9.395  19.875  19.579  1.00  0.00     0.027 C 
HETATM   26  C11 UNL     1       9.015  18.738  18.656  1.00  0.00     0.084 C 
HETATM   27  C21 UNL     1       9.657  19.062  17.302  1.00  0.00     0.027 C 
HETATM   28  C22 UNL     1      11.129  19.196  17.531  1.00  0.00     0.027 C 
BRANCH  26  29
HETATM   29  N4  UNL     1       7.604  18.558  18.548  1.00  0.00    -0.356 N 
HETATM   30  C12 UNL     1       7.042  17.268  18.532  1.00  0.00     0.217 C 
HETATM   31  O1  UNL     1       7.793  16.246  18.614  1.00  0.00    -0.274 OA
ATOM     32  H4  UNL     1       6.996  19.374  18.481  1.00  0.00     0.162 HD
BRANCH  30  33
HETATM   33  C13 UNL     1       5.576  17.102  18.419  1.00  0.00     0.103 C 
BRANCH  33  34
HETATM   34  C14 UNL     1       5.290  16.159  17.276  1.00  0.00     0.009 C 
BRANCH  34  35
HETATM   35  C15 UNL     1       5.521  16.757  15.930  1.00  0.00     0.001 C 
BRANCH  35  36
HETATM   36  C16 UNL     1       6.504  15.923  15.158  1.00  0.00     0.010 C 
BRANCH  36  37
HETATM   37  C17 UNL     1       7.673  16.818  14.794  1.00  0.00     0.111 C 
BRANCH  37  38
HETATM   38  C18 UNL     1       8.848  15.931  14.530  1.00  0.00     0.258 C 
HETATM   39  O2  UNL     1       8.838  14.712  14.782  1.00  0.00    -0.265 OA
BRANCH  38  40
HETATM   40  O3  UNL     1       9.976  16.507  13.988  1.00  0.00    -0.322 OA
BRANCH  40  41
HETATM   41  C19 UNL     1      10.008  17.856  13.589  1.00  0.00     0.174 C 
HETATM   42  C20 UNL     1      11.403  18.234  13.139  1.00  0.00     0.034 C 
ENDBRANCH  40  41
ENDBRANCH  38  40
ENDBRANCH  37  38
ENDBRANCH  36  37
ENDBRANCH  35  36
ENDBRANCH  34  35
ENDBRANCH  33  34
ENDBRANCH  30  33
ENDBRANCH  26  29
ENDBRANCH   1  23
TORSDOF 14
ENDMDL
