MODEL 1
REMARK VINA RESULT: -7.913444078      0.000      0.000
REMARK  17 active torsions:
REMARK  status: ('A' for Active; 'I' for Inactive)
REMARK    1  A    between atoms: N1_2  and  C2_3 
REMARK       I    between atoms: N1_2  and  C7_14 
REMARK    2  A    between atoms: C2_3  and  C3_4 
REMARK    3  A    between atoms: C3_4  and  N2_5 
REMARK    4  A    between atoms: N2_5  and  C4_7 
REMARK    5  A    between atoms: C4_7  and  C5_8 
REMARK    6  A    between atoms: C5_8  and  C6_9 
REMARK    7  A    between atoms: C6_9  and  N3_10 
REMARK    8  A    between atoms: N5_16  and  C8_18 
REMARK    9  A    between atoms: C11_21  and  N6_22 
REMARK   10  A    between atoms: N6_22  and  C12_23 
REMARK   11  A    between atoms: N6_22  and  S1_43 
REMARK   12  A    between atoms: C12_23  and  C13_24 
REMARK   13  A    between atoms: C15_28  and  N8_29 
REMARK   14  A    between atoms: C16_34  and  N10_35 
REMARK   15  A    between atoms: N10_35  and  C17_37 
REMARK   16  A    between atoms: C17_37  and  C18_38 
REMARK   17  A    between atoms: C18_38  and  N11_39 
ROOT
HETATM    1  N6  UNL     1       5.229 -14.310 -21.230  1.00  0.00    -0.250 N 
ENDROOT
BRANCH   1   2
HETATM    2  C11 UNL     1       5.400 -14.165 -22.649  1.00  0.00     0.049 A 
HETATM    3  C10 UNL     1       6.319 -13.212 -23.089  1.00  0.00     0.033 A 
HETATM    4  C9  UNL     1       6.501 -13.003 -24.415  1.00  0.00     0.032 A 
HETATM    5  C8  UNL     1       5.814 -13.694 -25.374  1.00  0.00     0.034 A 
HETATM    6  C21 UNL     1       4.887 -14.655 -24.944  1.00  0.00     0.032 A 
HETATM    7  C20 UNL     1       4.710 -14.861 -23.594  1.00  0.00     0.033 A 
BRANCH   5   8
HETATM    8  N5  UNL     1       5.977 -13.456 -26.760  1.00  0.00    -0.331 N 
HETATM    9  C7  UNL     1       5.406 -12.659 -27.546  1.00  0.00     0.190 C 
HETATM   10  N1  UNL     1       4.390 -11.713 -27.319  1.00  0.00    -0.355 N 
HETATM   11  N4  UNL     1       5.877 -12.786 -28.928  1.00  0.00    -0.063 NA
HETATM   12  C1  UNL     1       3.210 -11.781 -28.202  1.00  0.00     0.152 C 
ATOM     13  H5  UNL     1       6.689 -14.039 -27.201  1.00  0.00     0.168 HD
BRANCH  10  14
HETATM   14  C2  UNL     1       4.340 -10.744 -26.278  1.00  0.00     0.169 C 
BRANCH  14  15
HETATM   15  C3  UNL     1       4.938  -9.415 -26.428  1.00  0.00     0.075 C 
BRANCH  15  16
HETATM   16  N2  UNL     1       6.254  -9.200 -26.872  1.00  0.00    -0.401 N 
ATOM     17  H2  UNL     1       6.454  -8.947 -27.840  1.00  0.00     0.158 HD
BRANCH  16  18
HETATM   18  C4  UNL     1       7.288  -9.349 -25.917  1.00  0.00     0.120 C 
BRANCH  18  19
HETATM   19  C5  UNL     1       8.236 -10.496 -26.285  1.00  0.00     0.047 C 
BRANCH  19  20
HETATM   20  C6  UNL     1       9.635 -10.200 -25.817  1.00  0.00     0.231 C 
BRANCH  20  21
HETATM   21  N3  UNL     1       9.664  -8.782 -25.426  1.00  0.00    -0.079 N 
ATOM     22  H33 UNL     1       8.734  -8.382 -25.300  1.00  0.00     0.274 HD
ATOM     23  H32 UNL     1       9.999  -8.635 -24.474  1.00  0.00     0.274 HD
ATOM     24  H31 UNL     1      10.220  -8.293 -26.127  1.00  0.00     0.274 HD
ENDBRANCH  20  21
ENDBRANCH  19  20
ENDBRANCH  18  19
ENDBRANCH  16  18
ENDBRANCH  15  16
ENDBRANCH  14  15
ENDBRANCH  10  14
ENDBRANCH   5   8
ENDBRANCH   1   2
BRANCH   1  25
HETATM   25  C12 UNL     1       6.215 -14.993 -20.465  1.00  0.00     0.126 C 
BRANCH  25  26
HETATM   26  C13 UNL     1       6.555 -16.349 -20.848  1.00  0.00     0.041 A 
HETATM   27  C14 UNL     1       5.698 -17.399 -20.665  1.00  0.00     0.122 A 
HETATM   28  N7  UNL     1       6.073 -18.656 -21.054  1.00  0.00    -0.201 N 
HETATM   29  C15 UNL     1       7.277 -18.837 -21.610  1.00  0.00     0.677 A 
ATOM     30  H7  UNL     1       5.442 -19.447 -20.923  1.00  0.00     0.183 HD
HETATM   31  N9  UNL     1       8.130 -17.802 -21.793  1.00  0.00    -0.176 N 
HETATM   32  C16 UNL     1       7.835 -16.558 -21.440  1.00  0.00     0.130 A 
ATOM     33  H9  UNL     1       9.039 -17.986 -22.219  1.00  0.00     0.186 HD
BRANCH  29  34
HETATM   34  N8  UNL     1       7.626 -20.022 -21.979  1.00  0.00    -0.234 N 
ATOM     35  H82 UNL     1       6.973 -20.798 -21.864  1.00  0.00     0.174 HD
ATOM     36  H81 UNL     1       8.553 -20.165 -22.379  1.00  0.00     0.174 HD
ENDBRANCH  29  34
BRANCH  32  37
HETATM   37  N10 UNL     1       8.570 -15.540 -21.578  1.00  0.00    -0.373 N 
ATOM     38  H10 UNL     1       8.188 -14.676 -21.195  1.00  0.00     0.161 HD
BRANCH  37  39
HETATM   39  C17 UNL     1       9.847 -15.416 -22.184  1.00  0.00     0.148 C 
BRANCH  39  40
HETATM   40  C18 UNL     1       9.742 -14.694 -23.521  1.00  0.00     0.249 C 
BRANCH  40  41
HETATM   41  N11 UNL     1       9.330 -15.559 -24.590  1.00  0.00    -0.078 N 
ATOM     42 3H11 UNL     1       8.759 -16.328 -24.238  1.00  0.00     0.274 HD
ATOM     43 2H11 UNL     1       8.641 -15.101 -25.186  1.00  0.00     0.274 HD
ATOM     44 1H11 UNL     1      10.114 -15.909 -25.140  1.00  0.00     0.274 HD
ENDBRANCH  40  41
ENDBRANCH  39  40
ENDBRANCH  37  39
ENDBRANCH  32  37
ENDBRANCH  25  26
ENDBRANCH   1  25
BRANCH   1  45
HETATM   45  S1  UNL     1       3.723 -13.771 -20.525  1.00  0.00     0.233 S 
HETATM   46  C19 UNL     1       2.365 -14.801 -20.919  1.00  0.00     0.186 C 
HETATM   47  O1  UNL     1       3.450 -12.399 -21.102  1.00  0.00    -0.206 OA
HETATM   48  O2  UNL     1       3.866 -13.596 -19.036  1.00  0.00    -0.206 OA
ENDBRANCH   1  45
TORSDOF 17
ENDMDL
MODEL 2
REMARK VINA RESULT: -7.786092363      1.927      3.953
REMARK  17 active torsions:
REMARK  status: ('A' for Active; 'I' for Inactive)
REMARK    1  A    between atoms: N1_2  and  C2_3 
REMARK       I    between atoms: N1_2  and  C7_14 
REMARK    2  A    between atoms: C2_3  and  C3_4 
REMARK    3  A    between atoms: C3_4  and  N2_5 
REMARK    4  A    between atoms: N2_5  and  C4_7 
REMARK    5  A    between atoms: C4_7  and  C5_8 
REMARK    6  A    between atoms: C5_8  and  C6_9 
REMARK    7  A    between atoms: C6_9  and  N3_10 
REMARK    8  A    between atoms: N5_16  and  C8_18 
REMARK    9  A    between atoms: C11_21  and  N6_22 
REMARK   10  A    between atoms: N6_22  and  C12_23 
REMARK   11  A    between atoms: N6_22  and  S1_43 
REMARK   12  A    between atoms: C12_23  and  C13_24 
REMARK   13  A    between atoms: C15_28  and  N8_29 
REMARK   14  A    between atoms: C16_34  and  N10_35 
REMARK   15  A    between atoms: N10_35  and  C17_37 
REMARK   16  A    between atoms: C17_37  and  C18_38 
REMARK   17  A    between atoms: C18_38  and  N11_39 
ROOT
HETATM    1  N6  UNL     1       4.345 -13.715 -21.799  1.00  0.00    -0.250 N 
ENDROOT
BRANCH   1   2
HETATM    2  C11 UNL     1       4.414 -12.728 -22.840  1.00  0.00     0.049 A 
HETATM    3  C10 UNL     1       4.309 -13.178 -24.158  1.00  0.00     0.033 A 
HETATM    4  C9  UNL     1       4.402 -12.301 -25.185  1.00  0.00     0.032 A 
HETATM    5  C8  UNL     1       4.597 -10.961 -25.000  1.00  0.00     0.034 A 
HETATM    6  C21 UNL     1       4.704 -10.497 -23.680  1.00  0.00     0.032 A 
HETATM    7  C20 UNL     1       4.608 -11.395 -22.642  1.00  0.00     0.033 A 
BRANCH   5   8
HETATM    8  N5  UNL     1       4.727 -10.046 -26.072  1.00  0.00    -0.331 N 
HETATM    9  C7  UNL     1       5.731  -9.484 -26.578  1.00  0.00     0.190 C 
HETATM   10  N1  UNL     1       7.097  -9.569 -26.246  1.00  0.00    -0.355 N 
HETATM   11  N4  UNL     1       5.384  -8.570 -27.668  1.00  0.00    -0.063 NA
HETATM   12  C1  UNL     1       7.805  -8.296 -26.020  1.00  0.00     0.152 C 
ATOM     13  H5  UNL     1       3.843  -9.797 -26.516  1.00  0.00     0.168 HD
BRANCH  10  14
HETATM   14  C2  UNL     1       7.852 -10.755 -26.030  1.00  0.00     0.169 C 
BRANCH  14  15
HETATM   15  C3  UNL     1       8.252 -11.185 -24.687  1.00  0.00     0.075 C 
BRANCH  15  16
HETATM   16  N2  UNL     1       9.586 -11.222 -24.247  1.00  0.00    -0.401 N 
ATOM     17  H2  UNL     1      10.238 -10.467 -24.460  1.00  0.00     0.158 HD
BRANCH  16  18
HETATM   18  C4  UNL     1       9.984 -12.355 -23.496  1.00  0.00     0.120 C 
BRANCH  18  19
HETATM   19  C5  UNL     1       9.427 -13.652 -24.092  1.00  0.00     0.047 C 
BRANCH  19  20
HETATM   20  C6  UNL     1      10.003 -14.850 -23.387  1.00  0.00     0.231 C 
BRANCH  20  21
HETATM   21  N3  UNL     1       9.494 -16.041 -24.084  1.00  0.00    -0.079 N 
ATOM     22  H33 UNL     1       9.944 -16.201 -24.985  1.00  0.00     0.274 HD
ATOM     23  H32 UNL     1       9.776 -16.916 -23.641  1.00  0.00     0.274 HD
ATOM     24  H31 UNL     1       8.482 -15.934 -24.152  1.00  0.00     0.274 HD
ENDBRANCH  20  21
ENDBRANCH  19  20
ENDBRANCH  18  19
ENDBRANCH  16  18
ENDBRANCH  15  16
ENDBRANCH  14  15
ENDBRANCH  10  14
ENDBRANCH   5   8
ENDBRANCH   1   2
BRANCH   1  25
HETATM   25  C12 UNL     1       5.179 -14.867 -21.859  1.00  0.00     0.126 C 
BRANCH  25  26
HETATM   26  C13 UNL     1       6.407 -14.858 -21.091  1.00  0.00     0.041 A 
HETATM   27  C14 UNL     1       7.275 -13.801 -21.108  1.00  0.00     0.122 A 
HETATM   28  N7  UNL     1       8.417 -13.849 -20.354  1.00  0.00    -0.201 N 
HETATM   29  C15 UNL     1       8.664 -14.933 -19.609  1.00  0.00     0.677 A 
ATOM     30  H7  UNL     1       9.071 -13.066 -20.360  1.00  0.00     0.183 HD
HETATM   31  N9  UNL     1       7.809 -15.983 -19.589  1.00  0.00    -0.176 N 
HETATM   32  C16 UNL     1       6.686 -16.006 -20.293  1.00  0.00     0.130 A 
ATOM     33  H9  UNL     1       8.038 -16.790 -19.008  1.00  0.00     0.186 HD
BRANCH  29  34
HETATM   34  N8  UNL     1       9.739 -14.973 -18.898  1.00  0.00    -0.234 N 
ATOM     35  H82 UNL     1       9.675 -14.884 -17.884  1.00  0.00     0.174 HD
ATOM     36  H81 UNL     1      10.638 -15.092 -19.363  1.00  0.00     0.174 HD
ENDBRANCH  29  34
BRANCH  32  37
HETATM   37  N10 UNL     1       5.837 -16.941 -20.327  1.00  0.00    -0.373 N 
ATOM     38  H10 UNL     1       4.865 -16.645 -20.243  1.00  0.00     0.161 HD
BRANCH  37  39
HETATM   39  C17 UNL     1       6.029 -18.340 -20.466  1.00  0.00     0.148 C 
BRANCH  39  40
HETATM   40  C18 UNL     1       6.706 -18.663 -21.792  1.00  0.00     0.249 C 
BRANCH  40  41
HETATM   41  N11 UNL     1       5.955 -18.205 -22.925  1.00  0.00    -0.078 N 
ATOM     42 3H11 UNL     1       5.307 -18.924 -23.250  1.00  0.00     0.274 HD
ATOM     43 2H11 UNL     1       5.283 -17.488 -22.653  1.00  0.00     0.274 HD
ATOM     44 1H11 UNL     1       6.549 -17.878 -23.688  1.00  0.00     0.274 HD
ENDBRANCH  40  41
ENDBRANCH  39  40
ENDBRANCH  37  39
ENDBRANCH  32  37
ENDBRANCH  25  26
ENDBRANCH   1  25
BRANCH   1  45
HETATM   45  S1  UNL     1       3.112 -13.530 -20.574  1.00  0.00     0.233 S 
HETATM   46  C19 UNL     1       3.424 -14.467 -19.130  1.00  0.00     0.186 C 
HETATM   47  O1  UNL     1       1.824 -14.034 -21.187  1.00  0.00    -0.206 OA
HETATM   48  O2  UNL     1       2.899 -12.075 -20.249  1.00  0.00    -0.206 OA
ENDBRANCH   1  45
TORSDOF 17
ENDMDL
MODEL 3
REMARK VINA RESULT: -7.712768226      2.824      8.076
REMARK  17 active torsions:
REMARK  status: ('A' for Active; 'I' for Inactive)
REMARK    1  A    between atoms: N1_2  and  C2_3 
REMARK       I    between atoms: N1_2  and  C7_14 
REMARK    2  A    between atoms: C2_3  and  C3_4 
REMARK    3  A    between atoms: C3_4  and  N2_5 
REMARK    4  A    between atoms: N2_5  and  C4_7 
REMARK    5  A    between atoms: C4_7  and  C5_8 
REMARK    6  A    between atoms: C5_8  and  C6_9 
REMARK    7  A    between atoms: C6_9  and  N3_10 
REMARK    8  A    between atoms: N5_16  and  C8_18 
REMARK    9  A    between atoms: C11_21  and  N6_22 
REMARK   10  A    between atoms: N6_22  and  C12_23 
REMARK   11  A    between atoms: N6_22  and  S1_43 
REMARK   12  A    between atoms: C12_23  and  C13_24 
REMARK   13  A    between atoms: C15_28  and  N8_29 
REMARK   14  A    between atoms: C16_34  and  N10_35 
REMARK   15  A    between atoms: N10_35  and  C17_37 
REMARK   16  A    between atoms: C17_37  and  C18_38 
REMARK   17  A    between atoms: C18_38  and  N11_39 
ROOT
HETATM    1  N6  UNL     1       5.779 -12.318 -24.977  1.00  0.00    -0.250 N 
ENDROOT
BRANCH   1   2
HETATM    2  C11 UNL     1       6.347 -13.197 -23.994  1.00  0.00     0.049 A 
HETATM    3  C10 UNL     1       7.298 -14.120 -24.431  1.00  0.00     0.033 A 
HETATM    4  C9  UNL     1       7.845 -14.999 -23.558  1.00  0.00     0.032 A 
HETATM    5  C8  UNL     1       7.509 -15.034 -22.234  1.00  0.00     0.034 A 
HETATM    6  C21 UNL     1       6.554 -14.110 -21.782  1.00  0.00     0.032 A 
HETATM    7  C20 UNL     1       6.003 -13.220 -22.676  1.00  0.00     0.033 A 
BRANCH   5   8
HETATM    8  N5  UNL     1       8.054 -15.973 -21.325  1.00  0.00    -0.331 N 
HETATM    9  C7  UNL     1       7.600 -17.047 -20.857  1.00  0.00     0.190 C 
HETATM   10  N1  UNL     1       6.371 -17.698 -21.074  1.00  0.00    -0.355 N 
HETATM   11  N4  UNL     1       8.511 -17.683 -19.903  1.00  0.00    -0.063 NA
HETATM   12  C1  UNL     1       5.596 -18.070 -19.876  1.00  0.00     0.152 C 
ATOM     13  H5  UNL     1       8.987 -15.733 -20.989  1.00  0.00     0.168 HD
BRANCH  10  14
HETATM   14  C2  UNL     1       5.757 -17.970 -22.329  1.00  0.00     0.169 C 
BRANCH  14  15
HETATM   15  C3  UNL     1       4.499 -17.336 -22.729  1.00  0.00     0.075 C 
BRANCH  15  16
HETATM   16  N2  UNL     1       4.411 -16.326 -23.702  1.00  0.00    -0.401 N 
ATOM     17  H2  UNL     1       5.214 -16.070 -24.277  1.00  0.00     0.158 HD
BRANCH  16  18
HETATM   18  C4  UNL     1       3.159 -15.682 -23.849  1.00  0.00     0.120 C 
BRANCH  18  19
HETATM   19  C5  UNL     1       2.408 -15.593 -22.517  1.00  0.00     0.047 C 
BRANCH  19  20
HETATM   20  C6  UNL     1       1.017 -16.150 -22.652  1.00  0.00     0.231 C 
BRANCH  20  21
HETATM   21  N3  UNL     1       0.822 -16.471 -24.074  1.00  0.00    -0.079 N 
ATOM     22  H33 UNL     1       1.294 -15.819 -24.701  1.00  0.00     0.274 HD
ATOM     23  H32 UNL     1       1.316 -17.313 -24.367  1.00  0.00     0.274 HD
ATOM     24  H31 UNL     1      -0.185 -16.522 -24.231  1.00  0.00     0.274 HD
ENDBRANCH  20  21
ENDBRANCH  19  20
ENDBRANCH  18  19
ENDBRANCH  16  18
ENDBRANCH  15  16
ENDBRANCH  14  15
ENDBRANCH  10  14
ENDBRANCH   5   8
ENDBRANCH   1   2
BRANCH   1  25
HETATM   25  C12 UNL     1       4.426 -12.489 -25.383  1.00  0.00     0.126 C 
BRANCH  25  26
HETATM   26  C13 UNL     1       4.172 -12.942 -26.735  1.00  0.00     0.041 A 
HETATM   27  C14 UNL     1       4.454 -14.216 -27.147  1.00  0.00     0.122 A 
HETATM   28  N7  UNL     1       4.184 -14.588 -28.436  1.00  0.00    -0.201 N 
HETATM   29  C15 UNL     1       3.646 -13.695 -29.275  1.00  0.00     0.677 A 
ATOM     30  H7  UNL     1       4.391 -15.535 -28.754  1.00  0.00     0.183 HD
HETATM   31  N9  UNL     1       3.365 -12.432 -28.874  1.00  0.00    -0.176 N 
HETATM   32  C16 UNL     1       3.599 -12.003 -27.641  1.00  0.00     0.130 A 
ATOM     33  H9  UNL     1       2.956 -11.784 -29.547  1.00  0.00     0.186 HD
BRANCH  29  34
HETATM   34  N8  UNL     1       3.390 -14.049 -30.488  1.00  0.00    -0.234 N 
ATOM     35  H82 UNL     1       2.432 -14.275 -30.755  1.00  0.00     0.174 HD
ATOM     36  H81 UNL     1       4.153 -14.099 -31.162  1.00  0.00     0.174 HD
ENDBRANCH  29  34
BRANCH  32  37
HETATM   37  N10 UNL     1       3.365 -10.847 -27.188  1.00  0.00    -0.373 N 
ATOM     38  H10 UNL     1       3.549 -10.728 -26.192  1.00  0.00     0.161 HD
BRANCH  37  39
HETATM   39  C17 UNL     1       2.884  -9.690 -27.853  1.00  0.00     0.148 C 
BRANCH  39  40
HETATM   40  C18 UNL     1       4.021  -8.715 -28.130  1.00  0.00     0.249 C 
BRANCH  40  41
HETATM   41  N11 UNL     1       5.230  -9.372 -28.540  1.00  0.00    -0.078 N 
ATOM     42 3H11 UNL     1       5.487 -10.108 -27.882  1.00  0.00     0.274 HD
ATOM     43 2H11 UNL     1       5.071  -9.942 -29.371  1.00  0.00     0.274 HD
ATOM     44 1H11 UNL     1       6.003  -8.723 -28.684  1.00  0.00     0.274 HD
ENDBRANCH  40  41
ENDBRANCH  39  40
ENDBRANCH  37  39
ENDBRANCH  32  37
ENDBRANCH  25  26
ENDBRANCH   1  25
BRANCH   1  45
HETATM   45  S1  UNL     1       6.837 -11.164 -25.755  1.00  0.00     0.233 S 
HETATM   46  C19 UNL     1       8.339 -10.910 -24.895  1.00  0.00     0.186 C 
HETATM   47  O1  UNL     1       6.087  -9.850 -25.782  1.00  0.00    -0.206 OA
HETATM   48  O2  UNL     1       7.085 -11.552 -27.189  1.00  0.00    -0.206 OA
ENDBRANCH   1  45
TORSDOF 17
ENDMDL
MODEL 4
REMARK VINA RESULT: -7.707718374      2.959      8.026
REMARK  17 active torsions:
REMARK  status: ('A' for Active; 'I' for Inactive)
REMARK    1  A    between atoms: N1_2  and  C2_3 
REMARK       I    between atoms: N1_2  and  C7_14 
REMARK    2  A    between atoms: C2_3  and  C3_4 
REMARK    3  A    between atoms: C3_4  and  N2_5 
REMARK    4  A    between atoms: N2_5  and  C4_7 
REMARK    5  A    between atoms: C4_7  and  C5_8 
REMARK    6  A    between atoms: C5_8  and  C6_9 
REMARK    7  A    between atoms: C6_9  and  N3_10 
REMARK    8  A    between atoms: N5_16  and  C8_18 
REMARK    9  A    between atoms: C11_21  and  N6_22 
REMARK   10  A    between atoms: N6_22  and  C12_23 
REMARK   11  A    between atoms: N6_22  and  S1_43 
REMARK   12  A    between atoms: C12_23  and  C13_24 
REMARK   13  A    between atoms: C15_28  and  N8_29 
REMARK   14  A    between atoms: C16_34  and  N10_35 
REMARK   15  A    between atoms: N10_35  and  C17_37 
REMARK   16  A    between atoms: C17_37  and  C18_38 
REMARK   17  A    between atoms: C18_38  and  N11_39 
ROOT
HETATM    1  N6  UNL     1       5.257 -12.854 -26.277  1.00  0.00    -0.250 N 
ENDROOT
BRANCH   1   2
HETATM    2  C11 UNL     1       5.437 -13.368 -24.948  1.00  0.00     0.049 A 
HETATM    3  C10 UNL     1       5.433 -12.447 -23.900  1.00  0.00     0.033 A 
HETATM    4  C9  UNL     1       5.631 -12.864 -22.627  1.00  0.00     0.032 A 
HETATM    5  C8  UNL     1       5.841 -14.175 -22.302  1.00  0.00     0.034 A 
HETATM    6  C21 UNL     1       5.846 -15.111 -23.347  1.00  0.00     0.032 A 
HETATM    7  C20 UNL     1       5.643 -14.677 -24.638  1.00  0.00     0.033 A 
BRANCH   5   8
HETATM    8  N5  UNL     1       6.082 -14.611 -20.976  1.00  0.00    -0.331 N 
HETATM    9  C7  UNL     1       5.301 -14.918 -20.040  1.00  0.00     0.190 C 
HETATM   10  N1  UNL     1       3.895 -14.933 -19.982  1.00  0.00    -0.355 N 
HETATM   11  N4  UNL     1       6.005 -15.284 -18.808  1.00  0.00    -0.063 NA
HETATM   12  C1  UNL     1       3.270 -14.205 -18.862  1.00  0.00     0.152 C 
ATOM     13  H5  UNL     1       7.070 -14.691 -20.738  1.00  0.00     0.168 HD
BRANCH  10  14
HETATM   14  C2  UNL     1       3.006 -15.510 -20.931  1.00  0.00     0.169 C 
BRANCH  14  15
HETATM   15  C3  UNL     1       1.766 -14.844 -21.335  1.00  0.00     0.075 C 
BRANCH  15  16
HETATM   16  N2  UNL     1       0.627 -15.530 -21.792  1.00  0.00    -0.401 N 
ATOM     17  H2  UNL     1      -0.300 -15.107 -21.754  1.00  0.00     0.158 HD
BRANCH  16  18
HETATM   18  C4  UNL     1       0.826 -16.834 -22.307  1.00  0.00     0.120 C 
BRANCH  18  19
HETATM   19  C5  UNL     1      -0.443 -17.378 -22.972  1.00  0.00     0.047 C 
BRANCH  19  20
HETATM   20  C6  UNL     1      -1.581 -16.404 -22.822  1.00  0.00     0.231 C 
BRANCH  20  21
HETATM   21  N3  UNL     1      -2.684 -16.905 -23.655  1.00  0.00    -0.079 N 
ATOM     22  H33 UNL     1      -2.372 -17.281 -24.551  1.00  0.00     0.274 HD
ATOM     23  H32 UNL     1      -3.104 -17.761 -23.294  1.00  0.00     0.274 HD
ATOM     24  H31 UNL     1      -3.353 -16.140 -23.751  1.00  0.00     0.274 HD
ENDBRANCH  20  21
ENDBRANCH  19  20
ENDBRANCH  18  19
ENDBRANCH  16  18
ENDBRANCH  15  16
ENDBRANCH  14  15
ENDBRANCH  10  14
ENDBRANCH   5   8
ENDBRANCH   1   2
BRANCH   1  25
HETATM   25  C12 UNL     1       6.375 -12.346 -26.996  1.00  0.00     0.126 C 
BRANCH  25  26
HETATM   26  C13 UNL     1       6.915 -11.062 -26.597  1.00  0.00     0.041 A 
HETATM   27  C14 UNL     1       6.291  -9.881 -26.891  1.00  0.00     0.122 A 
HETATM   28  N7  UNL     1       6.846  -8.700 -26.480  1.00  0.00    -0.201 N 
HETATM   29  C15 UNL     1       7.995  -8.721 -25.793  1.00  0.00     0.677 A 
ATOM     30  H7  UNL     1       6.390  -7.813 -26.694  1.00  0.00     0.183 HD
HETATM   31  N9  UNL     1       8.618  -9.887 -25.499  1.00  0.00    -0.176 N 
HETATM   32  C16 UNL     1       8.138 -11.068 -25.865  1.00  0.00     0.130 A 
ATOM     33  H9  UNL     1       9.493  -9.856 -24.975  1.00  0.00     0.186 HD
BRANCH  29  34
HETATM   34  N8  UNL     1       8.513  -7.607 -25.404  1.00  0.00    -0.234 N 
ATOM     35  H82 UNL     1       8.118  -6.726 -25.731  1.00  0.00     0.174 HD
ATOM     36  H81 UNL     1       9.315  -7.626 -24.774  1.00  0.00     0.174 HD
ENDBRANCH  29  34
BRANCH  32  37
HETATM   37  N10 UNL     1       8.654 -12.197 -25.630  1.00  0.00    -0.373 N 
ATOM     38  H10 UNL     1       8.337 -12.952 -26.238  1.00  0.00     0.161 HD
BRANCH  37  39
HETATM   39  C17 UNL     1       9.607 -12.575 -24.649  1.00  0.00     0.148 C 
BRANCH  39  40
HETATM   40  C18 UNL     1       9.217 -13.896 -23.999  1.00  0.00     0.249 C 
BRANCH  40  41
HETATM   41  N11 UNL     1       9.137 -14.977 -24.940  1.00  0.00    -0.078 N 
ATOM     42 3H11 UNL     1       8.380 -14.825 -25.607  1.00  0.00     0.274 HD
ATOM     43 2H11 UNL     1       9.929 -14.962 -25.582  1.00  0.00     0.274 HD
ATOM     44 1H11 UNL     1       9.049 -15.888 -24.489  1.00  0.00     0.274 HD
ENDBRANCH  40  41
ENDBRANCH  39  40
ENDBRANCH  37  39
ENDBRANCH  32  37
ENDBRANCH  25  26
ENDBRANCH   1  25
BRANCH   1  45
HETATM   45  S1  UNL     1       3.628 -12.732 -26.897  1.00  0.00     0.233 S 
HETATM   46  C19 UNL     1       3.521 -12.998 -28.623  1.00  0.00     0.186 C 
HETATM   47  O1  UNL     1       3.169 -11.318 -26.615  1.00  0.00    -0.206 OA
HETATM   48  O2  UNL     1       2.701 -13.649 -26.142  1.00  0.00    -0.206 OA
ENDBRANCH   1  45
TORSDOF 17
ENDMDL
MODEL 5
REMARK VINA RESULT: -7.683551100      1.943      3.401
REMARK  17 active torsions:
REMARK  status: ('A' for Active; 'I' for Inactive)
REMARK    1  A    between atoms: N1_2  and  C2_3 
REMARK       I    between atoms: N1_2  and  C7_14 
REMARK    2  A    between atoms: C2_3  and  C3_4 
REMARK    3  A    between atoms: C3_4  and  N2_5 
REMARK    4  A    between atoms: N2_5  and  C4_7 
REMARK    5  A    between atoms: C4_7  and  C5_8 
REMARK    6  A    between atoms: C5_8  and  C6_9 
REMARK    7  A    between atoms: C6_9  and  N3_10 
REMARK    8  A    between atoms: N5_16  and  C8_18 
REMARK    9  A    between atoms: C11_21  and  N6_22 
REMARK   10  A    between atoms: N6_22  and  C12_23 
REMARK   11  A    between atoms: N6_22  and  S1_43 
REMARK   12  A    between atoms: C12_23  and  C13_24 
REMARK   13  A    between atoms: C15_28  and  N8_29 
REMARK   14  A    between atoms: C16_34  and  N10_35 
REMARK   15  A    between atoms: N10_35  and  C17_37 
REMARK   16  A    between atoms: C17_37  and  C18_38 
REMARK   17  A    between atoms: C18_38  and  N11_39 
ROOT
HETATM    1  N6  UNL     1       4.989 -14.538 -21.354  1.00  0.00    -0.250 N 
ENDROOT
BRANCH   1   2
HETATM    2  C11 UNL     1       5.261 -14.117 -22.699  1.00  0.00     0.049 A 
HETATM    3  C10 UNL     1       4.908 -14.992 -23.728  1.00  0.00     0.033 A 
HETATM    4  C9  UNL     1       5.170 -14.668 -25.017  1.00  0.00     0.032 A 
HETATM    5  C8  UNL     1       5.778 -13.499 -25.377  1.00  0.00     0.034 A 
HETATM    6  C21 UNL     1       6.137 -12.610 -24.352  1.00  0.00     0.032 A 
HETATM    7  C20 UNL     1       5.867 -12.948 -23.045  1.00  0.00     0.033 A 
BRANCH   5   8
HETATM    8  N5  UNL     1       6.084 -13.171 -26.720  1.00  0.00    -0.331 N 
HETATM    9  C7  UNL     1       5.389 -12.669 -27.639  1.00  0.00     0.190 C 
HETATM   10  N1  UNL     1       4.044 -12.255 -27.654  1.00  0.00    -0.355 N 
HETATM   11  N4  UNL     1       6.121 -12.540 -28.901  1.00  0.00    -0.063 NA
HETATM   12  C1  UNL     1       3.196 -12.793 -28.734  1.00  0.00     0.152 C 
ATOM     13  H5  UNL     1       7.044 -13.381 -26.991  1.00  0.00     0.168 HD
BRANCH  10  14
HETATM   14  C2  UNL     1       3.391 -11.432 -26.694  1.00  0.00     0.169 C 
BRANCH  14  15
HETATM   15  C3  UNL     1       3.686 -10.003 -26.570  1.00  0.00     0.075 C 
BRANCH  15  16
HETATM   16  N2  UNL     1       2.854  -8.990 -27.076  1.00  0.00    -0.401 N 
ATOM     17  H2  UNL     1       2.879  -8.042 -26.700  1.00  0.00     0.158 HD
BRANCH  16  18
HETATM   18  C4  UNL     1       1.978  -9.344 -28.132  1.00  0.00     0.120 C 
BRANCH  18  19
HETATM   19  C5  UNL     1       0.620  -8.647 -27.997  1.00  0.00     0.047 C 
BRANCH  19  20
HETATM   20  C6  UNL     1       0.170  -8.101 -29.324  1.00  0.00     0.231 C 
BRANCH  20  21
HETATM   21  N3  UNL     1      -1.292  -7.955 -29.253  1.00  0.00    -0.079 N 
ATOM     22  H33 UNL     1      -1.729  -8.610 -28.604  1.00  0.00     0.274 HD
ATOM     23  H32 UNL     1      -1.588  -7.096 -28.790  1.00  0.00     0.274 HD
ATOM     24  H31 UNL     1      -1.645  -8.039 -30.206  1.00  0.00     0.274 HD
ENDBRANCH  20  21
ENDBRANCH  19  20
ENDBRANCH  18  19
ENDBRANCH  16  18
ENDBRANCH  15  16
ENDBRANCH  14  15
ENDBRANCH  10  14
ENDBRANCH   5   8
ENDBRANCH   1   2
BRANCH   1  25
HETATM   25  C12 UNL     1       6.024 -15.122 -20.571  1.00  0.00     0.126 C 
BRANCH  25  26
HETATM   26  C13 UNL     1       6.478 -16.451 -20.927  1.00  0.00     0.041 A 
HETATM   27  C14 UNL     1       5.703 -17.564 -20.746  1.00  0.00     0.122 A 
HETATM   28  N7  UNL     1       6.185 -18.792 -21.110  1.00  0.00    -0.201 N 
HETATM   29  C15 UNL     1       7.411 -18.884 -21.639  1.00  0.00     0.677 A 
ATOM     30  H7  UNL     1       5.615 -19.629 -20.979  1.00  0.00     0.183 HD
HETATM   31  N9  UNL     1       8.183 -17.786 -21.819  1.00  0.00    -0.176 N 
HETATM   32  C16 UNL     1       7.783 -16.566 -21.491  1.00  0.00     0.130 A 
ATOM     33  H9  UNL     1       9.113 -17.903 -22.224  1.00  0.00     0.186 HD
BRANCH  29  34
HETATM   34  N8  UNL     1       7.860 -20.042 -21.983  1.00  0.00    -0.234 N 
ATOM     35  H82 UNL     1       8.415 -20.135 -22.833  1.00  0.00     0.174 HD
ATOM     36  H81 UNL     1       7.651 -20.850 -21.397  1.00  0.00     0.174 HD
ENDBRANCH  29  34
BRANCH  32  37
HETATM   37  N10 UNL     1       8.438 -15.494 -21.629  1.00  0.00    -0.373 N 
ATOM     38  H10 UNL     1       8.079 -14.698 -21.103  1.00  0.00     0.161 HD
BRANCH  37  39
HETATM   39  C17 UNL     1       9.597 -15.231 -22.403  1.00  0.00     0.148 C 
BRANCH  39  40
HETATM   40  C18 UNL     1       9.229 -14.535 -23.707  1.00  0.00     0.249 C 
BRANCH  40  41
HETATM   41  N11 UNL     1       9.201 -15.431 -24.827  1.00  0.00    -0.078 N 
ATOM     42 3H11 UNL     1      10.145 -15.711 -25.095  1.00  0.00     0.274 HD
ATOM     43 2H11 UNL     1       8.830 -16.342 -24.557  1.00  0.00     0.274 HD
ATOM     44 1H11 UNL     1       8.692 -15.052 -25.625  1.00  0.00     0.274 HD
ENDBRANCH  40  41
ENDBRANCH  39  40
ENDBRANCH  37  39
ENDBRANCH  32  37
ENDBRANCH  25  26
ENDBRANCH   1  25
BRANCH   1  45
HETATM   45  S1  UNL     1       3.338 -14.454 -20.786  1.00  0.00     0.233 S 
HETATM   46  C19 UNL     1       3.210 -14.141 -19.069  1.00  0.00     0.186 C 
HETATM   47  O1  UNL     1       2.724 -15.810 -21.058  1.00  0.00    -0.206 OA
HETATM   48  O2  UNL     1       2.550 -13.451 -21.586  1.00  0.00    -0.206 OA
ENDBRANCH   1  45
TORSDOF 17
ENDMDL
