MODEL 1
REMARK VINA RESULT: -7.146295343      0.000      0.000
REMARK  5 active torsions:
REMARK  status: ('A' for Active; 'I' for Inactive)
REMARK    1  A    between atoms: C2_2  and  C3_3 
REMARK    2  A    between atoms: C3_3  and  N1_4 
REMARK    3  A    between atoms: C4_5  and  O1_6 
REMARK    4  A    between atoms: C8_11  and  N2_12 
REMARK    5  A    between atoms: N2_12  and  C9_14 
ROOT
HETATM    1  N1  UNL     1      51.324 -18.369  88.492  1.00  0.00    -0.313 N 
HETATM    2  C4  UNL     1      51.665 -18.090  89.764  1.00  0.00     0.150 A 
HETATM    3  C5  UNL     1      52.968 -18.472  90.005  1.00  0.00     0.005 A 
HETATM    4  C6  UNL     1      53.766 -18.362  91.250  1.00  0.00     0.054 C 
HETATM    5  C7  UNL     1      53.421 -19.010  88.795  1.00  0.00     0.047 A 
HETATM    6  C8  UNL     1      54.635 -19.557  88.411  1.00  0.00     0.073 A 
HETATM    7  C11 UNL     1      54.799 -20.023  87.110  1.00  0.00     0.105 A 
HETATM    8  N3  UNL     1      55.799 -20.585  86.435  1.00  0.00    -0.295 N 
ATOM      9  H3  UNL     1      56.723 -20.790  86.816  1.00  0.00     0.187 HD
HETATM   10  N4  UNL     1      55.419 -20.835  85.213  1.00  0.00    -0.288 N 
ATOM     11  H4  UNL     1      55.994 -21.263  84.489  1.00  0.00     0.188 HD
HETATM   12  C12 UNL     1      54.155 -20.438  85.065  1.00  0.00     0.158 A 
HETATM   13  C13 UNL     1      53.345 -20.525  83.883  1.00  0.00     0.121 C 
HETATM   14  N5  UNL     1      52.709 -20.594  82.926  1.00  0.00    -0.190 NA
HETATM   15  C14 UNL     1      53.721 -19.911  86.259  1.00  0.00     0.103 A 
HETATM   16  N6  UNL     1      52.528 -19.381  86.615  1.00  0.00    -0.337 N 
ATOM     17  H6  UNL     1      51.756 -19.318  85.952  1.00  0.00     0.167 HD
HETATM   18  C15 UNL     1      52.405 -18.938  87.886  1.00  0.00     0.123 A 
ENDROOT
BRANCH   6  19
HETATM   19  N2  UNL     1      55.575 -19.629  89.235  1.00  0.00    -0.388 N 
ATOM     20  H2  UNL     1      55.967 -18.722  89.486  1.00  0.00     0.159 HD
BRANCH  19  21
HETATM   21  C9  UNL     1      56.201 -20.716  89.884  1.00  0.00     0.115 C 
HETATM   22  C10 UNL     1      55.260 -21.740  90.469  1.00  0.00     0.026 C 
ENDBRANCH  19  21
ENDBRANCH   6  19
BRANCH   1  23
HETATM   23  C3  UNL     1      50.050 -18.122  87.854  1.00  0.00     0.132 C 
BRANCH  23  24
HETATM   24  C2  UNL     1      49.083 -19.251  88.232  1.00  0.00     0.016 C 
HETATM   25  C1  UNL     1      48.342 -19.716  86.997  1.00  0.00     0.006 C 
ENDBRANCH  23  24
ENDBRANCH   1  23
BRANCH   2  26
HETATM   26  O1  UNL     1      50.864 -17.501  90.746  1.00  0.00    -0.345 OA
ATOM     27  H1  UNL     1      51.153 -17.024  91.515  1.00  0.00     0.219 HD
ENDBRANCH   2  26
TORSDOF 5
ENDMDL
MODEL 2
REMARK VINA RESULT: -6.900815068      3.212      5.657
REMARK  5 active torsions:
REMARK  status: ('A' for Active; 'I' for Inactive)
REMARK    1  A    between atoms: C2_2  and  C3_3 
REMARK    2  A    between atoms: C3_3  and  N1_4 
REMARK    3  A    between atoms: C4_5  and  O1_6 
REMARK    4  A    between atoms: C8_11  and  N2_12 
REMARK    5  A    between atoms: N2_12  and  C9_14 
ROOT
HETATM    1  N1  UNL     1      57.538 -21.761  86.651  1.00  0.00    -0.313 N 
HETATM    2  C4  UNL     1      58.300 -21.320  87.669  1.00  0.00     0.150 A 
HETATM    3  C5  UNL     1      57.635 -20.342  88.377  1.00  0.00     0.005 A 
HETATM    4  C6  UNL     1      58.078 -19.575  89.566  1.00  0.00     0.054 C 
HETATM    5  C7  UNL     1      56.401 -20.198  87.732  1.00  0.00     0.047 A 
HETATM    6  C8  UNL     1      55.310 -19.379  87.971  1.00  0.00     0.073 A 
HETATM    7  C11 UNL     1      54.194 -19.459  87.143  1.00  0.00     0.105 A 
HETATM    8  N3  UNL     1      53.017 -18.839  87.094  1.00  0.00    -0.295 N 
ATOM      9  H3  UNL     1      52.708 -18.113  87.741  1.00  0.00     0.187 HD
HETATM   10  N4  UNL     1      52.319 -19.301  86.094  1.00  0.00    -0.288 N 
ATOM     11  H4  UNL     1      51.382 -18.995  85.835  1.00  0.00     0.188 HD
HETATM   12  C12 UNL     1      53.031 -20.236  85.467  1.00  0.00     0.158 A 
HETATM   13  C13 UNL     1      52.645 -21.002  84.315  1.00  0.00     0.121 C 
HETATM   14  N5  UNL     1      52.319 -21.614  83.396  1.00  0.00    -0.190 NA
HETATM   15  C14 UNL     1      54.240 -20.368  86.108  1.00  0.00     0.103 A 
HETATM   16  N6  UNL     1      55.296 -21.176  85.858  1.00  0.00    -0.337 N 
ATOM     17  H6  UNL     1      55.287 -21.836  85.080  1.00  0.00     0.167 HD
HETATM   18  C15 UNL     1      56.361 -21.072  86.683  1.00  0.00     0.123 A 
ENDROOT
BRANCH   6  19
HETATM   19  N2  UNL     1      55.333 -18.574  88.930  1.00  0.00    -0.388 N 
ATOM     20  H2  UNL     1      55.971 -17.791  88.789  1.00  0.00     0.159 HD
BRANCH  19  21
HETATM   21  C9  UNL     1      54.651 -18.534  90.166  1.00  0.00     0.115 C 
HETATM   22  C10 UNL     1      54.509 -19.864  90.863  1.00  0.00     0.026 C 
ENDBRANCH  19  21
ENDBRANCH   6  19
BRANCH   1  23
HETATM   23  C3  UNL     1      57.877 -22.779  85.682  1.00  0.00     0.132 C 
BRANCH  23  24
HETATM   24  C2  UNL     1      58.620 -22.118  84.513  1.00  0.00     0.016 C 
HETATM   25  C1  UNL     1      60.069 -22.556  84.524  1.00  0.00     0.006 C 
ENDBRANCH  23  24
ENDBRANCH   1  23
BRANCH   2  26
HETATM   26  O1  UNL     1      59.585 -21.750  88.012  1.00  0.00    -0.345 OA
ATOM     27  H1  UNL     1      59.822 -22.553  88.461  1.00  0.00     0.219 HD
ENDBRANCH   2  26
TORSDOF 5
ENDMDL
MODEL 3
REMARK VINA RESULT: -6.842157103      4.849      7.260
REMARK  5 active torsions:
REMARK  status: ('A' for Active; 'I' for Inactive)
REMARK    1  A    between atoms: C2_2  and  C3_3 
REMARK    2  A    between atoms: C3_3  and  N1_4 
REMARK    3  A    between atoms: C4_5  and  O1_6 
REMARK    4  A    between atoms: C8_11  and  N2_12 
REMARK    5  A    between atoms: N2_12  and  C9_14 
ROOT
HETATM    1  N1  UNL     1      56.275 -21.806  87.038  1.00  0.00    -0.313 N 
HETATM    2  C4  UNL     1      55.262 -22.547  86.550  1.00  0.00     0.150 A 
HETATM    3  C5  UNL     1      55.682 -23.271  85.454  1.00  0.00     0.005 A 
HETATM    4  C6  UNL     1      54.920 -24.214  84.601  1.00  0.00     0.054 C 
HETATM    5  C7  UNL     1      57.030 -22.933  85.287  1.00  0.00     0.047 A 
HETATM    6  C8  UNL     1      57.987 -23.330  84.367  1.00  0.00     0.073 A 
HETATM    7  C11 UNL     1      59.277 -22.814  84.449  1.00  0.00     0.105 A 
HETATM    8  N3  UNL     1      60.398 -22.977  83.751  1.00  0.00    -0.295 N 
ATOM      9  H3  UNL     1      60.501 -23.587  82.939  1.00  0.00     0.187 HD
HETATM   10  N4  UNL     1      61.345 -22.241  84.262  1.00  0.00    -0.288 N 
ATOM     11  H4  UNL     1      62.302 -22.182  83.916  1.00  0.00     0.188 HD
HETATM   12  C12 UNL     1      60.858 -21.579  85.310  1.00  0.00     0.158 A 
HETATM   13  C13 UNL     1      61.556 -20.657  86.162  1.00  0.00     0.121 C 
HETATM   14  N5  UNL     1      62.130 -19.926  86.842  1.00  0.00    -0.190 NA
HETATM   15  C14 UNL     1      59.534 -21.918  85.464  1.00  0.00     0.103 A 
HETATM   16  N6  UNL     1      58.614 -21.518  86.372  1.00  0.00    -0.337 N 
ATOM     17  H6  UNL     1      58.848 -20.852  87.108  1.00  0.00     0.167 HD
HETATM   18  C15 UNL     1      57.373 -22.040  86.261  1.00  0.00     0.123 A 
ENDROOT
BRANCH   6  19
HETATM   19  N2  UNL     1      57.687 -24.148  83.469  1.00  0.00    -0.388 N 
ATOM     20  H2  UNL     1      57.007 -23.788  82.799  1.00  0.00     0.159 HD
BRANCH  19  21
HETATM   21  C9  UNL     1      58.102 -25.471  83.198  1.00  0.00     0.115 C 
HETATM   22  C10 UNL     1      57.954 -26.436  84.347  1.00  0.00     0.026 C 
ENDBRANCH  19  21
ENDBRANCH   6  19
BRANCH   1  23
HETATM   23  C3  UNL     1      56.238 -20.915  88.176  1.00  0.00     0.132 C 
BRANCH  23  24
HETATM   24  C2  UNL     1      56.488 -21.733  89.449  1.00  0.00     0.016 C 
HETATM   25  C1  UNL     1      55.270 -21.658  90.345  1.00  0.00     0.006 C 
ENDBRANCH  23  24
ENDBRANCH   1  23
BRANCH   2  26
HETATM   26  O1  UNL     1      53.954 -22.617  87.037  1.00  0.00    -0.345 OA
ATOM     27  H1  UNL     1      53.228 -22.043  86.821  1.00  0.00     0.219 HD
ENDBRANCH   2  26
TORSDOF 5
ENDMDL
MODEL 4
REMARK VINA RESULT: -6.793499206      1.840      4.486
REMARK  5 active torsions:
REMARK  status: ('A' for Active; 'I' for Inactive)
REMARK    1  A    between atoms: C2_2  and  C3_3 
REMARK    2  A    between atoms: C3_3  and  N1_4 
REMARK    3  A    between atoms: C4_5  and  O1_6 
REMARK    4  A    between atoms: C8_11  and  N2_12 
REMARK    5  A    between atoms: N2_12  and  C9_14 
ROOT
HETATM    1  N1  UNL     1      52.763 -20.148  89.323  1.00  0.00    -0.313 N 
HETATM    2  C4  UNL     1      51.597 -19.765  88.769  1.00  0.00     0.150 A 
HETATM    3  C5  UNL     1      51.701 -19.749  87.395  1.00  0.00     0.005 A 
HETATM    4  C6  UNL     1      50.682 -19.396  86.378  1.00  0.00     0.054 C 
HETATM    5  C7  UNL     1      53.015 -20.148  87.123  1.00  0.00     0.047 A 
HETATM    6  C8  UNL     1      53.713 -20.323  85.939  1.00  0.00     0.073 A 
HETATM    7  C11 UNL     1      55.042 -20.738  85.978  1.00  0.00     0.105 A 
HETATM    8  N3  UNL     1      55.971 -20.994  85.060  1.00  0.00    -0.295 N 
ATOM      9  H3  UNL     1      55.837 -20.917  84.051  1.00  0.00     0.187 HD
HETATM   10  N4  UNL     1      57.077 -21.360  85.646  1.00  0.00    -0.288 N 
ATOM     11  H4  UNL     1      57.943 -21.613  85.171  1.00  0.00     0.188 HD
HETATM   12  C12 UNL     1      56.891 -21.349  86.965  1.00  0.00     0.158 A 
HETATM   13  C13 UNL     1      57.846 -21.681  87.984  1.00  0.00     0.121 C 
HETATM   14  N5  UNL     1      58.620 -21.957  88.791  1.00  0.00    -0.190 NA
HETATM   15  C14 UNL     1      55.599 -20.955  87.220  1.00  0.00     0.103 A 
HETATM   16  N6  UNL     1      54.934 -20.790  88.386  1.00  0.00    -0.337 N 
ATOM     17  H6  UNL     1      55.385 -20.962  89.284  1.00  0.00     0.167 HD
HETATM   18  C15 UNL     1      53.646 -20.387  88.310  1.00  0.00     0.123 A 
ENDROOT
BRANCH   6  19
HETATM   19  N2  UNL     1      53.148 -20.109  84.843  1.00  0.00    -0.388 N 
ATOM     20  H2  UNL     1      52.960 -19.122  84.667  1.00  0.00     0.159 HD
BRANCH  19  21
HETATM   21  C9  UNL     1      52.717 -20.961  83.802  1.00  0.00     0.115 C 
HETATM   22  C10 UNL     1      52.037 -22.229  84.253  1.00  0.00     0.026 C 
ENDBRANCH  19  21
ENDBRANCH   6  19
BRANCH   1  23
HETATM   23  C3  UNL     1      53.058 -20.290  90.731  1.00  0.00     0.132 C 
BRANCH  23  24
HETATM   24  C2  UNL     1      53.843 -19.056  91.195  1.00  0.00     0.016 C 
HETATM   25  C1  UNL     1      52.876 -17.964  91.597  1.00  0.00     0.006 C 
ENDBRANCH  23  24
ENDBRANCH   1  23
BRANCH   2  26
HETATM   26  O1  UNL     1      50.417 -19.422  89.435  1.00  0.00    -0.345 OA
ATOM     27  H1  UNL     1      49.546 -19.353  89.062  1.00  0.00     0.219 HD
ENDBRANCH   2  26
TORSDOF 5
ENDMDL
MODEL 5
REMARK VINA RESULT: -6.743704092      4.445      7.061
REMARK  5 active torsions:
REMARK  status: ('A' for Active; 'I' for Inactive)
REMARK    1  A    between atoms: C2_2  and  C3_3 
REMARK    2  A    between atoms: C3_3  and  N1_4 
REMARK    3  A    between atoms: C4_5  and  O1_6 
REMARK    4  A    between atoms: C8_11  and  N2_12 
REMARK    5  A    between atoms: N2_12  and  C9_14 
ROOT
HETATM    1  N1  UNL     1      57.248 -21.006  87.925  1.00  0.00    -0.313 N 
HETATM    2  C4  UNL     1      55.919 -21.116  87.744  1.00  0.00     0.150 A 
HETATM    3  C5  UNL     1      55.647 -21.678  86.515  1.00  0.00     0.005 A 
HETATM    4  C6  UNL     1      54.339 -21.988  85.890  1.00  0.00     0.054 C 
HETATM    5  C7  UNL     1      56.899 -21.913  85.935  1.00  0.00     0.047 A 
HETATM    6  C8  UNL     1      57.280 -22.454  84.718  1.00  0.00     0.073 A 
HETATM    7  C11 UNL     1      58.632 -22.565  84.406  1.00  0.00     0.105 A 
HETATM    8  N3  UNL     1      59.318 -23.022  83.361  1.00  0.00    -0.295 N 
ATOM      9  H3  UNL     1      58.907 -23.414  82.514  1.00  0.00     0.187 HD
HETATM   10  N4  UNL     1      60.597 -22.894  83.585  1.00  0.00    -0.288 N 
ATOM     11  H4  UNL     1      61.341 -23.167  82.945  1.00  0.00     0.188 HD
HETATM   12  C12 UNL     1      60.770 -22.346  84.788  1.00  0.00     0.158 A 
HETATM   13  C13 UNL     1      62.015 -22.028  85.431  1.00  0.00     0.121 C 
HETATM   14  N5  UNL     1      63.019 -21.785  85.938  1.00  0.00    -0.190 NA
HETATM   15  C14 UNL     1      59.535 -22.120  85.347  1.00  0.00     0.103 A 
HETATM   16  N6  UNL     1      59.183 -21.589  86.540  1.00  0.00    -0.337 N 
ATOM     17  H6  UNL     1      59.886 -21.272  87.209  1.00  0.00     0.167 HD
HETATM   18  C15 UNL     1      57.862 -21.497  86.809  1.00  0.00     0.123 A 
ENDROOT
BRANCH   6  19
HETATM   19  N2  UNL     1      56.408 -22.839  83.906  1.00  0.00    -0.388 N 
ATOM     20  H2  UNL     1      55.929 -22.076  83.429  1.00  0.00     0.159 HD
BRANCH  19  21
HETATM   21  C9  UNL     1      55.955 -24.121  83.520  1.00  0.00     0.115 C 
HETATM   22  C10 UNL     1      55.999 -25.169  84.604  1.00  0.00     0.026 C 
ENDBRANCH  19  21
ENDBRANCH   6  19
BRANCH   1  23
HETATM   23  C3  UNL     1      57.933 -20.469  89.080  1.00  0.00     0.132 C 
BRANCH  23  24
HETATM   24  C2  UNL     1      57.682 -18.957  89.141  1.00  0.00     0.016 C 
HETATM   25  C1  UNL     1      58.796 -18.292  89.921  1.00  0.00     0.006 C 
ENDBRANCH  23  24
ENDBRANCH   1  23
BRANCH   2  26
HETATM   26  O1  UNL     1      54.910 -20.737  88.633  1.00  0.00    -0.345 OA
ATOM     27  H1  UNL     1      53.976 -20.697  88.461  1.00  0.00     0.219 HD
ENDBRANCH   2  26
TORSDOF 5
ENDMDL
