MODEL 1
REMARK VINA RESULT: -7.110920645      0.000      0.000
REMARK  15 active torsions:
REMARK  status: ('A' for Active; 'I' for Inactive)
REMARK    1  A    between atoms: C10_10  and  O1_11 
REMARK    2  A    between atoms: C14_16  and  C15_17 
REMARK    3  A    between atoms: C15_17  and  C16_18 
REMARK    4  A    between atoms: C16_18  and  C17_19 
REMARK    5  A    between atoms: C19_21  and  O2_22 
REMARK    6  A    between atoms: O2_22  and  C20_23 
REMARK    7  A    between atoms: C20_23  and  C21_24 
REMARK    8  A    between atoms: C21_24  and  C22_25 
REMARK    9  A    between atoms: C21_24  and  C28_34 
REMARK   10  A    between atoms: C22_25  and  C23_26 
REMARK   11  A    between atoms: C23_26  and  C24_27 
REMARK   12  A    between atoms: C26_30  and  O4_31 
REMARK   13  A    between atoms: C28_34  and  O5_35 
REMARK   14  A    between atoms: O5_35  and  C29_36 
REMARK   15  A    between atoms: C32_40  and  O7_41 
ROOT
HETATM    1  C17 UNL     1      27.056   3.677   0.598  1.00  0.00     0.065 C 
HETATM    2  C18 UNL     1      26.814   4.124  -0.783  1.00  0.00     0.049 C 
HETATM    3  C19 UNL     1      25.734   3.520  -1.506  1.00  0.00     0.125 C 
HETATM    4  C31 UNL     1      25.210   2.188  -1.021  1.00  0.00     0.064 C 
HETATM    5  C32 UNL     1      25.331   1.914   0.425  1.00  0.00     0.125 C 
HETATM    6  C33 UNL     1      25.714   3.112   1.208  1.00  0.00     0.025 C 
HETATM    7  C34 UNL     1      24.761   4.262   1.234  1.00  0.00     0.014 C 
ENDROOT
BRANCH   1   8
HETATM    8  C16 UNL     1      27.967   3.887   1.387  1.00  0.00    -0.150 C 
BRANCH   8   9
HETATM    9  C15 UNL     1      29.088   4.167   2.241  1.00  0.00     0.059 C 
BRANCH   9  10
HETATM   10  C14 UNL     1      30.352   4.421   1.814  1.00  0.00    -0.037 C 
HETATM   11  C2  UNL     1      30.617   5.550   0.950  1.00  0.00    -0.060 C 
HETATM   12  C1  UNL     1      30.225   6.773   1.334  1.00  0.00     0.019 C 
HETATM   13  C3  UNL     1      31.446   5.352  -0.249  1.00  0.00     0.039 C 
HETATM   14  C4  UNL     1      31.652   3.821  -0.308  1.00  0.00     0.011 C 
HETATM   15  C5  UNL     1      32.440   3.515   0.978  1.00  0.00     0.009 C 
HETATM   16  C6  UNL     1      31.472   3.496   2.141  1.00  0.00    -0.011 C 
HETATM   17  C11 UNL     1      33.312   2.314   0.902  1.00  0.00    -0.017 C 
HETATM   18  C7  UNL     1      32.160   4.032   3.374  1.00  0.00     0.021 C 
HETATM   19  C8  UNL     1      30.897   2.160   2.418  1.00  0.00     0.017 C 
HETATM   20  C9  UNL     1      31.858   1.001   2.391  1.00  0.00     0.033 C 
HETATM   21  C10 UNL     1      32.576   0.996   1.093  1.00  0.00     0.126 C 
HETATM   22  C12 UNL     1      34.495   2.335   1.849  1.00  0.00     0.018 C 
HETATM   23  C13 UNL     1      33.972   2.231  -0.499  1.00  0.00     0.018 C 
BRANCH  21  24
HETATM   24  O1  UNL     1      31.630   0.929   0.076  1.00  0.00    -0.395 OA
ATOM     25  H1  UNL     1      31.585   1.781  -0.342  1.00  0.00     0.210 HD
ENDBRANCH  21  24
ENDBRANCH   9  10
ENDBRANCH   8   9
ENDBRANCH   1   8
BRANCH   3  26
HETATM   26  O2  UNL     1      25.930   3.337  -2.917  1.00  0.00    -0.385 OA
BRANCH  26  27
HETATM   27  C20 UNL     1      26.220   1.926  -3.047  1.00  0.00     0.175 C 
BRANCH  27  28
HETATM   28  C21 UNL     1      27.503   1.743  -3.708  1.00  0.00     0.044 C 
BRANCH  28  29
HETATM   29  C22 UNL     1      28.690   1.572  -2.721  1.00  0.00     0.094 C 
BRANCH  29  30
HETATM   30  C23 UNL     1      29.812   1.837  -2.976  1.00  0.00    -0.146 C 
BRANCH  30  31
HETATM   31  C24 UNL     1      31.213   2.043  -3.410  1.00  0.00     0.011 A 
HETATM   32  C25 UNL     1      32.094   0.888  -3.411  1.00  0.00     0.224 A 
HETATM   33  O3  UNL     1      33.192   1.304  -3.911  1.00  0.00    -0.326 OA
HETATM   34  C26 UNL     1      33.193   2.521  -4.235  1.00  0.00     0.179 A 
HETATM   35  C27 UNL     1      31.923   3.025  -3.916  1.00  0.00     0.081 A 
BRANCH  34  36
HETATM   36  O4  UNL     1      34.197   3.300  -4.789  1.00  0.00    -0.341 OA
ATOM     37  H4  UNL     1      34.501   4.168  -4.553  1.00  0.00     0.220 HD
ENDBRANCH  34  36
ENDBRANCH  30  31
ENDBRANCH  29  30
ENDBRANCH  28  29
BRANCH  28  38
HETATM   38  C28 UNL     1      27.902   3.188  -4.279  1.00  0.00     0.186 C 
BRANCH  38  39
HETATM   39  O5  UNL     1      27.833   2.978  -5.662  1.00  0.00    -0.321 OA
BRANCH  39  40
HETATM   40  C29 UNL     1      27.181   3.646  -6.645  1.00  0.00     0.254 C 
HETATM   41  C30 UNL     1      27.954   4.255  -7.797  1.00  0.00     0.126 C 
HETATM   42  O6  UNL     1      25.951   3.738  -6.596  1.00  0.00    -0.266 OA
ENDBRANCH  39  40
ENDBRANCH  38  39
ENDBRANCH  28  38
ENDBRANCH  27  28
ENDBRANCH  26  27
ENDBRANCH   3  26
BRANCH   5  43
HETATM   43  O7  UNL     1      26.161   0.869   0.703  1.00  0.00    -0.395 OA
ATOM     44  H7  UNL     1      26.367   0.793   1.627  1.00  0.00     0.210 HD
ENDBRANCH   5  43
TORSDOF 15
ENDMDL
MODEL 2
REMARK VINA RESULT: -7.009389234      1.645      2.306
REMARK  15 active torsions:
REMARK  status: ('A' for Active; 'I' for Inactive)
REMARK    1  A    between atoms: C10_10  and  O1_11 
REMARK    2  A    between atoms: C14_16  and  C15_17 
REMARK    3  A    between atoms: C15_17  and  C16_18 
REMARK    4  A    between atoms: C16_18  and  C17_19 
REMARK    5  A    between atoms: C19_21  and  O2_22 
REMARK    6  A    between atoms: O2_22  and  C20_23 
REMARK    7  A    between atoms: C20_23  and  C21_24 
REMARK    8  A    between atoms: C21_24  and  C22_25 
REMARK    9  A    between atoms: C21_24  and  C28_34 
REMARK   10  A    between atoms: C22_25  and  C23_26 
REMARK   11  A    between atoms: C23_26  and  C24_27 
REMARK   12  A    between atoms: C26_30  and  O4_31 
REMARK   13  A    between atoms: C28_34  and  O5_35 
REMARK   14  A    between atoms: O5_35  and  C29_36 
REMARK   15  A    between atoms: C32_40  and  O7_41 
ROOT
HETATM    1  C17 UNL     1      27.761   3.205   0.069  1.00  0.00     0.065 C 
HETATM    2  C18 UNL     1      27.513   4.350  -0.824  1.00  0.00     0.049 C 
HETATM    3  C19 UNL     1      26.287   4.369  -1.566  1.00  0.00     0.125 C 
HETATM    4  C31 UNL     1      25.550   3.064  -1.758  1.00  0.00     0.064 C 
HETATM    5  C32 UNL     1      25.719   2.045  -0.701  1.00  0.00     0.125 C 
HETATM    6  C33 UNL     1      26.382   2.578   0.511  1.00  0.00     0.025 C 
HETATM    7  C34 UNL     1      25.676   3.645   1.281  1.00  0.00     0.014 C 
ENDROOT
BRANCH   1   8
HETATM    8  C16 UNL     1      28.750   2.843   0.692  1.00  0.00    -0.150 C 
BRANCH   8   9
HETATM    9  C15 UNL     1      29.866   2.443   1.503  1.00  0.00     0.059 C 
BRANCH   9  10
HETATM   10  C14 UNL     1      31.070   3.071   1.542  1.00  0.00    -0.037 C 
HETATM   11  C2  UNL     1      31.142   4.513   1.473  1.00  0.00    -0.060 C 
HETATM   12  C1  UNL     1      30.441   5.246   2.352  1.00  0.00     0.019 C 
HETATM   13  C3  UNL     1      32.100   5.137   0.548  1.00  0.00     0.039 C 
HETATM   14  C4  UNL     1      32.663   3.946  -0.261  1.00  0.00     0.011 C 
HETATM   15  C5  UNL     1      33.379   3.096   0.804  1.00  0.00     0.009 C 
HETATM   16  C6  UNL     1      32.339   2.295   1.557  1.00  0.00    -0.011 C 
HETATM   17  C11 UNL     1      34.511   2.281   0.290  1.00  0.00    -0.017 C 
HETATM   18  C7  UNL     1      32.768   2.149   2.998  1.00  0.00     0.021 C 
HETATM   19  C8  UNL     1      32.071   0.963   0.968  1.00  0.00     0.017 C 
HETATM   20  C9  UNL     1      33.274   0.168   0.536  1.00  0.00     0.033 C 
HETATM   21  C10 UNL     1      34.089   0.988  -0.393  1.00  0.00     0.126 C 
HETATM   22  C12 UNL     1      35.565   1.945   1.326  1.00  0.00     0.018 C 
HETATM   23  C13 UNL     1      35.298   3.087  -0.776  1.00  0.00     0.018 C 
BRANCH  21  24
HETATM   24  O1  UNL     1      33.282   1.361  -1.463  1.00  0.00    -0.395 OA
ATOM     25  H1  UNL     1      33.135   2.298  -1.410  1.00  0.00     0.210 HD
ENDBRANCH  21  24
ENDBRANCH   9  10
ENDBRANCH   8   9
ENDBRANCH   1   8
BRANCH   3  26
HETATM   26  O2  UNL     1      26.342   4.947  -2.880  1.00  0.00    -0.385 OA
BRANCH  26  27
HETATM   27  C20 UNL     1      27.614   4.498  -3.403  1.00  0.00     0.175 C 
BRANCH  27  28
HETATM   28  C21 UNL     1      27.446   4.020  -4.767  1.00  0.00     0.044 C 
BRANCH  28  29
HETATM   29  C22 UNL     1      27.336   2.474  -4.873  1.00  0.00     0.094 C 
BRANCH  29  30
HETATM   30  C23 UNL     1      28.010   1.715  -4.270  1.00  0.00    -0.146 C 
BRANCH  30  31
HETATM   31  C24 UNL     1      28.964   0.893  -3.490  1.00  0.00     0.011 A 
HETATM   32  C25 UNL     1      29.868   1.584  -2.588  1.00  0.00     0.224 A 
HETATM   33  O3  UNL     1      30.502   0.660  -1.977  1.00  0.00    -0.326 OA
HETATM   34  C26 UNL     1      30.180  -0.509  -2.313  1.00  0.00     0.179 A 
HETATM   35  C27 UNL     1      29.187  -0.388  -3.298  1.00  0.00     0.081 A 
BRANCH  34  36
HETATM   36  O4  UNL     1      30.658  -1.733  -1.872  1.00  0.00    -0.341 OA
ATOM     37  H4  UNL     1      31.507  -2.142  -1.996  1.00  0.00     0.220 HD
ENDBRANCH  34  36
ENDBRANCH  30  31
ENDBRANCH  29  30
ENDBRANCH  28  29
BRANCH  28  38
HETATM   38  C28 UNL     1      28.883   4.183  -5.460  1.00  0.00     0.186 C 
BRANCH  38  39
HETATM   39  O5  UNL     1      28.619   3.763  -6.769  1.00  0.00    -0.321 OA
BRANCH  39  40
HETATM   40  C29 UNL     1      28.045   4.395  -7.822  1.00  0.00     0.254 C 
HETATM   41  C30 UNL     1      28.823   5.430  -8.609  1.00  0.00     0.126 C 
HETATM   42  O6  UNL     1      26.886   4.107  -8.137  1.00  0.00    -0.266 OA
ENDBRANCH  39  40
ENDBRANCH  38  39
ENDBRANCH  28  38
ENDBRANCH  27  28
ENDBRANCH  26  27
ENDBRANCH   3  26
BRANCH   5  43
HETATM   43  O7  UNL     1      26.347   0.918  -1.142  1.00  0.00    -0.395 OA
ATOM     44  H7  UNL     1      26.530   0.299  -0.446  1.00  0.00     0.210 HD
ENDBRANCH   5  43
TORSDOF 15
ENDMDL
MODEL 3
REMARK VINA RESULT: -6.987580524      0.905      1.014
REMARK  15 active torsions:
REMARK  status: ('A' for Active; 'I' for Inactive)
REMARK    1  A    between atoms: C10_10  and  O1_11 
REMARK    2  A    between atoms: C14_16  and  C15_17 
REMARK    3  A    between atoms: C15_17  and  C16_18 
REMARK    4  A    between atoms: C16_18  and  C17_19 
REMARK    5  A    between atoms: C19_21  and  O2_22 
REMARK    6  A    between atoms: O2_22  and  C20_23 
REMARK    7  A    between atoms: C20_23  and  C21_24 
REMARK    8  A    between atoms: C21_24  and  C22_25 
REMARK    9  A    between atoms: C21_24  and  C28_34 
REMARK   10  A    between atoms: C22_25  and  C23_26 
REMARK   11  A    between atoms: C23_26  and  C24_27 
REMARK   12  A    between atoms: C26_30  and  O4_31 
REMARK   13  A    between atoms: C28_34  and  O5_35 
REMARK   14  A    between atoms: O5_35  and  C29_36 
REMARK   15  A    between atoms: C32_40  and  O7_41 
ROOT
HETATM    1  C17 UNL     1      27.483   2.866   0.282  1.00  0.00     0.065 C 
HETATM    2  C18 UNL     1      27.417   3.543  -1.024  1.00  0.00     0.049 C 
HETATM    3  C19 UNL     1      26.230   3.372  -1.810  1.00  0.00     0.125 C 
HETATM    4  C31 UNL     1      25.337   2.192  -1.503  1.00  0.00     0.064 C 
HETATM    5  C32 UNL     1      25.335   1.705  -0.109  1.00  0.00     0.125 C 
HETATM    6  C33 UNL     1      26.020   2.630   0.824  1.00  0.00     0.025 C 
HETATM    7  C34 UNL     1      25.432   3.990   1.017  1.00  0.00     0.014 C 
ENDROOT
BRANCH   1   8
HETATM    8  C16 UNL     1      28.394   2.701   1.082  1.00  0.00    -0.150 C 
BRANCH   8   9
HETATM    9  C15 UNL     1      29.520   2.557   1.962  1.00  0.00     0.059 C 
BRANCH   9  10
HETATM   10  C14 UNL     1      30.699   3.220   1.839  1.00  0.00    -0.037 C 
HETATM   11  C2  UNL     1      30.713   4.646   1.603  1.00  0.00    -0.060 C 
HETATM   12  C1  UNL     1      30.051   5.455   2.443  1.00  0.00     0.019 C 
HETATM   13  C3  UNL     1      31.579   5.186   0.543  1.00  0.00     0.039 C 
HETATM   14  C4  UNL     1      32.126   3.926  -0.166  1.00  0.00     0.011 C 
HETATM   15  C5  UNL     1      32.948   3.226   0.932  1.00  0.00     0.009 C 
HETATM   16  C6  UNL     1      31.995   2.487   1.847  1.00  0.00    -0.011 C 
HETATM   17  C11 UNL     1      34.070   2.389   0.430  1.00  0.00    -0.017 C 
HETATM   18  C7  UNL     1      32.530   2.521   3.258  1.00  0.00     0.021 C 
HETATM   19  C8  UNL     1      31.734   1.089   1.434  1.00  0.00     0.017 C 
HETATM   20  C9  UNL     1      32.932   0.284   1.005  1.00  0.00     0.033 C 
HETATM   21  C10 UNL     1      33.647   1.015  -0.069  1.00  0.00     0.126 C 
HETATM   22  C12 UNL     1      35.206   2.205   1.415  1.00  0.00     0.018 C 
HETATM   23  C13 UNL     1      34.747   3.089  -0.777  1.00  0.00     0.018 C 
BRANCH  21  24
HETATM   24  O1  UNL     1      32.753   1.239  -1.111  1.00  0.00    -0.395 OA
ATOM     25  H1  UNL     1      32.963   2.077  -1.506  1.00  0.00     0.210 HD
ENDBRANCH  21  24
ENDBRANCH   9  10
ENDBRANCH   8   9
ENDBRANCH   1   8
BRANCH   3  26
HETATM   26  O2  UNL     1      26.405   3.330  -3.234  1.00  0.00    -0.385 OA
BRANCH  26  27
HETATM   27  C20 UNL     1      26.443   1.916  -3.538  1.00  0.00     0.175 C 
BRANCH  27  28
HETATM   28  C21 UNL     1      27.630   1.610  -4.321  1.00  0.00     0.044 C 
BRANCH  28  29
HETATM   29  C22 UNL     1      28.854   1.201  -3.457  1.00  0.00     0.094 C 
BRANCH  29  30
HETATM   30  C23 UNL     1      29.941   1.641  -3.591  1.00  0.00    -0.146 C 
BRANCH  30  31
HETATM   31  C24 UNL     1      31.304   2.123  -3.914  1.00  0.00     0.011 A 
HETATM   32  C25 UNL     1      32.183   1.221  -4.636  1.00  0.00     0.224 A 
HETATM   33  O3  UNL     1      33.239   1.899  -4.872  1.00  0.00    -0.326 OA
HETATM   34  C26 UNL     1      33.213   3.079  -4.436  1.00  0.00     0.179 A 
HETATM   35  C27 UNL     1      31.971   3.250  -3.805  1.00  0.00     0.081 A 
BRANCH  34  36
HETATM   36  O4  UNL     1      34.169   4.080  -4.500  1.00  0.00    -0.341 OA
ATOM     37  H4  UNL     1      34.315   4.829  -3.934  1.00  0.00     0.220 HD
ENDBRANCH  34  36
ENDBRANCH  30  31
ENDBRANCH  29  30
ENDBRANCH  28  29
BRANCH  28  38
HETATM   38  C28 UNL     1      28.187   3.026  -4.830  1.00  0.00     0.186 C 
BRANCH  38  39
HETATM   39  O5  UNL     1      27.947   2.949  -6.207  1.00  0.00    -0.321 OA
BRANCH  39  40
HETATM   40  C29 UNL     1      27.224   3.734  -7.043  1.00  0.00     0.254 C 
HETATM   41  C30 UNL     1      27.883   4.385  -8.242  1.00  0.00     0.126 C 
HETATM   42  O6  UNL     1      26.021   3.900  -6.821  1.00  0.00    -0.266 OA
ENDBRANCH  39  40
ENDBRANCH  38  39
ENDBRANCH  28  38
ENDBRANCH  27  28
ENDBRANCH  26  27
ENDBRANCH   3  26
BRANCH   5  43
HETATM   43  O7  UNL     1      25.828   0.440   0.016  1.00  0.00    -0.395 OA
ATOM     44  H7  UNL     1      25.325  -0.097   0.617  1.00  0.00     0.210 HD
ENDBRANCH   5  43
TORSDOF 15
ENDMDL
MODEL 4
REMARK VINA RESULT: -6.961841792      1.343      1.855
REMARK  15 active torsions:
REMARK  status: ('A' for Active; 'I' for Inactive)
REMARK    1  A    between atoms: C10_10  and  O1_11 
REMARK    2  A    between atoms: C14_16  and  C15_17 
REMARK    3  A    between atoms: C15_17  and  C16_18 
REMARK    4  A    between atoms: C16_18  and  C17_19 
REMARK    5  A    between atoms: C19_21  and  O2_22 
REMARK    6  A    between atoms: O2_22  and  C20_23 
REMARK    7  A    between atoms: C20_23  and  C21_24 
REMARK    8  A    between atoms: C21_24  and  C22_25 
REMARK    9  A    between atoms: C21_24  and  C28_34 
REMARK   10  A    between atoms: C22_25  and  C23_26 
REMARK   11  A    between atoms: C23_26  and  C24_27 
REMARK   12  A    between atoms: C26_30  and  O4_31 
REMARK   13  A    between atoms: C28_34  and  O5_35 
REMARK   14  A    between atoms: O5_35  and  C29_36 
REMARK   15  A    between atoms: C32_40  and  O7_41 
ROOT
HETATM    1  C17 UNL     1      27.480   3.190   0.363  1.00  0.00     0.065 C 
HETATM    2  C18 UNL     1      27.308   4.270  -0.622  1.00  0.00     0.049 C 
HETATM    3  C19 UNL     1      26.140   4.243  -1.452  1.00  0.00     0.125 C 
HETATM    4  C31 UNL     1      25.407   2.930  -1.607  1.00  0.00     0.064 C 
HETATM    5  C32 UNL     1      25.489   1.987  -0.474  1.00  0.00     0.125 C 
HETATM    6  C33 UNL     1      26.067   2.600   0.745  1.00  0.00     0.025 C 
HETATM    7  C34 UNL     1      25.316   3.721   1.386  1.00  0.00     0.014 C 
ENDROOT
BRANCH   1   8
HETATM    8  C16 UNL     1      28.417   2.867   1.081  1.00  0.00    -0.150 C 
BRANCH   8   9
HETATM    9  C15 UNL     1      29.548   2.578   1.918  1.00  0.00     0.059 C 
BRANCH   9  10
HETATM   10  C14 UNL     1      30.733   3.241   1.890  1.00  0.00    -0.037 C 
HETATM   11  C2  UNL     1      30.759   4.684   1.799  1.00  0.00    -0.060 C 
HETATM   12  C1  UNL     1      30.082   5.408   2.702  1.00  0.00     0.019 C 
HETATM   13  C3  UNL     1      31.652   5.322   0.820  1.00  0.00     0.039 C 
HETATM   14  C4  UNL     1      32.209   4.136  -0.001  1.00  0.00     0.011 C 
HETATM   15  C5  UNL     1      33.001   3.322   1.038  1.00  0.00     0.009 C 
HETATM   16  C6  UNL     1      32.024   2.502   1.852  1.00  0.00    -0.011 C 
HETATM   17  C11 UNL     1      34.130   2.532   0.479  1.00  0.00    -0.017 C 
HETATM   18  C7  UNL     1      32.527   2.389   3.271  1.00  0.00     0.021 C 
HETATM   19  C8  UNL     1      31.766   1.155   1.294  1.00  0.00     0.017 C 
HETATM   20  C9  UNL     1      32.969   0.388   0.812  1.00  0.00     0.033 C 
HETATM   21  C10 UNL     1      33.713   1.218  -0.166  1.00  0.00     0.126 C 
HETATM   22  C12 UNL     1      35.243   2.241   1.466  1.00  0.00     0.018 C 
HETATM   23  C13 UNL     1      34.839   3.345  -0.636  1.00  0.00     0.018 C 
BRANCH  21  24
HETATM   24  O1  UNL     1      32.844   1.553  -1.199  1.00  0.00    -0.395 OA
ATOM     25  H1  UNL     1      33.337   1.557  -2.011  1.00  0.00     0.210 HD
ENDBRANCH  21  24
ENDBRANCH   9  10
ENDBRANCH   8   9
ENDBRANCH   1   8
BRANCH   3  26
HETATM   26  O2  UNL     1      26.296   4.728  -2.795  1.00  0.00    -0.385 OA
BRANCH  26  27
HETATM   27  C20 UNL     1      27.729   4.838  -2.959  1.00  0.00     0.175 C 
BRANCH  27  28
HETATM   28  C21 UNL     1      28.204   3.801  -3.864  1.00  0.00     0.044 C 
BRANCH  28  29
HETATM   29  C22 UNL     1      29.376   4.261  -4.773  1.00  0.00     0.094 C 
BRANCH  29  30
HETATM   30  C23 UNL     1      30.486   3.869  -4.678  1.00  0.00    -0.146 C 
BRANCH  30  31
HETATM   31  C24 UNL     1      31.817   3.260  -4.453  1.00  0.00     0.011 A 
HETATM   32  C25 UNL     1      31.908   1.811  -4.485  1.00  0.00     0.224 A 
HETATM   33  O3  UNL     1      33.151   1.550  -4.365  1.00  0.00    -0.326 OA
HETATM   34  C26 UNL     1      33.892   2.563  -4.260  1.00  0.00     0.179 A 
HETATM   35  C27 UNL     1      33.052   3.686  -4.309  1.00  0.00     0.081 A 
BRANCH  34  36
HETATM   36  O4  UNL     1      35.267   2.656  -4.108  1.00  0.00    -0.341 OA
ATOM     37  H4  UNL     1      35.812   3.404  -3.894  1.00  0.00     0.220 HD
ENDBRANCH  34  36
ENDBRANCH  30  31
ENDBRANCH  29  30
ENDBRANCH  28  29
BRANCH  28  38
HETATM   38  C28 UNL     1      27.081   3.677  -5.003  1.00  0.00     0.186 C 
BRANCH  38  39
HETATM   39  O5  UNL     1      27.197   2.332  -5.373  1.00  0.00    -0.321 OA
BRANCH  39  40
HETATM   40  C29 UNL     1      27.183   1.190  -4.642  1.00  0.00     0.254 C 
HETATM   41  C30 UNL     1      28.423   0.323  -4.557  1.00  0.00     0.126 C 
HETATM   42  O6  UNL     1      26.154   0.876  -4.037  1.00  0.00    -0.266 OA
ENDBRANCH  39  40
ENDBRANCH  38  39
ENDBRANCH  28  38
ENDBRANCH  27  28
ENDBRANCH  26  27
ENDBRANCH   3  26
BRANCH   5  43
HETATM   43  O7  UNL     1      26.138   0.830  -0.788  1.00  0.00    -0.395 OA
ATOM     44  H7  UNL     1      25.547   0.128  -1.033  1.00  0.00     0.210 HD
ENDBRANCH   5  43
TORSDOF 15
ENDMDL
MODEL 5
REMARK VINA RESULT: -6.906489972      2.211      3.491
REMARK  15 active torsions:
REMARK  status: ('A' for Active; 'I' for Inactive)
REMARK    1  A    between atoms: C10_10  and  O1_11 
REMARK    2  A    between atoms: C14_16  and  C15_17 
REMARK    3  A    between atoms: C15_17  and  C16_18 
REMARK    4  A    between atoms: C16_18  and  C17_19 
REMARK    5  A    between atoms: C19_21  and  O2_22 
REMARK    6  A    between atoms: O2_22  and  C20_23 
REMARK    7  A    between atoms: C20_23  and  C21_24 
REMARK    8  A    between atoms: C21_24  and  C22_25 
REMARK    9  A    between atoms: C21_24  and  C28_34 
REMARK   10  A    between atoms: C22_25  and  C23_26 
REMARK   11  A    between atoms: C23_26  and  C24_27 
REMARK   12  A    between atoms: C26_30  and  O4_31 
REMARK   13  A    between atoms: C28_34  and  O5_35 
REMARK   14  A    between atoms: O5_35  and  C29_36 
REMARK   15  A    between atoms: C32_40  and  O7_41 
ROOT
HETATM    1  C17 UNL     1      27.626   3.169   0.282  1.00  0.00     0.065 C 
HETATM    2  C18 UNL     1      27.463   4.319  -0.623  1.00  0.00     0.049 C 
HETATM    3  C19 UNL     1      26.370   4.295  -1.551  1.00  0.00     0.125 C 
HETATM    4  C31 UNL     1      25.742   2.960  -1.876  1.00  0.00     0.064 C 
HETATM    5  C32 UNL     1      25.793   1.928  -0.821  1.00  0.00     0.125 C 
HETATM    6  C33 UNL     1      26.228   2.465   0.489  1.00  0.00     0.025 C 
HETATM    7  C34 UNL     1      25.355   3.479   1.153  1.00  0.00     0.014 C 
ENDROOT
BRANCH   1   8
HETATM    8  C16 UNL     1      28.521   2.841   1.049  1.00  0.00    -0.150 C 
BRANCH   8   9
HETATM    9  C15 UNL     1      29.624   2.525   1.912  1.00  0.00     0.059 C 
BRANCH   9  10
HETATM   10  C14 UNL     1      30.834   3.144   1.894  1.00  0.00    -0.037 C 
HETATM   11  C2  UNL     1      30.914   4.586   1.835  1.00  0.00    -0.060 C 
HETATM   12  C1  UNL     1      30.266   5.315   2.756  1.00  0.00     0.019 C 
HETATM   13  C3  UNL     1      31.827   5.212   0.867  1.00  0.00     0.039 C 
HETATM   14  C4  UNL     1      32.338   4.024   0.019  1.00  0.00     0.011 C 
HETATM   15  C5  UNL     1      33.101   3.158   1.037  1.00  0.00     0.009 C 
HETATM   16  C6  UNL     1      32.096   2.358   1.836  1.00  0.00    -0.011 C 
HETATM   17  C11 UNL     1      34.199   2.339   0.458  1.00  0.00    -0.017 C 
HETATM   18  C7  UNL     1      32.598   2.195   3.251  1.00  0.00     0.021 C 
HETATM   19  C8  UNL     1      31.786   1.034   1.250  1.00  0.00     0.017 C 
HETATM   20  C9  UNL     1      32.959   0.234   0.748  1.00  0.00     0.033 C 
HETATM   21  C10 UNL     1      33.731   1.057  -0.215  1.00  0.00     0.126 C 
HETATM   22  C12 UNL     1      35.302   1.985   1.434  1.00  0.00     0.018 C 
HETATM   23  C13 UNL     1      34.935   3.150  -0.641  1.00  0.00     0.018 C 
BRANCH  21  24
HETATM   24  O1  UNL     1      32.873   1.446  -1.238  1.00  0.00    -0.395 OA
ATOM     25  H1  UNL     1      32.899   0.781  -1.915  1.00  0.00     0.210 HD
ENDBRANCH  21  24
ENDBRANCH   9  10
ENDBRANCH   8   9
ENDBRANCH   1   8
BRANCH   3  26
HETATM   26  O2  UNL     1      26.603   4.904  -2.830  1.00  0.00    -0.385 OA
BRANCH  26  27
HETATM   27  C20 UNL     1      27.651   5.867  -2.571  1.00  0.00     0.175 C 
BRANCH  27  28
HETATM   28  C21 UNL     1      28.656   5.799  -3.622  1.00  0.00     0.044 C 
BRANCH  28  29
HETATM   29  C22 UNL     1      29.781   4.768  -3.338  1.00  0.00     0.094 C 
BRANCH  29  30
HETATM   30  C23 UNL     1      29.630   3.597  -3.343  1.00  0.00    -0.146 C 
BRANCH  30  31
HETATM   31  C24 UNL     1      29.286   2.158  -3.280  1.00  0.00     0.011 A 
HETATM   32  C25 UNL     1      28.186   1.692  -4.106  1.00  0.00     0.224 A 
HETATM   33  O3  UNL     1      28.160   0.426  -3.948  1.00  0.00    -0.326 OA
HETATM   34  C26 UNL     1      29.041  -0.023  -3.168  1.00  0.00     0.179 A 
HETATM   35  C27 UNL     1      29.782   1.080  -2.717  1.00  0.00     0.081 A 
BRANCH  34  36
HETATM   36  O4  UNL     1      29.300  -1.323  -2.762  1.00  0.00    -0.341 OA
ATOM     37  H4  UNL     1      30.091  -1.709  -2.405  1.00  0.00     0.220 HD
ENDBRANCH  34  36
ENDBRANCH  30  31
ENDBRANCH  29  30
ENDBRANCH  28  29
BRANCH  28  38
HETATM   38  C28 UNL     1      29.535   7.131  -3.462  1.00  0.00     0.186 C 
BRANCH  38  39
HETATM   39  O5  UNL     1      30.086   6.959  -2.187  1.00  0.00    -0.321 OA
BRANCH  39  40
HETATM   40  C29 UNL     1      30.293   7.829  -1.168  1.00  0.00     0.254 C 
HETATM   41  C30 UNL     1      29.355   7.849   0.022  1.00  0.00     0.126 C 
HETATM   42  O6  UNL     1      31.263   8.592  -1.217  1.00  0.00    -0.266 OA
ENDBRANCH  39  40
ENDBRANCH  38  39
ENDBRANCH  28  38
ENDBRANCH  27  28
ENDBRANCH  26  27
ENDBRANCH   3  26
BRANCH   5  43
HETATM   43  O7  UNL     1      26.541   0.843  -1.171  1.00  0.00    -0.395 OA
ATOM     44  H7  UNL     1      26.482   0.133  -0.544  1.00  0.00     0.210 HD
ENDBRANCH   5  43
TORSDOF 15
ENDMDL
