MODEL 1
REMARK VINA RESULT: -7.858198347      0.000      0.000
REMARK  2 active torsions:
REMARK  status: ('A' for Active; 'I' for Inactive)
REMARK    1  A    between atoms: C3_4  and  C4_5 
REMARK    2  A    between atoms: C8_14  and  C9_15 
ROOT
HETATM    1  N1  UNL     1       5.608  -7.022  -9.611  1.00  0.00    -0.191 NA
HETATM    2  C1  UNL     1       4.723  -6.451 -10.159  1.00  0.00     0.101 C 
HETATM    3  C2  UNL     1       3.657  -5.706 -10.848  1.00  0.00     0.070 A 
HETATM    4  C3  UNL     1       2.700  -6.339 -11.581  1.00  0.00     0.038 A 
HETATM    5  S1  UNL     1       1.794  -4.987 -12.205  1.00  0.00    -0.092 SA
HETATM    6  C10 UNL     1       2.664  -3.714 -11.510  1.00  0.00    -0.009 A 
HETATM    7  C11 UNL     1       3.640  -4.361 -10.808  1.00  0.00    -0.023 A 
HETATM    8  C12 UNL     1       4.713  -3.687  -9.983  1.00  0.00     0.041 C 
HETATM    9  C13 UNL     1       5.105  -2.353 -10.517  1.00  0.00     0.005 C 
HETATM   10  C14 UNL     1       4.340  -1.206  -9.948  1.00  0.00     0.000 C 
HETATM   11  C15 UNL     1       2.947  -1.526  -9.516  1.00  0.00     0.000 C 
HETATM   12  C16 UNL     1       1.937  -1.492 -10.608  1.00  0.00     0.005 C 
HETATM   13  C17 UNL     1       2.210  -2.332 -11.799  1.00  0.00     0.046 C 
ENDROOT
BRANCH   4  14
HETATM   14  C4  UNL     1       2.422  -7.747 -11.902  1.00  0.00     0.007 A 
HETATM   15  C5  UNL     1       1.510  -8.504 -11.208  1.00  0.00     0.103 A 
HETATM   16  N2  UNL     1       1.284  -9.833 -11.440  1.00  0.00    -0.352 N 
HETATM   17  C6  UNL     1       1.962 -10.461 -12.381  1.00  0.00     0.099 A 
ATOM     18  H2  UNL     1       0.592 -10.338 -10.887  1.00  0.00     0.166 HD
HETATM   19  N3  UNL     1       1.726 -11.729 -12.579  1.00  0.00    -0.385 N 
HETATM   20  C7  UNL     1       2.881  -9.793 -13.116  1.00  0.00     0.058 A 
ATOM     21  H32 UNL     1       1.034 -12.232 -12.025  1.00  0.00     0.157 HD
ATOM     22  H31 UNL     1       2.251 -12.215 -13.307  1.00  0.00     0.157 HD
HETATM   23  C8  UNL     1       3.120  -8.425 -12.882  1.00  0.00    -0.013 A 
BRANCH  23  24
HETATM   24  C9  UNL     1       4.137  -7.756 -13.707  1.00  0.00     0.262 C 
HETATM   25  F1  UNL     1       5.410  -7.941 -13.095  1.00  0.00    -0.251 F 
ENDBRANCH  23  24
ENDBRANCH   4  14
TORSDOF 2
ENDMDL
MODEL 2
REMARK VINA RESULT: -7.497080918      2.207      3.105
REMARK  2 active torsions:
REMARK  status: ('A' for Active; 'I' for Inactive)
REMARK    1  A    between atoms: C3_4  and  C4_5 
REMARK    2  A    between atoms: C8_14  and  C9_15 
ROOT
HETATM    1  N1  UNL     1       0.931  -6.327 -11.999  1.00  0.00    -0.191 NA
HETATM    2  C1  UNL     1       1.955  -5.781 -11.750  1.00  0.00     0.101 C 
HETATM    3  C2  UNL     1       3.201  -5.072 -11.414  1.00  0.00     0.070 A 
HETATM    4  C3  UNL     1       4.369  -5.738 -11.202  1.00  0.00     0.038 A 
HETATM    5  S1  UNL     1       5.438  -4.430 -10.775  1.00  0.00    -0.092 SA
HETATM    6  C10 UNL     1       4.362  -3.131 -10.892  1.00  0.00    -0.009 A 
HETATM    7  C11 UNL     1       3.195  -3.736 -11.258  1.00  0.00    -0.023 A 
HETATM    8  C12 UNL     1       1.884  -3.024 -11.504  1.00  0.00     0.041 C 
HETATM    9  C13 UNL     1       1.720  -1.801 -10.669  1.00  0.00     0.005 C 
HETATM   10  C14 UNL     1       2.202  -0.542 -11.309  1.00  0.00     0.000 C 
HETATM   11  C15 UNL     1       3.324  -0.716 -12.280  1.00  0.00     0.000 C 
HETATM   12  C16 UNL     1       4.676  -0.767 -11.660  1.00  0.00     0.005 C 
HETATM   13  C17 UNL     1       4.886  -1.775 -10.595  1.00  0.00     0.046 C 
ENDROOT
BRANCH   4  14
HETATM   14  C4  UNL     1       4.756  -7.157 -11.223  1.00  0.00     0.007 A 
HETATM   15  C5  UNL     1       5.034  -7.870 -10.083  1.00  0.00     0.103 A 
HETATM   16  N2  UNL     1       5.463  -9.169 -10.078  1.00  0.00    -0.352 N 
HETATM   17  C6  UNL     1       5.630  -9.811 -11.218  1.00  0.00     0.099 A 
ATOM     18  H2  UNL     1       5.654  -9.641  -9.194  1.00  0.00     0.166 HD
HETATM   19  N3  UNL     1       6.041 -11.049 -11.182  1.00  0.00    -0.385 N 
HETATM   20  C7  UNL     1       5.378  -9.186 -12.392  1.00  0.00     0.058 A 
ATOM     21  H32 UNL     1       6.231 -11.520 -10.298  1.00  0.00     0.157 HD
ATOM     22  H31 UNL     1       6.171 -11.546 -12.064  1.00  0.00     0.157 HD
HETATM   23  C8  UNL     1       4.937  -7.850 -12.404  1.00  0.00    -0.013 A 
BRANCH  23  24
HETATM   24  C9  UNL     1       4.688  -7.223 -13.711  1.00  0.00     0.262 C 
HETATM   25  F1  UNL     1       3.372  -7.567 -14.135  1.00  0.00    -0.251 F 
ENDBRANCH  23  24
ENDBRANCH   4  14
TORSDOF 2
ENDMDL
MODEL 3
REMARK VINA RESULT: -7.442931541      1.608      2.039
REMARK  2 active torsions:
REMARK  status: ('A' for Active; 'I' for Inactive)
REMARK    1  A    between atoms: C3_4  and  C4_5 
REMARK    2  A    between atoms: C8_14  and  C9_15 
ROOT
HETATM    1  N1  UNL     1       5.562  -6.592  -9.515  1.00  0.00    -0.191 NA
HETATM    2  C1  UNL     1       4.652  -6.117 -10.112  1.00  0.00     0.101 C 
HETATM    3  C2  UNL     1       3.551  -5.491 -10.862  1.00  0.00     0.070 A 
HETATM    4  C3  UNL     1       2.681  -6.228 -11.605  1.00  0.00     0.038 A 
HETATM    5  S1  UNL     1       1.685  -4.981 -12.306  1.00  0.00    -0.092 SA
HETATM    6  C10 UNL     1       2.413  -3.617 -11.624  1.00  0.00    -0.009 A 
HETATM    7  C11 UNL     1       3.415  -4.153 -10.868  1.00  0.00    -0.023 A 
HETATM    8  C12 UNL     1       4.394  -3.361 -10.030  1.00  0.00     0.041 C 
HETATM    9  C13 UNL     1       4.688  -2.015 -10.595  1.00  0.00     0.005 C 
HETATM   10  C14 UNL     1       3.805  -0.923 -10.091  1.00  0.00     0.000 C 
HETATM   11  C15 UNL     1       2.430  -1.352  -9.697  1.00  0.00     0.000 C 
HETATM   12  C16 UNL     1       1.463  -1.441 -10.824  1.00  0.00     0.005 C 
HETATM   13  C17 UNL     1       1.852  -2.289 -11.975  1.00  0.00     0.046 C 
ENDROOT
BRANCH   4  14
HETATM   14  C4  UNL     1       2.540  -7.665 -11.889  1.00  0.00     0.007 A 
HETATM   15  C5  UNL     1       3.449  -8.369 -12.639  1.00  0.00     0.103 A 
HETATM   16  N2  UNL     1       3.306  -9.687 -12.976  1.00  0.00    -0.352 N 
HETATM   17  C6  UNL     1       2.245 -10.357 -12.573  1.00  0.00     0.099 A 
ATOM     18  H2  UNL     1       4.020 -10.152 -13.538  1.00  0.00     0.166 HD
HETATM   19  N3  UNL     1       2.135 -11.614 -12.910  1.00  0.00    -0.385 N 
HETATM   20  C7  UNL     1       1.296  -9.743 -11.827  1.00  0.00     0.058 A 
ATOM     21  H32 UNL     1       2.849 -12.076 -13.472  1.00  0.00     0.157 HD
ATOM     22  H31 UNL     1       1.313 -12.132 -12.598  1.00  0.00     0.157 HD
HETATM   23  C8  UNL     1       1.437  -8.387 -11.477  1.00  0.00    -0.013 A 
BRANCH  23  24
HETATM   24  C9  UNL     1       0.370  -7.773 -10.673  1.00  0.00     0.262 C 
HETATM   25  F1  UNL     1      -0.855  -8.444 -10.958  1.00  0.00    -0.251 F 
ENDBRANCH  23  24
ENDBRANCH   4  14
TORSDOF 2
ENDMDL
MODEL 4
REMARK VINA RESULT: -7.434513242      1.660      2.612
REMARK  2 active torsions:
REMARK  status: ('A' for Active; 'I' for Inactive)
REMARK    1  A    between atoms: C3_4  and  C4_5 
REMARK    2  A    between atoms: C8_14  and  C9_15 
ROOT
HETATM    1  N1  UNL     1       0.127  -4.596 -13.423  1.00  0.00    -0.191 NA
HETATM    2  C1  UNL     1       1.103  -4.653 -12.749  1.00  0.00     0.101 C 
HETATM    3  C2  UNL     1       2.295  -4.687 -11.887  1.00  0.00     0.070 A 
HETATM    4  C3  UNL     1       2.910  -5.858 -11.562  1.00  0.00     0.038 A 
HETATM    5  S1  UNL     1       4.166  -5.300 -10.489  1.00  0.00    -0.092 SA
HETATM    6  C10 UNL     1       3.849  -3.639 -10.516  1.00  0.00    -0.009 A 
HETATM    7  C11 UNL     1       2.775  -3.549 -11.354  1.00  0.00    -0.023 A 
HETATM    8  C12 UNL     1       2.074  -2.265 -11.737  1.00  0.00     0.041 C 
HETATM    9  C13 UNL     1       2.117  -1.235 -10.662  1.00  0.00     0.005 C 
HETATM   10  C14 UNL     1       3.275  -0.298 -10.744  1.00  0.00     0.000 C 
HETATM   11  C15 UNL     1       4.507  -0.868 -11.369  1.00  0.00     0.000 C 
HETATM   12  C16 UNL     1       5.368  -1.648 -10.440  1.00  0.00     0.005 C 
HETATM   13  C17 UNL     1       4.722  -2.759  -9.702  1.00  0.00     0.046 C 
ENDROOT
BRANCH   4  14
HETATM   14  C4  UNL     1       2.660  -7.270 -11.888  1.00  0.00     0.007 A 
HETATM   15  C5  UNL     1       1.725  -8.031 -11.231  1.00  0.00     0.103 A 
HETATM   16  N2  UNL     1       1.521  -9.364 -11.466  1.00  0.00    -0.352 N 
HETATM   17  C6  UNL     1       2.245  -9.990 -12.372  1.00  0.00     0.099 A 
ATOM     18  H2  UNL     1       0.809  -9.872 -10.941  1.00  0.00     0.166 HD
HETATM   19  N3  UNL     1       2.028 -11.261 -12.575  1.00  0.00    -0.385 N 
HETATM   20  C7  UNL     1       3.189  -9.317 -13.071  1.00  0.00     0.058 A 
ATOM     21  H32 UNL     1       1.317 -11.768 -12.049  1.00  0.00     0.157 HD
ATOM     22  H31 UNL     1       2.589 -11.746 -13.276  1.00  0.00     0.157 HD
HETATM   23  C8  UNL     1       3.405  -7.946 -12.833  1.00  0.00    -0.013 A 
BRANCH  23  24
HETATM   24  C9  UNL     1       4.452  -7.272 -13.616  1.00  0.00     0.262 C 
HETATM   25  F1  UNL     1       4.714  -8.047 -14.783  1.00  0.00    -0.251 F 
ENDBRANCH  23  24
ENDBRANCH   4  14
TORSDOF 2
ENDMDL
MODEL 5
REMARK VINA RESULT: -7.410105557      2.407      3.324
REMARK  2 active torsions:
REMARK  status: ('A' for Active; 'I' for Inactive)
REMARK    1  A    between atoms: C3_4  and  C4_5 
REMARK    2  A    between atoms: C8_14  and  C9_15 
ROOT
HETATM    1  N1  UNL     1       0.789  -5.925 -12.397  1.00  0.00    -0.191 NA
HETATM    2  C1  UNL     1       1.833  -5.470 -12.063  1.00  0.00     0.101 C 
HETATM    3  C2  UNL     1       3.104  -4.874 -11.621  1.00  0.00     0.070 A 
HETATM    4  C3  UNL     1       4.224  -5.627 -11.442  1.00  0.00     0.038 A 
HETATM    5  S1  UNL     1       5.350  -4.434 -10.853  1.00  0.00    -0.092 SA
HETATM    6  C10 UNL     1       4.355  -3.068 -10.871  1.00  0.00    -0.009 A 
HETATM    7  C11 UNL     1       3.169  -3.562 -11.331  1.00  0.00    -0.023 A 
HETATM    8  C12 UNL     1       1.910  -2.750 -11.544  1.00  0.00     0.041 C 
HETATM    9  C13 UNL     1       1.787  -1.608 -10.596  1.00  0.00     0.005 C 
HETATM   10  C14 UNL     1       2.363  -0.324 -11.092  1.00  0.00     0.000 C 
HETATM   11  C15 UNL     1       3.507  -0.469 -12.040  1.00  0.00     0.000 C 
HETATM   12  C16 UNL     1       4.831  -0.663 -11.389  1.00  0.00     0.005 C 
HETATM   13  C17 UNL     1       4.944  -1.782 -10.424  1.00  0.00     0.046 C 
ENDROOT
BRANCH   4  14
HETATM   14  C4  UNL     1       4.529  -7.058 -11.593  1.00  0.00     0.007 A 
HETATM   15  C5  UNL     1       4.832  -7.631 -12.804  1.00  0.00     0.103 A 
HETATM   16  N2  UNL     1       5.051  -8.970 -12.983  1.00  0.00    -0.352 N 
HETATM   17  C6  UNL     1       4.976  -9.792 -11.956  1.00  0.00     0.099 A 
ATOM     18  H2  UNL     1       5.271  -9.331 -13.912  1.00  0.00     0.166 HD
HETATM   19  N3  UNL     1       5.189 -11.064 -12.158  1.00  0.00    -0.385 N 
HETATM   20  C7  UNL     1       4.684  -9.314 -10.723  1.00  0.00     0.058 A 
ATOM     21  H32 UNL     1       5.409 -11.424 -13.086  1.00  0.00     0.157 HD
ATOM     22  H31 UNL     1       5.131 -11.701 -11.362  1.00  0.00     0.157 HD
HETATM   23  C8  UNL     1       4.457  -7.938 -10.531  1.00  0.00    -0.013 A 
BRANCH  23  24
HETATM   24  C9  UNL     1       4.135  -7.481  -9.171  1.00  0.00     0.262 C 
HETATM   25  F1  UNL     1       5.347  -7.113  -8.518  1.00  0.00    -0.251 F 
ENDBRANCH  23  24
ENDBRANCH   4  14
TORSDOF 2
ENDMDL
