MODEL 1
REMARK VINA RESULT: -8.623486223      0.000      0.000
REMARK  3 active torsions:
REMARK  status: ('A' for Active; 'I' for Inactive)
REMARK    1  A    between atoms: C2_5  and  N2_6 
REMARK    2  A    between atoms: N2_6  and  N3_8 
REMARK    3  A    between atoms: C11_21  and  C12_22 
ROOT
HETATM    1  S1  UNL     1      -2.659  -2.401 -16.032  1.00  0.00    -0.059 SA
HETATM    2  C1  UNL     1      -3.077  -1.706 -17.443  1.00  0.00     0.126 A 
HETATM    3  N1  UNL     1      -2.204  -1.639 -18.458  1.00  0.00    -0.180 N 
ATOM      4  H1  UNL     1      -1.270  -2.032 -18.341  1.00  0.00     0.185 HD
HETATM    5  C2  UNL     1      -2.539  -1.060 -19.629  1.00  0.00     0.699 A 
HETATM    6  N4  UNL     1      -3.766  -0.550 -19.764  1.00  0.00    -0.179 N 
ATOM      7  H4  UNL     1      -4.031  -0.110 -20.646  1.00  0.00     0.185 HD
HETATM    8  C10 UNL     1      -4.679  -0.606 -18.737  1.00  0.00     0.129 A 
HETATM    9 CL1  UNL     1      -6.231   0.120 -19.032  1.00  0.00    -0.063 Cl
HETATM   10  C11 UNL     1      -4.374  -1.181 -17.548  1.00  0.00     0.024 A 
ENDROOT
BRANCH   5  11
HETATM   11  N2  UNL     1      -1.665  -1.003 -20.609  1.00  0.00    -0.132 N 
ATOM     12  H2  UNL     1      -0.697  -1.292 -20.469  1.00  0.00     0.205 HD
BRANCH  11  13
HETATM   13  N3  UNL     1      -2.103  -0.538 -21.840  1.00  0.00    -0.295 N 
HETATM   14  C3  UNL     1      -1.860   0.616 -22.310  1.00  0.00     0.004 C 
HETATM   15  C4  UNL     1      -2.440   0.877 -23.648  1.00  0.00     0.054 C 
HETATM   16  C9  UNL     1      -1.053   1.483 -21.459  1.00  0.00     0.054 C 
HETATM   17  C5  UNL     1      -3.701   1.707 -23.461  1.00  0.00     0.006 C 
HETATM   18  C6  UNL     1      -3.291   3.105 -23.099  1.00  0.00     0.000 C 
HETATM   19  C7  UNL     1      -2.978   3.108 -21.606  1.00  0.00     0.000 C 
HETATM   20  C8  UNL     1      -1.492   2.927 -21.442  1.00  0.00     0.006 C 
ATOM     21  H3  UNL     1      -2.664  -1.171 -22.411  1.00  0.00     0.186 HD
ENDBRANCH  11  13
ENDBRANCH   5  11
BRANCH  10  22
HETATM   22  C12 UNL     1      -5.287  -1.252 -16.406  1.00  0.00     0.025 A 
HETATM   23  C13 UNL     1      -5.288  -0.386 -15.240  1.00  0.00     0.010 A 
HETATM   24  C14 UNL     1      -6.497  -0.457 -16.231  1.00  0.00     0.010 A 
ENDBRANCH  10  22
TORSDOF 3
ENDMDL
MODEL 2
REMARK VINA RESULT: -8.342579158      1.152      2.063
REMARK  3 active torsions:
REMARK  status: ('A' for Active; 'I' for Inactive)
REMARK    1  A    between atoms: C2_5  and  N2_6 
REMARK    2  A    between atoms: N2_6  and  N3_8 
REMARK    3  A    between atoms: C11_21  and  C12_22 
ROOT
HETATM    1  S1  UNL     1      -2.557  -2.489 -16.759  1.00  0.00    -0.059 SA
HETATM    2  C1  UNL     1      -3.195  -1.757 -18.066  1.00  0.00     0.126 A 
HETATM    3  N1  UNL     1      -2.504  -1.682 -19.212  1.00  0.00    -0.180 N 
ATOM      4  H1  UNL     1      -1.571  -2.091 -19.263  1.00  0.00     0.185 HD
HETATM    5  C2  UNL     1      -3.020  -1.074 -20.300  1.00  0.00     0.699 A 
HETATM    6  N4  UNL     1      -4.243  -0.543 -20.217  1.00  0.00    -0.179 N 
ATOM      7  H4  UNL     1      -4.645  -0.081 -21.033  1.00  0.00     0.185 HD
HETATM    8  C10 UNL     1      -4.971  -0.607 -19.052  1.00  0.00     0.129 A 
HETATM    9 CL1  UNL     1      -6.538   0.147 -19.067  1.00  0.00    -0.063 Cl
HETATM   10  C11 UNL     1      -4.481  -1.212 -17.942  1.00  0.00     0.024 A 
ENDROOT
BRANCH   5  11
HETATM   11  N2  UNL     1      -2.324  -1.009 -21.412  1.00  0.00    -0.132 N 
ATOM     12  H2  UNL     1      -2.422  -1.719 -22.138  1.00  0.00     0.205 HD
BRANCH  11  13
HETATM   13  N3  UNL     1      -1.449   0.057 -21.566  1.00  0.00    -0.295 N 
HETATM   14  C3  UNL     1      -1.581   0.988 -22.418  1.00  0.00     0.004 C 
HETATM   15  C4  UNL     1      -0.513   2.015 -22.388  1.00  0.00     0.054 C 
HETATM   16  C9  UNL     1      -2.756   0.892 -23.278  1.00  0.00     0.054 C 
HETATM   17  C5  UNL     1       0.458   1.718 -23.521  1.00  0.00     0.006 C 
HETATM   18  C6  UNL     1      -0.203   2.097 -24.814  1.00  0.00     0.000 C 
HETATM   19  C7  UNL     1      -1.124   0.944 -25.202  1.00  0.00     0.000 C 
HETATM   20  C8  UNL     1      -2.511   1.274 -24.716  1.00  0.00     0.006 C 
ATOM     21  H3  UNL     1      -0.639   0.094 -20.948  1.00  0.00     0.186 HD
ENDBRANCH  11  13
ENDBRANCH   5  11
BRANCH  10  22
HETATM   22  C12 UNL     1      -5.190  -1.294 -16.663  1.00  0.00     0.025 A 
HETATM   23  C13 UNL     1      -4.959  -0.471 -15.488  1.00  0.00     0.010 A 
HETATM   24  C14 UNL     1      -6.321  -0.464 -16.261  1.00  0.00     0.010 A 
ENDBRANCH  10  22
TORSDOF 3
ENDMDL
MODEL 3
REMARK VINA RESULT: -8.034270062      1.681      1.975
REMARK  3 active torsions:
REMARK  status: ('A' for Active; 'I' for Inactive)
REMARK    1  A    between atoms: C2_5  and  N2_6 
REMARK    2  A    between atoms: N2_6  and  N3_8 
REMARK    3  A    between atoms: C11_21  and  C12_22 
ROOT
HETATM    1  S1  UNL     1      -6.258  -0.066 -18.977  1.00  0.00    -0.059 SA
HETATM    2  C1  UNL     1      -4.746  -0.632 -18.770  1.00  0.00     0.126 A 
HETATM    3  N1  UNL     1      -3.863  -0.611 -19.778  1.00  0.00    -0.180 N 
ATOM      4  H1  UNL     1      -4.144  -0.233 -20.682  1.00  0.00     0.185 HD
HETATM    5  C2  UNL     1      -2.609  -1.082 -19.618  1.00  0.00     0.699 A 
HETATM    6  N4  UNL     1      -2.257  -1.575 -18.428  1.00  0.00    -0.179 N 
ATOM      7  H4  UNL     1      -1.311  -1.933 -18.294  1.00  0.00     0.185 HD
HETATM    8  C10 UNL     1      -3.145  -1.608 -17.378  1.00  0.00     0.129 A 
HETATM    9 CL1  UNL     1      -2.570  -2.300 -15.890  1.00  0.00    -0.063 Cl
HETATM   10  C11 UNL     1      -4.411  -1.141 -17.506  1.00  0.00     0.024 A 
ENDROOT
BRANCH   5  11
HETATM   11  N2  UNL     1      -1.762  -1.054 -20.622  1.00  0.00    -0.132 N 
ATOM     12  H2  UNL     1      -0.802  -1.381 -20.510  1.00  0.00     0.205 HD
BRANCH  11  13
HETATM   13  N3  UNL     1      -2.215  -0.566 -21.838  1.00  0.00    -0.295 N 
HETATM   14  C3  UNL     1      -1.937   0.577 -22.313  1.00  0.00     0.004 C 
HETATM   15  C4  UNL     1      -2.544   0.868 -23.633  1.00  0.00     0.054 C 
HETATM   16  C9  UNL     1      -1.067   1.406 -21.485  1.00  0.00     0.054 C 
HETATM   17  C5  UNL     1      -3.762   1.751 -23.406  1.00  0.00     0.006 C 
HETATM   18  C6  UNL     1      -3.282   3.129 -23.054  1.00  0.00     0.000 C 
HETATM   19  C7  UNL     1      -2.924   3.113 -21.571  1.00  0.00     0.000 C 
HETATM   20  C8  UNL     1      -1.443   2.867 -21.453  1.00  0.00     0.006 C 
ATOM     21  H3  UNL     1      -2.820  -1.172 -22.393  1.00  0.00     0.186 HD
ENDBRANCH  11  13
ENDBRANCH   5  11
BRANCH  10  22
HETATM   22  C12 UNL     1      -5.415  -1.169 -16.440  1.00  0.00     0.025 A 
HETATM   23  C13 UNL     1      -5.331  -0.505 -15.151  1.00  0.00     0.010 A 
HETATM   24  C14 UNL     1      -6.435  -0.153 -16.204  1.00  0.00     0.010 A 
ENDBRANCH  10  22
TORSDOF 3
ENDMDL
MODEL 4
REMARK VINA RESULT: -7.770904218     11.059     12.877
REMARK  3 active torsions:
REMARK  status: ('A' for Active; 'I' for Inactive)
REMARK    1  A    between atoms: C2_5  and  N2_6 
REMARK    2  A    between atoms: N2_6  and  N3_8 
REMARK    3  A    between atoms: C11_21  and  C12_22 
ROOT
HETATM    1  S1  UNL     1       5.650  -9.328 -10.487  1.00  0.00    -0.059 SA
HETATM    2  C1  UNL     1       4.836  -7.945 -10.760  1.00  0.00     0.126 A 
HETATM    3  N1  UNL     1       5.453  -6.759 -10.664  1.00  0.00    -0.180 N 
ATOM      4  H1  UNL     1       6.443  -6.727 -10.420  1.00  0.00     0.185 HD
HETATM    5  C2  UNL     1       4.787  -5.606 -10.883  1.00  0.00     0.699 A 
HETATM    6  N4  UNL     1       3.491  -5.665 -11.201  1.00  0.00    -0.179 N 
ATOM      7  H4  UNL     1       2.977  -4.800 -11.369  1.00  0.00     0.185 HD
HETATM    8  C10 UNL     1       2.836  -6.870 -11.304  1.00  0.00     0.129 A 
HETATM    9 CL1  UNL     1       1.143  -6.808 -11.697  1.00  0.00    -0.063 Cl
HETATM   10  C11 UNL     1       3.477  -8.046 -11.091  1.00  0.00     0.024 A 
ENDROOT
BRANCH   5  11
HETATM   11  N2  UNL     1       5.411  -4.455 -10.780  1.00  0.00    -0.132 N 
ATOM     12  H2  UNL     1       6.205  -4.340 -10.150  1.00  0.00     0.205 HD
BRANCH  11  13
HETATM   13  N3  UNL     1       4.955  -3.400 -11.557  1.00  0.00    -0.295 N 
HETATM   14  C3  UNL     1       4.624  -2.258 -11.111  1.00  0.00     0.004 C 
HETATM   15  C4  UNL     1       4.167  -1.297 -12.142  1.00  0.00     0.054 C 
HETATM   16  C9  UNL     1       4.751  -2.086  -9.668  1.00  0.00     0.054 C 
HETATM   17  C5  UNL     1       2.647  -1.259 -12.108  1.00  0.00     0.006 C 
HETATM   18  C6  UNL     1       2.224  -0.510 -10.878  1.00  0.00     0.000 C 
HETATM   19  C7  UNL     1       2.300  -1.490  -9.710  1.00  0.00     0.000 C 
HETATM   20  C8  UNL     1       3.631  -1.302  -9.031  1.00  0.00     0.006 C 
ATOM     21  H3  UNL     1       4.880  -3.553 -12.563  1.00  0.00     0.186 HD
ENDBRANCH  11  13
ENDBRANCH   5  11
BRANCH  10  22
HETATM   22  C12 UNL     1       2.837  -9.361 -11.160  1.00  0.00     0.025 A 
HETATM   23  C13 UNL     1       1.415  -9.629 -11.291  1.00  0.00     0.010 A 
HETATM   24  C14 UNL     1       2.453 -10.059 -12.382  1.00  0.00     0.010 A 
ENDBRANCH  10  22
TORSDOF 3
ENDMDL
MODEL 5
REMARK VINA RESULT: -7.747707144     10.481     12.071
REMARK  3 active torsions:
REMARK  status: ('A' for Active; 'I' for Inactive)
REMARK    1  A    between atoms: C2_5  and  N2_6 
REMARK    2  A    between atoms: N2_6  and  N3_8 
REMARK    3  A    between atoms: C11_21  and  C12_22 
ROOT
HETATM    1  S1  UNL     1       4.395  -7.304 -12.795  1.00  0.00    -0.059 SA
HETATM    2  C1  UNL     1       2.927  -6.740 -12.374  1.00  0.00     0.126 A 
HETATM    3  N1  UNL     1       2.643  -5.434 -12.470  1.00  0.00    -0.180 N 
ATOM      4  H1  UNL     1       3.355  -4.790 -12.815  1.00  0.00     0.185 HD
HETATM    5  C2  UNL     1       1.432  -4.954 -12.119  1.00  0.00     0.699 A 
HETATM    6  N4  UNL     1       0.511  -5.810 -11.669  1.00  0.00    -0.179 N 
ATOM      7  H4  UNL     1      -0.409  -5.460 -11.401  1.00  0.00     0.185 HD
HETATM    8  C10 UNL     1       0.778  -7.155 -11.560  1.00  0.00     0.129 A 
HETATM    9 CL1  UNL     1      -0.498  -8.157 -10.935  1.00  0.00    -0.063 Cl
HETATM   10  C11 UNL     1       1.985  -7.668 -11.906  1.00  0.00     0.024 A 
ENDROOT
BRANCH   5  11
HETATM   11  N2  UNL     1       1.177  -3.670 -12.219  1.00  0.00    -0.132 N 
ATOM     12  H2  UNL     1       0.860  -3.262 -13.099  1.00  0.00     0.205 HD
BRANCH  11  13
HETATM   13  N3  UNL     1       1.353  -2.885 -11.089  1.00  0.00    -0.295 N 
HETATM   14  C3  UNL     1       2.126  -1.881 -11.013  1.00  0.00     0.004 C 
HETATM   15  C4  UNL     1       2.141  -1.205  -9.694  1.00  0.00     0.054 C 
HETATM   16  C9  UNL     1       2.862  -1.562 -12.231  1.00  0.00     0.054 C 
HETATM   17  C5  UNL     1       3.386  -1.659  -8.947  1.00  0.00     0.006 C 
HETATM   18  C6  UNL     1       4.576  -0.992  -9.572  1.00  0.00     0.000 C 
HETATM   19  C7  UNL     1       4.939  -1.798 -10.817  1.00  0.00     0.000 C 
HETATM   20  C8  UNL     1       4.291  -1.134 -12.004  1.00  0.00     0.006 C 
ATOM     21  H3  UNL     1       0.822  -3.135 -10.255  1.00  0.00     0.186 HD
ENDBRANCH  11  13
ENDBRANCH   5  11
BRANCH  10  22
HETATM   22  C12 UNL     1       2.345  -9.082 -11.792  1.00  0.00     0.025 A 
HETATM   23  C13 UNL     1       2.470  -9.850 -10.565  1.00  0.00     0.010 A 
HETATM   24  C14 UNL     1       1.408 -10.193 -11.664  1.00  0.00     0.010 A 
ENDBRANCH  10  22
TORSDOF 3
ENDMDL
