MODEL 1
REMARK VINA RESULT: -9.191704779      0.000      0.000
REMARK  14 active torsions:
REMARK  status: ('A' for Active; 'I' for Inactive)
REMARK    1  A    between atoms: C2_2  and  C3_4 
REMARK    2  A    between atoms: C3_4  and  C4_5 
REMARK    3  A    between atoms: C4_5  and  C5_6 
REMARK    4  A    between atoms: C5_6  and  C6_7 
REMARK    5  A    between atoms: C6_7  and  C7_8 
REMARK    6  A    between atoms: C7_8  and  C8_9 
REMARK    7  A    between atoms: C8_9  and  N1_10 
REMARK    8  A    between atoms: N2_14  and  C12_15 
REMARK    9  A    between atoms: C12_15  and  C13_16 
REMARK   10  A    between atoms: N4_24  and  C19_26 
REMARK   11  A    between atoms: C19_26  and  C20_27 
REMARK   12  A    between atoms: C20_27  and  C21_28 
REMARK   13  A    between atoms: C21_28  and  N5_29 
REMARK   14  A    between atoms: C29_43  and  O3_44 
ROOT
HETATM    1  C13 UNL     1      15.757  33.975  16.379  1.00  0.00     0.015 A 
HETATM    2  C14 UNL     1      14.847  34.099  17.376  1.00  0.00     0.017 A 
HETATM    3  C15 UNL     1      14.849  35.236  18.200  1.00  0.00     0.018 A 
HETATM    4  C16 UNL     1      15.753  36.263  18.046  1.00  0.00     0.039 A 
HETATM    5  C17 UNL     1      16.670  36.119  17.026  1.00  0.00     0.097 A 
HETATM    6  N3  UNL     1      17.564  37.141  16.874  1.00  0.00    -0.188 N 
ATOM      7  H3  UNL     1      18.267  37.092  16.136  1.00  0.00     0.184 HD
HETATM    8  C18 UNL     1      17.525  38.213  17.688  1.00  0.00     0.686 A 
HETATM    9  N4  UNL     1      18.346  39.191  17.565  1.00  0.00    -0.225 N 
ATOM     10  H4  UNL     1      18.243  39.960  18.226  1.00  0.00     0.177 HD
HETATM   11  N7  UNL     1      16.608  38.328  18.686  1.00  0.00    -0.140 N 
HETATM   12  C25 UNL     1      16.386  39.286  19.601  1.00  0.00     0.141 A 
HETATM   13  C26 UNL     1      15.308  38.911  20.406  1.00  0.00     0.023 A 
HETATM   14  C27 UNL     1      14.732  39.690  21.545  1.00  0.00     0.069 C 
HETATM   15  N8  UNL     1      14.922  37.715  19.925  1.00  0.00    -0.343 N 
ATOM     16  H8  UNL     1      14.150  37.160  20.294  1.00  0.00     0.167 HD
HETATM   17  C28 UNL     1      15.702  37.355  18.886  1.00  0.00     0.141 A 
HETATM   18  C29 UNL     1      16.689  35.013  16.205  1.00  0.00     0.105 A 
ENDROOT
BRANCH   1  19
HETATM   19  C12 UNL     1      15.782  32.822  15.472  1.00  0.00     0.104 C 
BRANCH  19  20
HETATM   20  N2  UNL     1      17.031  32.196  15.381  1.00  0.00    -0.364 N 
HETATM   21  C11 UNL     1      17.662  32.029  14.136  1.00  0.00     0.069 C 
HETATM   22  C10 UNL     1      17.625  30.622  13.625  1.00  0.00     0.089 C 
HETATM   23  C9  UNL     1      18.167  29.581  14.547  1.00  0.00     0.068 C 
HETATM   24  N1  UNL     1      19.109  29.962  15.500  1.00  0.00    -0.372 N 
HETATM   25  C31 UNL     1      18.987  31.149  16.226  1.00  0.00     0.083 C 
HETATM   26  C30 UNL     1      17.527  31.482  16.493  1.00  0.00     0.172 C 
BRANCH  24  27
HETATM   27  C8  UNL     1      20.460  29.670  15.123  1.00  0.00     0.127 C 
BRANCH  27  28
HETATM   28  C7  UNL     1      21.103  30.875  14.527  1.00  0.00     0.020 C 
BRANCH  28  29
HETATM   29  C6  UNL     1      21.997  30.491  13.383  1.00  0.00     0.002 C 
BRANCH  29  30
HETATM   30  C5  UNL     1      21.655  29.131  12.865  1.00  0.00     0.000 C 
BRANCH  30  31
HETATM   31  C4  UNL     1      22.943  28.404  12.522  1.00  0.00     0.007 C 
BRANCH  31  32
HETATM   32  C3  UNL     1      22.665  27.017  12.012  1.00  0.00     0.077 C 
BRANCH  32  33
HETATM   33  C2  UNL     1      23.945  26.315  11.721  1.00  0.00     0.123 C 
HETATM   34  C1  UNL     1      25.216  27.073  11.715  1.00  0.00     0.091 C 
HETATM   35  O1  UNL     1      23.938  25.137  11.494  1.00  0.00    -0.298 OA
ENDBRANCH  32  33
ENDBRANCH  31  32
ENDBRANCH  30  31
ENDBRANCH  29  30
ENDBRANCH  28  29
ENDBRANCH  27  28
ENDBRANCH  24  27
ENDBRANCH  19  20
ENDBRANCH   1  19
BRANCH  18  36
HETATM   36  O3  UNL     1      17.611  34.894  15.201  1.00  0.00    -0.357 OA
ATOM     37  H3  UNL     1      17.331  34.518  14.375  1.00  0.00     0.217 HD
ENDBRANCH  18  36
BRANCH   9  38
HETATM   38  C19 UNL     1      19.391  39.314  16.595  1.00  0.00     0.139 C 
BRANCH  38  39
HETATM   39  C20 UNL     1      20.715  39.142  17.356  1.00  0.00     0.040 C 
BRANCH  39  40
HETATM   40  C21 UNL     1      21.188  37.735  17.083  1.00  0.00     0.129 C 
BRANCH  40  41
HETATM   41  N5  UNL     1      20.879  36.821  18.138  1.00  0.00    -0.333 N 
HETATM   42  C22 UNL     1      21.133  37.051  19.545  1.00  0.00     0.147 C 
HETATM   43  C23 UNL     1      20.821  35.755  20.255  1.00  0.00     0.144 C 
HETATM   44  N6  UNL     1      20.016  35.014  19.328  1.00  0.00    -0.341 N 
HETATM   45  C24 UNL     1      20.284  35.550  18.036  1.00  0.00     0.318 C 
ATOM     46  H6  UNL     1      19.377  34.251  19.551  1.00  0.00     0.164 HD
HETATM   47  O2  UNL     1      20.008  34.935  16.968  1.00  0.00    -0.247 OA
ENDBRANCH  40  41
ENDBRANCH  39  40
ENDBRANCH  38  39
ENDBRANCH   9  38
TORSDOF 14
ENDMDL
MODEL 2
REMARK VINA RESULT: -8.981522373      2.188      3.797
REMARK  14 active torsions:
REMARK  status: ('A' for Active; 'I' for Inactive)
REMARK    1  A    between atoms: C2_2  and  C3_4 
REMARK    2  A    between atoms: C3_4  and  C4_5 
REMARK    3  A    between atoms: C4_5  and  C5_6 
REMARK    4  A    between atoms: C5_6  and  C6_7 
REMARK    5  A    between atoms: C6_7  and  C7_8 
REMARK    6  A    between atoms: C7_8  and  C8_9 
REMARK    7  A    between atoms: C8_9  and  N1_10 
REMARK    8  A    between atoms: N2_14  and  C12_15 
REMARK    9  A    between atoms: C12_15  and  C13_16 
REMARK   10  A    between atoms: N4_24  and  C19_26 
REMARK   11  A    between atoms: C19_26  and  C20_27 
REMARK   12  A    between atoms: C20_27  and  C21_28 
REMARK   13  A    between atoms: C21_28  and  N5_29 
REMARK   14  A    between atoms: C29_43  and  O3_44 
ROOT
HETATM    1  C13 UNL     1      16.935  31.543  15.880  1.00  0.00     0.015 A 
HETATM    2  C14 UNL     1      15.950  32.420  15.570  1.00  0.00     0.017 A 
HETATM    3  C15 UNL     1      16.058  33.769  15.945  1.00  0.00     0.018 A 
HETATM    4  C16 UNL     1      17.143  34.264  16.631  1.00  0.00     0.039 A 
HETATM    5  C17 UNL     1      18.135  33.356  16.937  1.00  0.00     0.097 A 
HETATM    6  N3  UNL     1      19.213  33.851  17.616  1.00  0.00    -0.188 N 
ATOM      7  H3  UNL     1      19.980  33.228  17.869  1.00  0.00     0.184 HD
HETATM    8  C18 UNL     1      19.272  35.154  17.952  1.00  0.00     0.686 A 
HETATM    9  N4  UNL     1      20.274  35.648  18.582  1.00  0.00    -0.225 N 
ATOM     10  H4  UNL     1      20.233  36.645  18.795  1.00  0.00     0.177 HD
HETATM   11  N7  UNL     1      18.278  36.026  17.636  1.00  0.00    -0.140 N 
HETATM   12  C25 UNL     1      18.125  37.341  17.865  1.00  0.00     0.141 A 
HETATM   13  C26 UNL     1      16.907  37.762  17.328  1.00  0.00     0.023 A 
HETATM   14  C27 UNL     1      16.349  39.149  17.362  1.00  0.00     0.069 C 
HETATM   15  N8  UNL     1      16.370  36.653  16.788  1.00  0.00    -0.343 N 
ATOM     16  H8  UNL     1      15.471  36.615  16.309  1.00  0.00     0.167 HD
HETATM   17  C28 UNL     1      17.192  35.600  16.969  1.00  0.00     0.141 A 
HETATM   18  C29 UNL     1      18.052  32.028  16.580  1.00  0.00     0.105 A 
ENDROOT
BRANCH   1  19
HETATM   19  C12 UNL     1      16.886  30.130  15.488  1.00  0.00     0.104 C 
BRANCH  19  20
HETATM   20  N2  UNL     1      17.831  29.775  14.517  1.00  0.00    -0.364 N 
HETATM   21  C11 UNL     1      17.788  30.344  13.232  1.00  0.00     0.069 C 
HETATM   22  C10 UNL     1      17.287  29.409  12.175  1.00  0.00     0.089 C 
HETATM   23  C9  UNL     1      18.004  28.104  12.067  1.00  0.00     0.068 C 
HETATM   24  N1  UNL     1      19.324  28.034  12.503  1.00  0.00    -0.372 N 
HETATM   25  C31 UNL     1      19.749  28.654  13.680  1.00  0.00     0.083 C 
HETATM   26  C30 UNL     1      18.649  28.646  14.731  1.00  0.00     0.172 C 
BRANCH  24  27
HETATM   27  C8  UNL     1      20.286  28.122  11.444  1.00  0.00     0.127 C 
BRANCH  27  28
HETATM   28  C7  UNL     1      21.219  29.258  11.686  1.00  0.00     0.020 C 
BRANCH  28  29
HETATM   29  C6  UNL     1      22.618  28.895  11.273  1.00  0.00     0.002 C 
BRANCH  29  30
HETATM   30  C5  UNL     1      23.313  28.123  12.347  1.00  0.00     0.000 C 
BRANCH  30  31
HETATM   31  C4  UNL     1      24.623  27.592  11.792  1.00  0.00     0.007 C 
BRANCH  31  32
HETATM   32  C3  UNL     1      24.650  26.088  11.806  1.00  0.00     0.077 C 
BRANCH  32  33
HETATM   33  C2  UNL     1      23.766  25.553  10.735  1.00  0.00     0.123 C 
HETATM   34  C1  UNL     1      24.006  25.931   9.325  1.00  0.00     0.091 C 
HETATM   35  O1  UNL     1      22.864  24.816  11.023  1.00  0.00    -0.298 OA
ENDBRANCH  32  33
ENDBRANCH  31  32
ENDBRANCH  30  31
ENDBRANCH  29  30
ENDBRANCH  28  29
ENDBRANCH  27  28
ENDBRANCH  24  27
ENDBRANCH  19  20
ENDBRANCH   1  19
BRANCH  18  36
HETATM   36  O3  UNL     1      19.051  31.148  16.897  1.00  0.00    -0.357 OA
ATOM     37  H3  UNL     1      19.936  31.350  16.615  1.00  0.00     0.217 HD
ENDBRANCH  18  36
BRANCH   9  38
HETATM   38  C19 UNL     1      21.443  34.947  19.016  1.00  0.00     0.139 C 
BRANCH  38  39
HETATM   39  C20 UNL     1      22.318  34.742  17.770  1.00  0.00     0.040 C 
BRANCH  39  40
HETATM   40  C21 UNL     1      22.466  33.250  17.589  1.00  0.00     0.129 C 
BRANCH  40  41
HETATM   41  N5  UNL     1      22.608  32.860  16.221  1.00  0.00    -0.333 N 
HETATM   42  C22 UNL     1      21.677  32.028  15.487  1.00  0.00     0.147 C 
HETATM   43  C23 UNL     1      22.326  31.731  14.155  1.00  0.00     0.144 C 
HETATM   44  N6  UNL     1      23.351  32.724  14.017  1.00  0.00    -0.341 N 
HETATM   45  C24 UNL     1      23.646  33.191  15.330  1.00  0.00     0.318 C 
ATOM     46  H6  UNL     1      23.785  33.035  13.147  1.00  0.00     0.164 HD
HETATM   47  O2  UNL     1      24.707  33.815  15.614  1.00  0.00    -0.247 OA
ENDBRANCH  40  41
ENDBRANCH  39  40
ENDBRANCH  38  39
ENDBRANCH   9  38
TORSDOF 14
ENDMDL
MODEL 3
REMARK VINA RESULT: -8.979908923      1.715      2.464
REMARK  14 active torsions:
REMARK  status: ('A' for Active; 'I' for Inactive)
REMARK    1  A    between atoms: C2_2  and  C3_4 
REMARK    2  A    between atoms: C3_4  and  C4_5 
REMARK    3  A    between atoms: C4_5  and  C5_6 
REMARK    4  A    between atoms: C5_6  and  C6_7 
REMARK    5  A    between atoms: C6_7  and  C7_8 
REMARK    6  A    between atoms: C7_8  and  C8_9 
REMARK    7  A    between atoms: C8_9  and  N1_10 
REMARK    8  A    between atoms: N2_14  and  C12_15 
REMARK    9  A    between atoms: C12_15  and  C13_16 
REMARK   10  A    between atoms: N4_24  and  C19_26 
REMARK   11  A    between atoms: C19_26  and  C20_27 
REMARK   12  A    between atoms: C20_27  and  C21_28 
REMARK   13  A    between atoms: C21_28  and  N5_29 
REMARK   14  A    between atoms: C29_43  and  O3_44 
ROOT
HETATM    1  C13 UNL     1      15.776  33.954  16.279  1.00  0.00     0.015 A 
HETATM    2  C14 UNL     1      14.853  34.063  17.265  1.00  0.00     0.017 A 
HETATM    3  C15 UNL     1      14.843  35.188  18.106  1.00  0.00     0.018 A 
HETATM    4  C16 UNL     1      15.748  36.217  17.979  1.00  0.00     0.039 A 
HETATM    5  C17 UNL     1      16.679  36.088  16.969  1.00  0.00     0.097 A 
HETATM    6  N3  UNL     1      17.574  37.112  16.842  1.00  0.00    -0.188 N 
ATOM      7  H3  UNL     1      18.287  37.074  16.113  1.00  0.00     0.184 HD
HETATM    8  C18 UNL     1      17.524  38.172  17.672  1.00  0.00     0.686 A 
HETATM    9  N4  UNL     1      18.346  39.152  17.572  1.00  0.00    -0.225 N 
ATOM     10  H4  UNL     1      18.234  39.912  18.243  1.00  0.00     0.177 HD
HETATM   11  N7  UNL     1      16.594  38.273  18.659  1.00  0.00    -0.140 N 
HETATM   12  C25 UNL     1      16.359  39.217  19.585  1.00  0.00     0.141 A 
HETATM   13  C26 UNL     1      15.272  38.831  20.370  1.00  0.00     0.023 A 
HETATM   14  C27 UNL     1      14.680  39.594  21.512  1.00  0.00     0.069 C 
HETATM   15  N8  UNL     1      14.893  37.642  19.867  1.00  0.00    -0.343 N 
ATOM     16  H8  UNL     1      14.116  37.081  20.218  1.00  0.00     0.167 HD
HETATM   17  C28 UNL     1      15.686  37.297  18.833  1.00  0.00     0.141 A 
HETATM   18  C29 UNL     1      16.709  34.994  16.132  1.00  0.00     0.105 A 
ENDROOT
BRANCH   1  19
HETATM   19  C12 UNL     1      15.812  32.814  15.356  1.00  0.00     0.104 C 
BRANCH  19  20
HETATM   20  N2  UNL     1      17.019  32.103  15.377  1.00  0.00    -0.364 N 
HETATM   21  C11 UNL     1      17.817  32.011  14.222  1.00  0.00     0.069 C 
HETATM   22  C10 UNL     1      17.769  30.667  13.563  1.00  0.00     0.089 C 
HETATM   23  C9  UNL     1      18.100  29.502  14.434  1.00  0.00     0.068 C 
HETATM   24  N1  UNL     1      18.911  29.713  15.546  1.00  0.00    -0.372 N 
HETATM   25  C31 UNL     1      18.757  30.829  16.372  1.00  0.00     0.083 C 
HETATM   26  C30 UNL     1      17.297  31.247  16.463  1.00  0.00     0.172 C 
BRANCH  24  27
HETATM   27  C8  UNL     1      20.282  29.354  15.336  1.00  0.00     0.127 C 
BRANCH  27  28
HETATM   28  C7  UNL     1      20.437  28.644  14.035  1.00  0.00     0.020 C 
BRANCH  28  29
HETATM   29  C6  UNL     1      21.586  29.213  13.252  1.00  0.00     0.002 C 
BRANCH  29  30
HETATM   30  C5  UNL     1      22.307  30.261  14.038  1.00  0.00     0.000 C 
BRANCH  30  31
HETATM   31  C4  UNL     1      22.076  31.608  13.374  1.00  0.00     0.007 C 
BRANCH  31  32
HETATM   32  C3  UNL     1      21.790  32.675  14.395  1.00  0.00     0.077 C 
BRANCH  32  33
HETATM   33  C2  UNL     1      22.954  32.830  15.309  1.00  0.00     0.123 C 
HETATM   34  C1  UNL     1      22.753  32.781  16.774  1.00  0.00     0.091 C 
HETATM   35  O1  UNL     1      24.051  32.994  14.851  1.00  0.00    -0.298 OA
ENDBRANCH  32  33
ENDBRANCH  31  32
ENDBRANCH  30  31
ENDBRANCH  29  30
ENDBRANCH  28  29
ENDBRANCH  27  28
ENDBRANCH  24  27
ENDBRANCH  19  20
ENDBRANCH   1  19
BRANCH  18  36
HETATM   36  O3  UNL     1      17.644  34.890  15.138  1.00  0.00    -0.357 OA
ATOM     37  H3  UNL     1      17.392  35.132  14.255  1.00  0.00     0.217 HD
ENDBRANCH  18  36
BRANCH   9  38
HETATM   38  C19 UNL     1      19.404  39.289  16.618  1.00  0.00     0.139 C 
BRANCH  38  39
HETATM   39  C20 UNL     1      20.718  39.123  17.397  1.00  0.00     0.040 C 
BRANCH  39  40
HETATM   40  C21 UNL     1      21.214  37.727  17.109  1.00  0.00     0.129 C 
BRANCH  40  41
HETATM   41  N5  UNL     1      20.901  36.792  18.144  1.00  0.00    -0.333 N 
HETATM   42  C22 UNL     1      21.151  36.994  19.557  1.00  0.00     0.147 C 
HETATM   43  C23 UNL     1      20.835  35.684  20.239  1.00  0.00     0.144 C 
HETATM   44  N6  UNL     1      20.032  34.963  19.295  1.00  0.00    -0.341 N 
HETATM   45  C24 UNL     1      20.305  35.524  18.015  1.00  0.00     0.318 C 
ATOM     46  H6  UNL     1      19.392  34.196  19.500  1.00  0.00     0.164 HD
HETATM   47  O2  UNL     1      20.032  34.932  16.933  1.00  0.00    -0.247 OA
ENDBRANCH  40  41
ENDBRANCH  39  40
ENDBRANCH  38  39
ENDBRANCH   9  38
TORSDOF 14
ENDMDL
MODEL 4
REMARK VINA RESULT: -8.923399804      2.953     11.172
REMARK  14 active torsions:
REMARK  status: ('A' for Active; 'I' for Inactive)
REMARK    1  A    between atoms: C2_2  and  C3_4 
REMARK    2  A    between atoms: C3_4  and  C4_5 
REMARK    3  A    between atoms: C4_5  and  C5_6 
REMARK    4  A    between atoms: C5_6  and  C6_7 
REMARK    5  A    between atoms: C6_7  and  C7_8 
REMARK    6  A    between atoms: C7_8  and  C8_9 
REMARK    7  A    between atoms: C8_9  and  N1_10 
REMARK    8  A    between atoms: N2_14  and  C12_15 
REMARK    9  A    between atoms: C12_15  and  C13_16 
REMARK   10  A    between atoms: N4_24  and  C19_26 
REMARK   11  A    between atoms: C19_26  and  C20_27 
REMARK   12  A    between atoms: C20_27  and  C21_28 
REMARK   13  A    between atoms: C21_28  and  N5_29 
REMARK   14  A    between atoms: C29_43  and  O3_44 
ROOT
HETATM    1  C13 UNL     1      20.976  32.624  16.013  1.00  0.00     0.015 A 
HETATM    2  C14 UNL     1      19.671  32.705  15.658  1.00  0.00     0.017 A 
HETATM    3  C15 UNL     1      19.151  31.853  14.670  1.00  0.00     0.018 A 
HETATM    4  C16 UNL     1      19.918  30.912  14.023  1.00  0.00     0.039 A 
HETATM    5  C17 UNL     1      21.244  30.844  14.399  1.00  0.00     0.097 A 
HETATM    6  N3  UNL     1      22.003  29.905  13.758  1.00  0.00    -0.188 N 
ATOM      7  H3  UNL     1      22.990  29.806  13.993  1.00  0.00     0.184 HD
HETATM    8  C18 UNL     1      21.458  29.109  12.818  1.00  0.00     0.686 A 
HETATM    9  N4  UNL     1      22.143  28.215  12.204  1.00  0.00    -0.225 N 
ATOM     10  H4  UNL     1      21.648  27.658  11.508  1.00  0.00     0.177 HD
HETATM   11  N7  UNL     1      20.147  29.199  12.468  1.00  0.00    -0.140 N 
HETATM   12  C25 UNL     1      19.403  28.524  11.576  1.00  0.00     0.141 A 
HETATM   13  C26 UNL     1      18.095  29.012  11.605  1.00  0.00     0.023 A 
HETATM   14  C27 UNL     1      16.948  28.539  10.771  1.00  0.00     0.069 C 
HETATM   15  N8  UNL     1      18.114  29.983  12.537  1.00  0.00    -0.343 N 
ATOM     16  H8  UNL     1      17.309  30.547  12.806  1.00  0.00     0.167 HD
HETATM   17  C28 UNL     1      19.349  30.103  13.063  1.00  0.00     0.141 A 
HETATM   18  C29 UNL     1      21.777  31.668  15.365  1.00  0.00     0.105 A 
ENDROOT
BRANCH   1  19
HETATM   19  C12 UNL     1      21.563  33.469  17.059  1.00  0.00     0.104 C 
BRANCH  19  20
HETATM   20  N2  UNL     1      20.878  34.672  17.270  1.00  0.00    -0.364 N 
HETATM   21  C11 UNL     1      21.349  35.874  16.712  1.00  0.00     0.069 C 
HETATM   22  C10 UNL     1      21.982  36.794  17.710  1.00  0.00     0.089 C 
HETATM   23  C9  UNL     1      21.144  37.145  18.894  1.00  0.00     0.068 C 
HETATM   24  N1  UNL     1      19.759  37.084  18.771  1.00  0.00    -0.372 N 
HETATM   25  C31 UNL     1      19.122  36.040  18.096  1.00  0.00     0.083 C 
HETATM   26  C30 UNL     1      19.881  34.733  18.267  1.00  0.00     0.172 C 
BRANCH  24  27
HETATM   27  C8  UNL     1      19.145  38.358  18.541  1.00  0.00     0.127 C 
BRANCH  27  28
HETATM   28  C7  UNL     1      17.754  38.178  18.037  1.00  0.00     0.020 C 
BRANCH  28  29
HETATM   29  C6  UNL     1      16.760  38.781  18.989  1.00  0.00     0.002 C 
BRANCH  29  30
HETATM   30  C5  UNL     1      15.358  38.522  18.540  1.00  0.00     0.000 C 
BRANCH  30  31
HETATM   31  C4  UNL     1      14.800  37.358  19.340  1.00  0.00     0.007 C 
BRANCH  31  32
HETATM   32  C3  UNL     1      14.110  36.365  18.445  1.00  0.00     0.077 C 
BRANCH  32  33
HETATM   33  C2  UNL     1      15.049  35.269  18.080  1.00  0.00     0.123 C 
HETATM   34  C1  UNL     1      15.663  35.243  16.735  1.00  0.00     0.091 C 
HETATM   35  O1  UNL     1      15.301  34.413  18.882  1.00  0.00    -0.298 OA
ENDBRANCH  32  33
ENDBRANCH  31  32
ENDBRANCH  30  31
ENDBRANCH  29  30
ENDBRANCH  28  29
ENDBRANCH  27  28
ENDBRANCH  24  27
ENDBRANCH  19  20
ENDBRANCH   1  19
BRANCH  18  36
HETATM   36  O3  UNL     1      23.096  31.580  15.719  1.00  0.00    -0.357 OA
ATOM     37  H3  UNL     1      23.724  31.321  15.055  1.00  0.00     0.217 HD
ENDBRANCH  18  36
BRANCH   9  38
HETATM   38  C19 UNL     1      23.530  27.918  12.397  1.00  0.00     0.139 C 
BRANCH  38  39
HETATM   39  C20 UNL     1      24.160  27.852  10.997  1.00  0.00     0.040 C 
BRANCH  39  40
HETATM   40  C21 UNL     1      24.619  26.428  10.798  1.00  0.00     0.129 C 
BRANCH  40  41
HETATM   41  N5  UNL     1      23.739  25.662   9.971  1.00  0.00    -0.333 N 
HETATM   42  C22 UNL     1      23.873  25.493   8.539  1.00  0.00     0.147 C 
HETATM   43  C23 UNL     1      22.629  24.773   8.075  1.00  0.00     0.144 C 
HETATM   44  N6  UNL     1      22.075  24.194   9.263  1.00  0.00    -0.341 N 
HETATM   45  C24 UNL     1      22.598  24.936  10.361  1.00  0.00     0.318 C 
ATOM     46  H6  UNL     1      21.431  23.404   9.313  1.00  0.00     0.164 HD
HETATM   47  O2  UNL     1      22.079  24.917  11.512  1.00  0.00    -0.247 OA
ENDBRANCH  40  41
ENDBRANCH  39  40
ENDBRANCH  38  39
ENDBRANCH   9  38
TORSDOF 14
ENDMDL
MODEL 5
REMARK VINA RESULT: -8.870725555      4.805     12.237
REMARK  14 active torsions:
REMARK  status: ('A' for Active; 'I' for Inactive)
REMARK    1  A    between atoms: C2_2  and  C3_4 
REMARK    2  A    between atoms: C3_4  and  C4_5 
REMARK    3  A    between atoms: C4_5  and  C5_6 
REMARK    4  A    between atoms: C5_6  and  C6_7 
REMARK    5  A    between atoms: C6_7  and  C7_8 
REMARK    6  A    between atoms: C7_8  and  C8_9 
REMARK    7  A    between atoms: C8_9  and  N1_10 
REMARK    8  A    between atoms: N2_14  and  C12_15 
REMARK    9  A    between atoms: C12_15  and  C13_16 
REMARK   10  A    between atoms: N4_24  and  C19_26 
REMARK   11  A    between atoms: C19_26  and  C20_27 
REMARK   12  A    between atoms: C20_27  and  C21_28 
REMARK   13  A    between atoms: C21_28  and  N5_29 
REMARK   14  A    between atoms: C29_43  and  O3_44 
ROOT
HETATM    1  C13 UNL     1      18.132  27.510  11.826  1.00  0.00     0.015 A 
HETATM    2  C14 UNL     1      17.357  28.322  11.067  1.00  0.00     0.017 A 
HETATM    3  C15 UNL     1      17.424  28.258   9.666  1.00  0.00     0.018 A 
HETATM    4  C16 UNL     1      18.259  27.389   9.001  1.00  0.00     0.039 A 
HETATM    5  C17 UNL     1      19.038  26.570   9.792  1.00  0.00     0.097 A 
HETATM    6  N3  UNL     1      19.864  25.705   9.130  1.00  0.00    -0.188 N 
ATOM      7  H3  UNL     1      20.464  25.074   9.660  1.00  0.00     0.184 HD
HETATM    8  C18 UNL     1      19.892  25.679   7.783  1.00  0.00     0.686 A 
HETATM    9  N4  UNL     1      20.650  24.874   7.135  1.00  0.00    -0.225 N 
ATOM     10  H4  UNL     1      20.606  24.924   6.117  1.00  0.00     0.177 HD
HETATM   11  N7  UNL     1      19.111  26.499   7.030  1.00  0.00    -0.140 N 
HETATM   12  C25 UNL     1      18.975  26.645   5.701  1.00  0.00     0.141 A 
HETATM   13  C26 UNL     1      18.028  27.639   5.443  1.00  0.00     0.023 A 
HETATM   14  C27 UNL     1      17.578  28.114   4.099  1.00  0.00     0.069 C 
HETATM   15  N8  UNL     1      17.629  28.054   6.659  1.00  0.00    -0.343 N 
ATOM     16  H8  UNL     1      16.935  28.782   6.827  1.00  0.00     0.167 HD
HETATM   17  C28 UNL     1      18.278  27.372   7.623  1.00  0.00     0.141 A 
HETATM   18  C29 UNL     1      18.991  26.615  11.168  1.00  0.00     0.105 A 
ENDROOT
BRANCH   1  19
HETATM   19  C12 UNL     1      18.081  27.516  13.293  1.00  0.00     0.104 C 
BRANCH  19  20
HETATM   20  N2  UNL     1      18.713  28.619  13.880  1.00  0.00    -0.364 N 
HETATM   21  C11 UNL     1      17.968  29.736  14.297  1.00  0.00     0.069 C 
HETATM   22  C10 UNL     1      18.115  30.928  13.403  1.00  0.00     0.089 C 
HETATM   23  C9  UNL     1      19.514  31.386  13.155  1.00  0.00     0.068 C 
HETATM   24  N1  UNL     1      20.488  31.093  14.106  1.00  0.00    -0.372 N 
HETATM   25  C31 UNL     1      20.556  29.848  14.735  1.00  0.00     0.083 C 
HETATM   26  C30 UNL     1      20.117  28.734  13.796  1.00  0.00     0.172 C 
BRANCH  24  27
HETATM   27  C8  UNL     1      20.779  32.184  14.988  1.00  0.00     0.127 C 
BRANCH  27  28
HETATM   28  C7  UNL     1      20.305  31.875  16.367  1.00  0.00     0.020 C 
BRANCH  28  29
HETATM   29  C6  UNL     1      18.979  32.530  16.634  1.00  0.00     0.002 C 
BRANCH  29  30
HETATM   30  C5  UNL     1      18.886  33.855  15.949  1.00  0.00     0.000 C 
BRANCH  30  31
HETATM   31  C4  UNL     1      17.576  33.913  15.183  1.00  0.00     0.007 C 
BRANCH  31  32
HETATM   32  C3  UNL     1      16.503  34.590  15.991  1.00  0.00     0.077 C 
BRANCH  32  33
HETATM   33  C2  UNL     1      15.631  33.571  16.636  1.00  0.00     0.123 C 
HETATM   34  C1  UNL     1      15.360  32.291  15.946  1.00  0.00     0.091 C 
HETATM   35  O1  UNL     1      15.153  33.795  17.714  1.00  0.00    -0.298 OA
ENDBRANCH  32  33
ENDBRANCH  31  32
ENDBRANCH  30  31
ENDBRANCH  29  30
ENDBRANCH  28  29
ENDBRANCH  27  28
ENDBRANCH  24  27
ENDBRANCH  19  20
ENDBRANCH   1  19
BRANCH  18  36
HETATM   36  O3  UNL     1      19.776  25.791  11.929  1.00  0.00    -0.357 OA
ATOM     37  H3  UNL     1      20.505  25.349  11.508  1.00  0.00     0.217 HD
ENDBRANCH  18  36
BRANCH   9  38
HETATM   38  C19 UNL     1      21.552  23.912   7.691  1.00  0.00     0.139 C 
BRANCH  38  39
HETATM   39  C20 UNL     1      22.969  24.469   7.478  1.00  0.00     0.040 C 
BRANCH  39  40
HETATM   40  C21 UNL     1      23.703  24.284   8.784  1.00  0.00     0.129 C 
BRANCH  40  41
HETATM   41  N5  UNL     1      23.580  25.404   9.664  1.00  0.00    -0.333 N 
HETATM   42  C22 UNL     1      24.267  26.670   9.509  1.00  0.00     0.147 C 
HETATM   43  C23 UNL     1      23.980  27.469  10.758  1.00  0.00     0.144 C 
HETATM   44  N6  UNL     1      22.834  26.836  11.343  1.00  0.00    -0.341 N 
HETATM   45  C24 UNL     1      22.790  25.511  10.824  1.00  0.00     0.318 C 
ATOM     46  H6  UNL     1      22.177  27.255  12.003  1.00  0.00     0.164 HD
HETATM   47  O2  UNL     1      22.122  24.584  11.363  1.00  0.00    -0.247 OA
ENDBRANCH  40  41
ENDBRANCH  39  40
ENDBRANCH  38  39
ENDBRANCH   9  38
TORSDOF 14
ENDMDL
