MODEL 1
REMARK VINA RESULT: -7.697978452      0.000      0.000
REMARK  9 active torsions:
REMARK  status: ('A' for Active; 'I' for Inactive)
REMARK    1  A    between atoms: N1_2  and  N2_4 
REMARK    2  A    between atoms: N2_4  and  C4_7 
REMARK    3  A    between atoms: C5_10  and  N5_11 
REMARK    4  A    between atoms: C6_14  and  N6_15 
REMARK    5  A    between atoms: C7_19  and  C8_20 
REMARK    6  A    between atoms: C8_20  and  N10_22 
REMARK    7  A    between atoms: N10_22  and  O1_24 
REMARK    8  A    between atoms: C9_28  and  N12_29 
REMARK    9  A    between atoms: N12_29  and  C10_31 
ROOT
HETATM    1  N2  UNL     1      43.613 -11.250 -13.397  1.00  0.00    -0.037 N 
HETATM    2  C3  UNL     1      44.074  -9.941 -13.573  1.00  0.00     0.216 C 
HETATM    3  N3  UNL     1      44.457  -8.856 -13.735  1.00  0.00    -0.170 NA
ENDROOT
BRANCH   1   4
HETATM    4  N1  UNL     1      42.263 -11.492 -13.561  1.00  0.00    -0.208 NA
HETATM    5  C1  UNL     1      41.450 -11.115 -12.445  1.00  0.00     0.137 C 
HETATM    6  C2  UNL     1      41.746 -11.063 -14.834  1.00  0.00     0.137 C 
ENDBRANCH   1   4
BRANCH   1   7
HETATM    7  C4  UNL     1      44.514 -12.305 -13.056  1.00  0.00     0.712 A 
HETATM    8  N4  UNL     1      45.059 -13.069 -14.008  1.00  0.00    -0.172 N 
HETATM    9  C5  UNL     1      45.898 -14.044 -13.633  1.00  0.00     0.149 A 
ATOM     10  H4  UNL     1      44.842 -12.913 -14.993  1.00  0.00     0.186 HD
HETATM   11  C6  UNL     1      46.193 -14.256 -12.292  1.00  0.00     0.161 A 
HETATM   12  C9  UNL     1      45.627 -13.463 -11.316  1.00  0.00     0.151 A 
HETATM   13  N13 UNL     1      44.799 -12.507 -11.740  1.00  0.00    -0.172 N 
ATOM     14  H13 UNL     1      44.360 -11.900 -11.048  1.00  0.00     0.186 HD
BRANCH   9  15
HETATM   15  N5  UNL     1      46.470 -14.833 -14.504  1.00  0.00    -0.383 N 
ATOM     16  H52 UNL     1      46.448 -14.544 -15.482  1.00  0.00     0.157 HD
ATOM     17  H51 UNL     1      46.922 -15.704 -14.225  1.00  0.00     0.157 HD
ENDBRANCH   9  15
BRANCH  11  18
HETATM   18  N6  UNL     1      47.100 -15.316 -11.946  1.00  0.00    -0.171 N 
HETATM   19  N7  UNL     1      48.420 -15.213 -11.928  1.00  0.00     0.003 NA
HETATM   20  N8  UNL     1      48.955 -16.368 -11.567  1.00  0.00    -0.264 N 
HETATM   21  C7  UNL     1      47.945 -17.254 -11.342  1.00  0.00     0.178 A 
ATOM     22  H8  UNL     1      49.952 -16.562 -11.473  1.00  0.00     0.186 HD
HETATM   23  N11 UNL     1      46.821 -16.557 -11.590  1.00  0.00    -0.261 N 
ATOM     24  H11 UNL     1      45.878 -16.937 -11.513  1.00  0.00     0.190 HD
BRANCH  21  25
HETATM   25  C8  UNL     1      48.089 -18.641 -10.927  1.00  0.00     0.182 C 
HETATM   26  N9  UNL     1      49.364 -19.236 -10.858  1.00  0.00    -0.077 NA
BRANCH  25  27
HETATM   27  N10 UNL     1      47.043 -19.323 -10.623  1.00  0.00    -0.252 N 
ATOM     28  H10 UNL     1      46.908 -20.217 -11.096  1.00  0.00     0.195 HD
BRANCH  27  29
HETATM   29  O1  UNL     1      46.109 -18.942  -9.722  1.00  0.00    -0.288 OA
ATOM     30  H1  UNL     1      45.192 -19.188  -9.755  1.00  0.00     0.244 HD
ENDBRANCH  27  29
ENDBRANCH  25  27
ENDBRANCH  21  25
ENDBRANCH  11  18
BRANCH  12  31
HETATM   31  N12 UNL     1      45.946 -13.704  -9.965  1.00  0.00    -0.366 N 
ATOM     32  H12 UNL     1      46.904 -13.502  -9.677  1.00  0.00     0.162 HD
BRANCH  31  33
HETATM   33  C10 UNL     1      45.058 -14.207  -8.951  1.00  0.00     0.021 C 
HETATM   34  C11 UNL     1      43.976 -13.206  -8.597  1.00  0.00     0.037 C 
HETATM   35  C12 UNL     1      44.382 -15.489  -9.310  1.00  0.00     0.037 C 
HETATM   36  C13 UNL     1      45.859 -14.419  -7.680  1.00  0.00     0.037 C 
ENDBRANCH  31  33
ENDBRANCH  12  31
ENDBRANCH   1   7
TORSDOF 9
ENDMDL
MODEL 2
REMARK VINA RESULT: -7.676675673      3.111      7.196
REMARK  9 active torsions:
REMARK  status: ('A' for Active; 'I' for Inactive)
REMARK    1  A    between atoms: N1_2  and  N2_4 
REMARK    2  A    between atoms: N2_4  and  C4_7 
REMARK    3  A    between atoms: C5_10  and  N5_11 
REMARK    4  A    between atoms: C6_14  and  N6_15 
REMARK    5  A    between atoms: C7_19  and  C8_20 
REMARK    6  A    between atoms: C8_20  and  N10_22 
REMARK    7  A    between atoms: N10_22  and  O1_24 
REMARK    8  A    between atoms: C9_28  and  N12_29 
REMARK    9  A    between atoms: N12_29  and  C10_31 
ROOT
HETATM    1  N2  UNL     1      48.957 -17.534 -11.704  1.00  0.00    -0.037 N 
HETATM    2  C3  UNL     1      49.352 -18.724 -11.081  1.00  0.00     0.216 C 
HETATM    3  N3  UNL     1      49.669 -19.719 -10.574  1.00  0.00    -0.170 NA
ENDROOT
BRANCH   1   4
HETATM    4  N1  UNL     1      49.572 -17.186 -12.890  1.00  0.00    -0.208 NA
HETATM    5  C1  UNL     1      50.917 -16.717 -12.748  1.00  0.00     0.137 C 
HETATM    6  C2  UNL     1      49.396 -18.152 -13.941  1.00  0.00     0.137 C 
ENDBRANCH   1   4
BRANCH   1   7
HETATM    7  C4  UNL     1      47.947 -16.704 -11.126  1.00  0.00     0.712 A 
HETATM    8  N4  UNL     1      47.014 -17.227 -10.323  1.00  0.00    -0.172 N 
HETATM    9  C5  UNL     1      46.091 -16.404  -9.808  1.00  0.00     0.149 A 
ATOM     10  H4  UNL     1      47.006 -18.224 -10.108  1.00  0.00     0.186 HD
HETATM   11  C6  UNL     1      46.102 -15.046 -10.101  1.00  0.00     0.161 A 
HETATM   12  C9  UNL     1      47.068 -14.515 -10.930  1.00  0.00     0.151 A 
HETATM   13  N13 UNL     1      47.964 -15.375 -11.417  1.00  0.00    -0.172 N 
ATOM     14  H13 UNL     1      48.694 -15.020 -12.034  1.00  0.00     0.186 HD
BRANCH   9  15
HETATM   15  N5  UNL     1      45.146 -16.838  -9.016  1.00  0.00    -0.383 N 
ATOM     16  H52 UNL     1      44.205 -16.476  -9.168  1.00  0.00     0.157 HD
ATOM     17  H51 UNL     1      45.336 -17.512  -8.274  1.00  0.00     0.157 HD
ENDBRANCH   9  15
BRANCH  11  18
HETATM   18  N6  UNL     1      45.088 -14.208  -9.521  1.00  0.00    -0.171 N 
HETATM   19  N7  UNL     1      45.066 -13.800  -8.261  1.00  0.00     0.003 NA
HETATM   20  N8  UNL     1      43.999 -13.045  -8.053  1.00  0.00    -0.264 N 
HETATM   21  C7  UNL     1      43.303 -12.959  -9.221  1.00  0.00     0.178 A 
ATOM     22  H8  UNL     1      43.743 -12.603  -7.171  1.00  0.00     0.186 HD
HETATM   23  N11 UNL     1      44.015 -13.693 -10.095  1.00  0.00    -0.261 N 
ATOM     24  H11 UNL     1      43.760 -13.834 -11.072  1.00  0.00     0.190 HD
BRANCH  21  25
HETATM   25  C8  UNL     1      42.066 -12.225  -9.437  1.00  0.00     0.182 C 
HETATM   26  N9  UNL     1      42.017 -10.833  -9.231  1.00  0.00    -0.077 NA
BRANCH  25  27
HETATM   27  N10 UNL     1      41.013 -12.856  -9.818  1.00  0.00    -0.252 N 
ATOM     28  H10 UNL     1      40.177 -12.306 -10.015  1.00  0.00     0.195 HD
BRANCH  27  29
HETATM   29  O1  UNL     1      40.933 -14.198  -9.976  1.00  0.00    -0.288 OA
ATOM     30  H1  UNL     1      41.611 -14.814  -9.726  1.00  0.00     0.244 HD
ENDBRANCH  27  29
ENDBRANCH  25  27
ENDBRANCH  21  25
ENDBRANCH  11  18
BRANCH  12  31
HETATM   31  N12 UNL     1      47.051 -13.133 -11.208  1.00  0.00    -0.366 N 
ATOM     32  H12 UNL     1      46.257 -12.783 -11.744  1.00  0.00     0.162 HD
BRANCH  31  33
HETATM   33  C10 UNL     1      48.040 -12.168 -10.811  1.00  0.00     0.021 C 
HETATM   34  C11 UNL     1      48.574 -12.441  -9.419  1.00  0.00     0.037 C 
HETATM   35  C12 UNL     1      49.213 -12.077 -11.731  1.00  0.00     0.037 C 
HETATM   36  C13 UNL     1      47.373 -10.806 -10.739  1.00  0.00     0.037 C 
ENDBRANCH  31  33
ENDBRANCH  12  31
ENDBRANCH   1   7
TORSDOF 9
ENDMDL
MODEL 3
REMARK VINA RESULT: -7.573977709      3.284      7.328
REMARK  9 active torsions:
REMARK  status: ('A' for Active; 'I' for Inactive)
REMARK    1  A    between atoms: N1_2  and  N2_4 
REMARK    2  A    between atoms: N2_4  and  C4_7 
REMARK    3  A    between atoms: C5_10  and  N5_11 
REMARK    4  A    between atoms: C6_14  and  N6_15 
REMARK    5  A    between atoms: C7_19  and  C8_20 
REMARK    6  A    between atoms: C8_20  and  N10_22 
REMARK    7  A    between atoms: N10_22  and  O1_24 
REMARK    8  A    between atoms: C9_28  and  N12_29 
REMARK    9  A    between atoms: N12_29  and  C10_31 
ROOT
HETATM    1  N2  UNL     1      48.950 -17.510 -11.706  1.00  0.00    -0.037 N 
HETATM    2  C3  UNL     1      49.324 -18.695 -11.062  1.00  0.00     0.216 C 
HETATM    3  N3  UNL     1      49.624 -19.687 -10.538  1.00  0.00    -0.170 NA
ENDROOT
BRANCH   1   4
HETATM    4  N1  UNL     1      49.579 -17.188 -12.893  1.00  0.00    -0.208 NA
HETATM    5  C1  UNL     1      50.934 -16.749 -12.748  1.00  0.00     0.137 C 
HETATM    6  C2  UNL     1      49.386 -18.160 -13.935  1.00  0.00     0.137 C 
ENDBRANCH   1   4
BRANCH   1   7
HETATM    7  C4  UNL     1      47.946 -16.659 -11.149  1.00  0.00     0.712 A 
HETATM    8  N4  UNL     1      46.983 -17.162 -10.369  1.00  0.00    -0.172 N 
HETATM    9  C5  UNL     1      46.067 -16.319  -9.873  1.00  0.00     0.149 A 
ATOM     10  H4  UNL     1      46.948 -18.159 -10.157  1.00  0.00     0.186 HD
HETATM   11  C6  UNL     1      46.116 -14.960 -10.161  1.00  0.00     0.161 A 
HETATM   12  C9  UNL     1      47.114 -14.450 -10.967  1.00  0.00     0.151 A 
HETATM   13  N13 UNL     1      48.000 -15.329 -11.436  1.00  0.00    -0.172 N 
ATOM     14  H13 UNL     1      48.752 -14.990 -12.035  1.00  0.00     0.186 HD
BRANCH   9  15
HETATM   15  N5  UNL     1      45.096 -16.733  -9.104  1.00  0.00    -0.383 N 
ATOM     16  H52 UNL     1      44.806 -17.706  -9.199  1.00  0.00     0.157 HD
ATOM     17  H51 UNL     1      44.641 -16.114  -8.432  1.00  0.00     0.157 HD
ENDBRANCH   9  15
BRANCH  11  18
HETATM   18  N6  UNL     1      45.109 -14.101  -9.603  1.00  0.00    -0.171 N 
HETATM   19  N7  UNL     1      44.994 -13.798  -8.319  1.00  0.00     0.003 NA
HETATM   20  N8  UNL     1      43.964 -12.985  -8.141  1.00  0.00    -0.264 N 
HETATM   21  C7  UNL     1      43.390 -12.753  -9.354  1.00  0.00     0.178 A 
ATOM     22  H8  UNL     1      43.655 -12.600  -7.249  1.00  0.00     0.186 HD
HETATM   23  N11 UNL     1      44.132 -13.464 -10.222  1.00  0.00    -0.261 N 
ATOM     24  H11 UNL     1      43.962 -13.505 -11.227  1.00  0.00     0.190 HD
BRANCH  21  25
HETATM   25  C8  UNL     1      42.229 -11.915  -9.613  1.00  0.00     0.182 C 
HETATM   26  N9  UNL     1      41.085 -12.454 -10.233  1.00  0.00    -0.077 NA
BRANCH  25  27
HETATM   27  N10 UNL     1      42.253 -10.677  -9.272  1.00  0.00    -0.252 N 
ATOM     28  H10 UNL     1      42.071  -9.983  -9.997  1.00  0.00     0.195 HD
BRANCH  27  29
HETATM   29  O1  UNL     1      42.502 -10.226  -8.020  1.00  0.00    -0.288 OA
ATOM     30  H1  UNL     1      42.110  -9.451  -7.636  1.00  0.00     0.244 HD
ENDBRANCH  27  29
ENDBRANCH  25  27
ENDBRANCH  21  25
ENDBRANCH  11  18
BRANCH  12  31
HETATM   31  N12 UNL     1      47.134 -13.068 -11.241  1.00  0.00    -0.366 N 
ATOM     32  H12 UNL     1      46.365 -12.700 -11.802  1.00  0.00     0.162 HD
BRANCH  31  33
HETATM   33  C10 UNL     1      48.130 -12.124 -10.810  1.00  0.00     0.021 C 
HETATM   34  C11 UNL     1      48.616 -12.414  -9.404  1.00  0.00     0.037 C 
HETATM   35  C12 UNL     1      49.332 -12.054 -11.694  1.00  0.00     0.037 C 
HETATM   36  C13 UNL     1      47.490 -10.750 -10.752  1.00  0.00     0.037 C 
ENDBRANCH  31  33
ENDBRANCH  12  31
ENDBRANCH   1   7
TORSDOF 9
ENDMDL
MODEL 4
REMARK VINA RESULT: -7.537754191      3.995      6.659
REMARK  9 active torsions:
REMARK  status: ('A' for Active; 'I' for Inactive)
REMARK    1  A    between atoms: N1_2  and  N2_4 
REMARK    2  A    between atoms: N2_4  and  C4_7 
REMARK    3  A    between atoms: C5_10  and  N5_11 
REMARK    4  A    between atoms: C6_14  and  N6_15 
REMARK    5  A    between atoms: C7_19  and  C8_20 
REMARK    6  A    between atoms: C8_20  and  N10_22 
REMARK    7  A    between atoms: N10_22  and  O1_24 
REMARK    8  A    between atoms: C9_28  and  N12_29 
REMARK    9  A    between atoms: N12_29  and  C10_31 
ROOT
HETATM    1  N2  UNL     1      50.495 -10.637 -10.978  1.00  0.00    -0.037 N 
HETATM    2  C3  UNL     1      51.333 -11.095 -12.001  1.00  0.00     0.216 C 
HETATM    3  N3  UNL     1      52.028 -11.461 -12.857  1.00  0.00    -0.170 NA
ENDROOT
BRANCH   1   4
HETATM    4  N1  UNL     1      51.056  -9.887  -9.963  1.00  0.00    -0.208 NA
HETATM    5  C1  UNL     1      50.790 -10.376  -8.645  1.00  0.00     0.137 C 
HETATM    6  C2  UNL     1      52.433  -9.537 -10.193  1.00  0.00     0.137 C 
ENDBRANCH   1   4
BRANCH   1   7
HETATM    7  C4  UNL     1      49.098 -10.939 -10.985  1.00  0.00     0.712 A 
HETATM    8  N4  UNL     1      48.210 -10.043 -11.430  1.00  0.00    -0.172 N 
HETATM    9  C5  UNL     1      46.913 -10.378 -11.415  1.00  0.00     0.149 A 
ATOM     10  H4  UNL     1      48.512  -9.130 -11.772  1.00  0.00     0.186 HD
HETATM   11  C6  UNL     1      46.501 -11.621 -10.950  1.00  0.00     0.161 A 
HETATM   12  C9  UNL     1      47.424 -12.539 -10.493  1.00  0.00     0.151 A 
HETATM   13  N13 UNL     1      48.701 -12.159 -10.529  1.00  0.00    -0.172 N 
ATOM     14  H13 UNL     1      49.414 -12.810 -10.199  1.00  0.00     0.186 HD
BRANCH   9  15
HETATM   15  N5  UNL     1      45.985  -9.558 -11.832  1.00  0.00    -0.383 N 
ATOM     16  H52 UNL     1      46.286  -8.639 -12.158  1.00  0.00     0.157 HD
ATOM     17  H51 UNL     1      44.999  -9.819 -11.836  1.00  0.00     0.157 HD
ENDBRANCH   9  15
BRANCH  11  18
HETATM   18  N6  UNL     1      45.098 -11.928 -10.956  1.00  0.00    -0.171 N 
HETATM   19  N7  UNL     1      44.443 -12.479 -11.967  1.00  0.00     0.003 NA
HETATM   20  N8  UNL     1      43.167 -12.627 -11.648  1.00  0.00    -0.264 N 
HETATM   21  C7  UNL     1      42.987 -12.155 -10.384  1.00  0.00     0.178 A 
ATOM     22  H8  UNL     1      42.444 -13.026 -12.246  1.00  0.00     0.186 HD
HETATM   23  N11 UNL     1      44.206 -11.735 -10.001  1.00  0.00    -0.261 N 
ATOM     24  H11 UNL     1      44.414 -11.321  -9.092  1.00  0.00     0.190 HD
BRANCH  21  25
HETATM   25  C8  UNL     1      41.735 -12.127  -9.643  1.00  0.00     0.182 C 
HETATM   26  N9  UNL     1      41.079 -10.904  -9.396  1.00  0.00    -0.077 NA
BRANCH  25  27
HETATM   27  N10 UNL     1      41.228 -13.227  -9.214  1.00  0.00    -0.252 N 
ATOM     28  H10 UNL     1      41.077 -13.318  -8.209  1.00  0.00     0.195 HD
BRANCH  27  29
HETATM   29  O1  UNL     1      40.880 -14.273  -9.998  1.00  0.00    -0.288 OA
ATOM     30  H1  UNL     1      40.891 -15.182  -9.724  1.00  0.00     0.244 HD
ENDBRANCH  27  29
ENDBRANCH  25  27
ENDBRANCH  21  25
ENDBRANCH  11  18
BRANCH  12  31
HETATM   31  N12 UNL     1      46.974 -13.791 -10.027  1.00  0.00    -0.366 N 
ATOM     32  H12 UNL     1      46.553 -14.413 -10.718  1.00  0.00     0.162 HD
BRANCH  31  33
HETATM   33  C10 UNL     1      47.047 -14.278  -8.676  1.00  0.00     0.021 C 
HETATM   34  C11 UNL     1      48.022 -13.478  -7.836  1.00  0.00     0.037 C 
HETATM   35  C12 UNL     1      45.739 -14.289  -7.956  1.00  0.00     0.037 C 
HETATM   36  C13 UNL     1      47.594 -15.694  -8.710  1.00  0.00     0.037 C 
ENDBRANCH  31  33
ENDBRANCH  12  31
ENDBRANCH   1   7
TORSDOF 9
ENDMDL
MODEL 5
REMARK VINA RESULT: -7.537604791      2.682      6.382
REMARK  9 active torsions:
REMARK  status: ('A' for Active; 'I' for Inactive)
REMARK    1  A    between atoms: N1_2  and  N2_4 
REMARK    2  A    between atoms: N2_4  and  C4_7 
REMARK    3  A    between atoms: C5_10  and  N5_11 
REMARK    4  A    between atoms: C6_14  and  N6_15 
REMARK    5  A    between atoms: C7_19  and  C8_20 
REMARK    6  A    between atoms: C8_20  and  N10_22 
REMARK    7  A    between atoms: N10_22  and  O1_24 
REMARK    8  A    between atoms: C9_28  and  N12_29 
REMARK    9  A    between atoms: N12_29  and  C10_31 
ROOT
HETATM    1  N2  UNL     1      49.198 -15.852 -13.187  1.00  0.00    -0.037 N 
HETATM    2  C3  UNL     1      50.394 -15.225 -13.555  1.00  0.00     0.216 C 
HETATM    3  N3  UNL     1      51.393 -14.707 -13.845  1.00  0.00    -0.170 NA
ENDROOT
BRANCH   1   4
HETATM    4  N1  UNL     1      49.121 -17.226 -13.306  1.00  0.00    -0.208 NA
HETATM    5  C1  UNL     1      49.772 -17.761 -14.463  1.00  0.00     0.137 C 
HETATM    6  C2  UNL     1      49.416 -17.931 -12.087  1.00  0.00     0.137 C 
ENDBRANCH   1   4
BRANCH   1   7
HETATM    7  C4  UNL     1      48.089 -15.091 -12.704  1.00  0.00     0.712 A 
HETATM    8  N4  UNL     1      47.042 -14.837 -13.495  1.00  0.00    -0.172 N 
HETATM    9  C5  UNL     1      46.029 -14.119 -12.991  1.00  0.00     0.149 A 
ATOM     10  H4  UNL     1      47.014 -15.181 -14.455  1.00  0.00     0.186 HD
HETATM   11  C6  UNL     1      46.066 -13.651 -11.684  1.00  0.00     0.161 A 
HETATM   12  C9  UNL     1      47.151 -13.918 -10.874  1.00  0.00     0.151 A 
HETATM   13  N13 UNL     1      48.132 -14.635 -11.422  1.00  0.00    -0.172 N 
ATOM     14  H13 UNL     1      48.952 -14.853 -10.855  1.00  0.00     0.186 HD
BRANCH   9  15
HETATM   15  N5  UNL     1      44.970 -13.828 -13.701  1.00  0.00    -0.383 N 
ATOM     16  H52 UNL     1      45.084 -13.147 -14.452  1.00  0.00     0.157 HD
ATOM     17  H51 UNL     1      44.065 -14.261 -13.518  1.00  0.00     0.157 HD
ENDBRANCH   9  15
BRANCH  11  18
HETATM   18  N6  UNL     1      44.952 -12.886 -11.194  1.00  0.00    -0.171 N 
HETATM   19  N7  UNL     1      44.854 -11.566 -11.245  1.00  0.00     0.003 NA
HETATM   20  N8  UNL     1      43.706 -11.181 -10.710  1.00  0.00    -0.264 N 
HETATM   21  C7  UNL     1      43.034 -12.292 -10.297  1.00  0.00     0.178 A 
ATOM     22  H8  UNL     1      43.380 -10.219 -10.622  1.00  0.00     0.186 HD
HETATM   23  N11 UNL     1      43.844 -13.317 -10.618  1.00  0.00    -0.261 N 
ATOM     24  H11 UNL     1      43.631 -14.298 -10.439  1.00  0.00     0.190 HD
BRANCH  21  25
HETATM   25  C8  UNL     1      41.730 -12.323  -9.654  1.00  0.00     0.182 C 
HETATM   26  N9  UNL     1      40.963 -11.147  -9.540  1.00  0.00    -0.077 NA
BRANCH  25  27
HETATM   27  N10 UNL     1      41.278 -13.433  -9.190  1.00  0.00    -0.252 N 
ATOM     28  H10 UNL     1      41.246 -13.543  -8.176  1.00  0.00     0.195 HD
BRANCH  27  29
HETATM   29  O1  UNL     1      40.843 -14.466  -9.948  1.00  0.00    -0.288 OA
ATOM     30  H1  UNL     1      40.946 -15.383  -9.724  1.00  0.00     0.244 HD
ENDBRANCH  27  29
ENDBRANCH  25  27
ENDBRANCH  21  25
ENDBRANCH  11  18
BRANCH  12  31
HETATM   31  N12 UNL     1      47.158 -13.428  -9.553  1.00  0.00    -0.366 N 
ATOM     32  H12 UNL     1      47.271 -12.420  -9.437  1.00  0.00     0.162 HD
BRANCH  31  33
HETATM   33  C10 UNL     1      47.022 -14.205  -8.350  1.00  0.00     0.021 C 
HETATM   34  C11 UNL     1      47.951 -13.723  -7.254  1.00  0.00     0.037 C 
HETATM   35  C12 UNL     1      45.639 -14.227  -7.788  1.00  0.00     0.037 C 
HETATM   36  C13 UNL     1      47.444 -15.631  -8.655  1.00  0.00     0.037 C 
ENDBRANCH  31  33
ENDBRANCH  12  31
ENDBRANCH   1   7
TORSDOF 9
ENDMDL
