MODEL 1
REMARK VINA RESULT: -9.608919240      0.000      0.000
REMARK  7 active torsions:
REMARK  status: ('A' for Active; 'I' for Inactive)
REMARK    1  A    between atoms: C2_2  and  C3_3 
REMARK    2  A    between atoms: C6_7  and  C7_8 
REMARK    3  A    between atoms: C9_10  and  N1_11 
REMARK    4  A    between atoms: N1_11  and  N2_13 
REMARK    5  A    between atoms: C10_15  and  C11_16 
REMARK    6  A    between atoms: C14_19  and  O1_20 
REMARK    7  A    between atoms: C22_30  and  C23_31 
ROOT
HETATM    1  C7  UNL     1      13.566  22.649   3.197  1.00  0.00     0.047 A 
HETATM    2  C8  UNL     1      13.713  22.649   4.592  1.00  0.00     0.061 A 
HETATM    3  C9  UNL     1      14.770  23.304   5.167  1.00  0.00     0.052 A 
HETATM    4  C19 UNL     1      15.681  23.961   4.351  1.00  0.00     0.055 A 
HETATM    5  C20 UNL     1      15.521  23.951   2.984  1.00  0.00     0.007 A 
HETATM    6  C21 UNL     1      16.497  24.648   2.076  1.00  0.00     0.068 C 
HETATM    7  N3  UNL     1      14.447  23.278   2.458  1.00  0.00    -0.359 N 
ATOM      8  H3  UNL     1      14.329  23.267   1.445  1.00  0.00     0.166 HD
ENDROOT
BRANCH   3   9
HETATM    9  N1  UNL     1      14.978  23.322   6.434  1.00  0.00    -0.301 N 
ATOM     10  H1  UNL     1      15.629  24.060   6.703  1.00  0.00     0.187 HD
BRANCH   9  11
HETATM   11  N2  UNL     1      14.568  22.638   7.457  1.00  0.00    -0.311 N 
HETATM   12  C10 UNL     1      14.007  22.664   8.556  1.00  0.00     0.118 C 
ATOM     13  H2  UNL     1      14.815  21.664   7.277  1.00  0.00     0.186 HD
BRANCH  12  14
HETATM   14  C11 UNL     1      13.450  23.788   9.303  1.00  0.00    -0.019 A 
HETATM   15  C12 UNL     1      13.787  25.092   9.146  1.00  0.00     0.015 A 
HETATM   16  C13 UNL     1      13.192  26.109   9.904  1.00  0.00     0.038 A 
HETATM   17  C14 UNL     1      12.232  25.822  10.848  1.00  0.00     0.074 A 
HETATM   18  C16 UNL     1      11.882  24.503  11.017  1.00  0.00    -0.028 A 
HETATM   19  C17 UNL     1      10.842  24.130  12.039  1.00  0.00     0.051 C 
HETATM   20  C18 UNL     1      12.470  23.511  10.270  1.00  0.00     0.022 A 
BRANCH  17  21
HETATM   21  O1  UNL     1      11.657  26.844  11.584  1.00  0.00    -0.355 OA
HETATM   22  C15 UNL     1      12.352  27.420  12.664  1.00  0.00     0.210 C 
ENDBRANCH  17  21
ENDBRANCH  12  14
ENDBRANCH   9  11
ENDBRANCH   3   9
BRANCH   1  23
HETATM   23  C6  UNL     1      12.377  22.012   2.699  1.00  0.00     0.019 A 
HETATM   24  C5  UNL     1      12.522  20.654   2.329  1.00  0.00     0.047 A 
HETATM   25  C4  UNL     1      11.422  19.940   1.985  1.00  0.00     0.031 A 
HETATM   26 CL1  UNL     1      14.149  20.007   2.305  1.00  0.00    -0.083 Cl
HETATM   27  C3  UNL     1      10.172  20.500   1.984  1.00  0.00    -0.056 A 
HETATM   28  C27 UNL     1      10.063  21.823   2.346  1.00  0.00     0.016 A 
HETATM   29  C22 UNL     1      11.150  22.651   2.722  1.00  0.00    -0.036 A 
BRANCH  27  30
HETATM   30  C2  UNL     1       8.954  19.753   1.622  1.00  0.00     0.034 C 
HETATM   31  C1  UNL     1       9.414  18.509   0.865  1.00  0.00     0.010 C 
ENDBRANCH  27  30
BRANCH  29  32
HETATM   32  C23 UNL     1      10.894  24.065   3.092  1.00  0.00    -0.023 C 
HETATM   33  C24 UNL     1      10.616  24.300   4.566  1.00  0.00     0.019 C 
HETATM   34  C25 UNL     1      11.627  25.132   2.386  1.00  0.00     0.019 C 
HETATM   35  C26 UNL     1       9.421  24.332   2.551  1.00  0.00     0.019 C 
ENDBRANCH  29  32
ENDBRANCH   1  23
TORSDOF 7
ENDMDL
MODEL 2
REMARK VINA RESULT: -9.310107177      3.085      6.240
REMARK  7 active torsions:
REMARK  status: ('A' for Active; 'I' for Inactive)
REMARK    1  A    between atoms: C2_2  and  C3_3 
REMARK    2  A    between atoms: C6_7  and  C7_8 
REMARK    3  A    between atoms: C9_10  and  N1_11 
REMARK    4  A    between atoms: N1_11  and  N2_13 
REMARK    5  A    between atoms: C10_15  and  C11_16 
REMARK    6  A    between atoms: C14_19  and  O1_20 
REMARK    7  A    between atoms: C22_30  and  C23_31 
ROOT
HETATM    1  C7  UNL     1      12.759  23.476   6.044  1.00  0.00     0.047 A 
HETATM    2  C8  UNL     1      13.920  24.248   5.886  1.00  0.00     0.061 A 
HETATM    3  C9  UNL     1      14.497  24.845   6.976  1.00  0.00     0.052 A 
HETATM    4  C19 UNL     1      13.918  24.670   8.225  1.00  0.00     0.055 A 
HETATM    5  C20 UNL     1      12.780  23.908   8.362  1.00  0.00     0.007 A 
HETATM    6  C21 UNL     1      12.128  23.708   9.703  1.00  0.00     0.068 C 
HETATM    7  N3  UNL     1      12.239  23.335   7.239  1.00  0.00    -0.359 N 
ATOM      8  H3  UNL     1      11.394  22.773   7.339  1.00  0.00     0.166 HD
ENDROOT
BRANCH   3   9
HETATM    9  N1  UNL     1      15.543  25.585   6.898  1.00  0.00    -0.301 N 
ATOM     10  H1  UNL     1      16.132  25.502   7.727  1.00  0.00     0.187 HD
BRANCH   9  11
HETATM   11  N2  UNL     1      16.040  26.411   6.029  1.00  0.00    -0.311 N 
HETATM   12  C10 UNL     1      16.626  26.543   4.951  1.00  0.00     0.118 C 
ATOM     13  H2  UNL     1      15.876  27.351   6.391  1.00  0.00     0.186 HD
BRANCH  12  14
HETATM   14  C11 UNL     1      17.103  25.535   4.008  1.00  0.00    -0.019 A 
HETATM   15  C12 UNL     1      18.399  25.232   3.757  1.00  0.00     0.015 A 
HETATM   16  C13 UNL     1      18.765  24.239   2.838  1.00  0.00     0.038 A 
HETATM   17  C14 UNL     1      17.813  23.526   2.146  1.00  0.00     0.074 A 
HETATM   18  C16 UNL     1      16.493  23.826   2.392  1.00  0.00    -0.028 A 
HETATM   19  C17 UNL     1      15.408  23.082   1.660  1.00  0.00     0.051 C 
HETATM   20  C18 UNL     1      16.142  24.800   3.294  1.00  0.00     0.022 A 
BRANCH  17  21
HETATM   21  O1  UNL     1      18.198  22.550   1.244  1.00  0.00    -0.355 OA
HETATM   22  C15 UNL     1      19.171  21.597   1.600  1.00  0.00     0.210 C 
ENDBRANCH  17  21
ENDBRANCH  12  14
ENDBRANCH   9  11
ENDBRANCH   3   9
BRANCH   1  23
HETATM   23  C6  UNL     1      12.284  22.820   4.856  1.00  0.00     0.019 A 
HETATM   24  C5  UNL     1      12.397  21.409   4.853  1.00  0.00     0.047 A 
HETATM   25  C4  UNL     1      11.845  20.703   3.837  1.00  0.00     0.031 A 
HETATM   26 CL1  UNL     1      13.297  20.682   6.168  1.00  0.00    -0.083 Cl
HETATM   27  C3  UNL     1      11.180  21.319   2.809  1.00  0.00    -0.056 A 
HETATM   28  C27 UNL     1      11.089  22.692   2.839  1.00  0.00     0.016 A 
HETATM   29  C22 UNL     1      11.631  23.517   3.856  1.00  0.00    -0.036 A 
BRANCH  27  30
HETATM   30  C2  UNL     1      10.563  20.584   1.691  1.00  0.00     0.034 C 
HETATM   31  C1  UNL     1      11.312  19.258   1.575  1.00  0.00     0.010 C 
ENDBRANCH  27  30
BRANCH  29  32
HETATM   32  C23 UNL     1      11.460  24.988   3.767  1.00  0.00    -0.023 C 
HETATM   33  C24 UNL     1      10.547  25.590   4.821  1.00  0.00     0.019 C 
HETATM   34  C25 UNL     1      12.605  25.816   3.343  1.00  0.00     0.019 C 
HETATM   35  C26 UNL     1      10.497  25.179   2.515  1.00  0.00     0.019 C 
ENDBRANCH  29  32
ENDBRANCH   1  23
TORSDOF 7
ENDMDL
MODEL 3
REMARK VINA RESULT: -9.230225603      3.166      6.472
REMARK  7 active torsions:
REMARK  status: ('A' for Active; 'I' for Inactive)
REMARK    1  A    between atoms: C2_2  and  C3_3 
REMARK    2  A    between atoms: C6_7  and  C7_8 
REMARK    3  A    between atoms: C9_10  and  N1_11 
REMARK    4  A    between atoms: N1_11  and  N2_13 
REMARK    5  A    between atoms: C10_15  and  C11_16 
REMARK    6  A    between atoms: C14_19  and  O1_20 
REMARK    7  A    between atoms: C22_30  and  C23_31 
ROOT
HETATM    1  C7  UNL     1      12.775  23.523   5.954  1.00  0.00     0.047 A 
HETATM    2  C8  UNL     1      13.944  24.259   5.706  1.00  0.00     0.061 A 
HETATM    3  C9  UNL     1      14.591  24.881   6.740  1.00  0.00     0.052 A 
HETATM    4  C19 UNL     1      14.075  24.770   8.023  1.00  0.00     0.055 A 
HETATM    5  C20 UNL     1      12.928  24.044   8.250  1.00  0.00     0.007 A 
HETATM    6  C21 UNL     1      12.343  23.913   9.629  1.00  0.00     0.068 C 
HETATM    7  N3  UNL     1      12.316  23.442   7.180  1.00  0.00    -0.359 N 
ATOM      8  H3  UNL     1      11.464  22.906   7.346  1.00  0.00     0.166 HD
ENDROOT
BRANCH   3   9
HETATM    9  N1  UNL     1      15.649  25.591   6.578  1.00  0.00    -0.301 N 
ATOM     10  H1  UNL     1      16.270  25.540   7.387  1.00  0.00     0.187 HD
BRANCH   9  11
HETATM   11  N2  UNL     1      16.128  26.355   5.645  1.00  0.00    -0.311 N 
HETATM   12  C10 UNL     1      16.704  26.412   4.555  1.00  0.00     0.118 C 
ATOM     13  H2  UNL     1      15.953  27.317   5.936  1.00  0.00     0.186 HD
BRANCH  12  14
HETATM   14  C11 UNL     1      17.189  25.342   3.688  1.00  0.00    -0.019 A 
HETATM   15  C12 UNL     1      16.439  24.621   2.820  1.00  0.00     0.015 A 
HETATM   16  C13 UNL     1      16.993  23.614   2.018  1.00  0.00     0.038 A 
HETATM   17  C14 UNL     1      18.335  23.314   2.081  1.00  0.00     0.074 A 
HETATM   18  C16 UNL     1      19.106  24.038   2.960  1.00  0.00    -0.028 A 
HETATM   19  C17 UNL     1      20.579  23.748   3.076  1.00  0.00     0.051 C 
HETATM   20  C18 UNL     1      18.556  25.023   3.743  1.00  0.00     0.022 A 
BRANCH  17  21
HETATM   21  O1  UNL     1      18.860  22.316   1.279  1.00  0.00    -0.355 OA
HETATM   22  C15 UNL     1      18.923  20.989   1.744  1.00  0.00     0.210 C 
ENDBRANCH  17  21
ENDBRANCH  12  14
ENDBRANCH   9  11
ENDBRANCH   3   9
BRANCH   1  23
HETATM   23  C6  UNL     1      12.223  22.834   4.820  1.00  0.00     0.019 A 
HETATM   24  C5  UNL     1      12.314  21.423   4.861  1.00  0.00     0.047 A 
HETATM   25  C4  UNL     1      11.694  20.691   3.904  1.00  0.00     0.031 A 
HETATM   26 CL1  UNL     1      13.278  20.726   6.147  1.00  0.00    -0.083 Cl
HETATM   27  C3  UNL     1      10.981  21.282   2.895  1.00  0.00    -0.056 A 
HETATM   28  C27 UNL     1      10.911  22.656   2.880  1.00  0.00     0.016 A 
HETATM   29  C22 UNL     1      11.523  23.507   3.835  1.00  0.00    -0.036 A 
BRANCH  27  30
HETATM   30  C2  UNL     1      10.289  20.518   1.841  1.00  0.00     0.034 C 
HETATM   31  C1  UNL     1      11.153  19.293   1.552  1.00  0.00     0.010 C 
ENDBRANCH  27  30
BRANCH  29  32
HETATM   32  C23 UNL     1      11.368  24.977   3.704  1.00  0.00    -0.023 C 
HETATM   33  C24 UNL     1      10.515  25.628   4.777  1.00  0.00     0.019 C 
HETATM   34  C25 UNL     1      12.503  25.772   3.197  1.00  0.00     0.019 C 
HETATM   35  C26 UNL     1      10.350  25.140   2.492  1.00  0.00     0.019 C 
ENDBRANCH  29  32
ENDBRANCH   1  23
TORSDOF 7
ENDMDL
MODEL 4
REMARK VINA RESULT: -9.204114053      1.826      3.217
REMARK  7 active torsions:
REMARK  status: ('A' for Active; 'I' for Inactive)
REMARK    1  A    between atoms: C2_2  and  C3_3 
REMARK    2  A    between atoms: C6_7  and  C7_8 
REMARK    3  A    between atoms: C9_10  and  N1_11 
REMARK    4  A    between atoms: N1_11  and  N2_13 
REMARK    5  A    between atoms: C10_15  and  C11_16 
REMARK    6  A    between atoms: C14_19  and  O1_20 
REMARK    7  A    between atoms: C22_30  and  C23_31 
ROOT
HETATM    1  C7  UNL     1      14.101  24.258   3.678  1.00  0.00     0.047 A 
HETATM    2  C8  UNL     1      14.353  23.991   5.032  1.00  0.00     0.061 A 
HETATM    3  C9  UNL     1      15.631  23.723   5.448  1.00  0.00     0.052 A 
HETATM    4  C19 UNL     1      16.658  23.722   4.515  1.00  0.00     0.055 A 
HETATM    5  C20 UNL     1      16.392  23.986   3.190  1.00  0.00     0.007 A 
HETATM    6  C21 UNL     1      17.485  23.984   2.157  1.00  0.00     0.068 C 
HETATM    7  N3  UNL     1      15.096  24.246   2.824  1.00  0.00    -0.359 N 
ATOM      8  H3  UNL     1      14.897  24.439   1.843  1.00  0.00     0.166 HD
ENDROOT
BRANCH   3   9
HETATM    9  N1  UNL     1      15.927  23.445   6.666  1.00  0.00    -0.301 N 
ATOM     10  H1  UNL     1      16.780  23.916   6.968  1.00  0.00     0.187 HD
BRANCH   9  11
HETATM   11  N2  UNL     1      15.414  22.716   7.609  1.00  0.00    -0.311 N 
HETATM   12  C10 UNL     1      14.680  22.682   8.601  1.00  0.00     0.118 C 
ATOM     13  H2  UNL     1      15.766  21.769   7.472  1.00  0.00     0.186 HD
BRANCH  12  14
HETATM   14  C11 UNL     1      13.918  23.748   9.246  1.00  0.00    -0.019 A 
HETATM   15  C12 UNL     1      14.110  25.078   9.075  1.00  0.00     0.015 A 
HETATM   16  C13 UNL     1      13.321  26.033   9.731  1.00  0.00     0.038 A 
HETATM   17  C14 UNL     1      12.311  25.654  10.585  1.00  0.00     0.074 A 
HETATM   18  C16 UNL     1      12.108  24.306  10.768  1.00  0.00    -0.028 A 
HETATM   19  C17 UNL     1      11.020  23.833  11.696  1.00  0.00     0.051 C 
HETATM   20  C18 UNL     1      12.884  23.376  10.121  1.00  0.00     0.022 A 
BRANCH  17  21
HETATM   21  O1  UNL     1      11.544  26.614  11.222  1.00  0.00    -0.355 OA
HETATM   22  C15 UNL     1      11.962  27.158  12.451  1.00  0.00     0.210 C 
ENDBRANCH  17  21
ENDBRANCH  12  14
ENDBRANCH   9  11
ENDBRANCH   3   9
BRANCH   1  23
HETATM   23  C6  UNL     1      12.746  24.617   3.359  1.00  0.00     0.019 A 
HETATM   24  C5  UNL     1      12.554  25.952   2.929  1.00  0.00     0.047 A 
HETATM   25  C4  UNL     1      11.336  26.332   2.473  1.00  0.00     0.031 A 
HETATM   26 CL1  UNL     1      13.924  27.034   3.066  1.00  0.00    -0.083 Cl
HETATM   27  C3  UNL     1      10.282  25.458   2.418  1.00  0.00    -0.056 A 
HETATM   28  C27 UNL     1      10.499  24.168   2.845  1.00  0.00     0.016 A 
HETATM   29  C22 UNL     1      11.733  23.675   3.336  1.00  0.00    -0.036 A 
BRANCH  27  30
HETATM   30  C2  UNL     1       8.946  25.834   1.924  1.00  0.00     0.034 C 
HETATM   31  C1  UNL     1       8.286  26.652   3.032  1.00  0.00     0.010 C 
ENDBRANCH  27  30
BRANCH  29  32
HETATM   32  C23 UNL     1      11.833  22.257   3.763  1.00  0.00    -0.023 C 
HETATM   33  C24 UNL     1      12.801  21.412   2.956  1.00  0.00     0.019 C 
HETATM   34  C25 UNL     1      11.722  21.934   5.199  1.00  0.00     0.019 C 
HETATM   35  C26 UNL     1      10.482  21.609   3.226  1.00  0.00     0.019 C 
ENDBRANCH  29  32
ENDBRANCH   1  23
TORSDOF 7
ENDMDL
MODEL 5
REMARK VINA RESULT: -9.081890294      2.600      4.889
REMARK  7 active torsions:
REMARK  status: ('A' for Active; 'I' for Inactive)
REMARK    1  A    between atoms: C2_2  and  C3_3 
REMARK    2  A    between atoms: C6_7  and  C7_8 
REMARK    3  A    between atoms: C9_10  and  N1_11 
REMARK    4  A    between atoms: N1_11  and  N2_13 
REMARK    5  A    between atoms: C10_15  and  C11_16 
REMARK    6  A    between atoms: C14_19  and  O1_20 
REMARK    7  A    between atoms: C22_30  and  C23_31 
ROOT
HETATM    1  C7  UNL     1      13.860  24.104   3.739  1.00  0.00     0.047 A 
HETATM    2  C8  UNL     1      13.473  23.535   4.961  1.00  0.00     0.061 A 
HETATM    3  C9  UNL     1      12.170  23.626   5.375  1.00  0.00     0.052 A 
HETATM    4  C19 UNL     1      11.251  24.283   4.570  1.00  0.00     0.055 A 
HETATM    5  C20 UNL     1      11.647  24.836   3.373  1.00  0.00     0.007 A 
HETATM    6  C21 UNL     1      10.673  25.559   2.484  1.00  0.00     0.068 C 
HETATM    7  N3  UNL     1      12.963  24.720   3.005  1.00  0.00    -0.359 N 
ATOM      8  H3  UNL     1      13.259  25.131   2.120  1.00  0.00     0.166 HD
ENDROOT
BRANCH   3   9
HETATM    9  N1  UNL     1      11.756  23.150   6.494  1.00  0.00    -0.301 N 
ATOM     10  H1  UNL     1      10.737  23.115   6.540  1.00  0.00     0.187 HD
BRANCH   9  11
HETATM   11  N2  UNL     1      12.307  22.702   7.580  1.00  0.00    -0.311 N 
HETATM   12  C10 UNL     1      12.690  22.963   8.724  1.00  0.00     0.118 C 
ATOM     13  H2  UNL     1      12.511  21.716   7.420  1.00  0.00     0.186 HD
BRANCH  12  14
HETATM   14  C11 UNL     1      12.647  24.218   9.468  1.00  0.00    -0.019 A 
HETATM   15  C12 UNL     1      13.274  25.369   9.124  1.00  0.00     0.015 A 
HETATM   16  C13 UNL     1      13.169  26.533   9.897  1.00  0.00     0.038 A 
HETATM   17  C14 UNL     1      12.417  26.554  11.050  1.00  0.00     0.074 A 
HETATM   18  C16 UNL     1      11.777  25.392  11.411  1.00  0.00    -0.028 A 
HETATM   19  C17 UNL     1      10.946  25.354  12.666  1.00  0.00     0.051 C 
HETATM   20  C18 UNL     1      11.884  24.255  10.648  1.00  0.00     0.022 A 
BRANCH  17  21
HETATM   21  O1  UNL     1      12.327  27.715  11.798  1.00  0.00    -0.355 OA
HETATM   22  C15 UNL     1      13.209  27.940  12.871  1.00  0.00     0.210 C 
ENDBRANCH  17  21
ENDBRANCH  12  14
ENDBRANCH   9  11
ENDBRANCH   3   9
BRANCH   1  23
HETATM   23  C6  UNL     1      15.225  23.876   3.352  1.00  0.00     0.019 A 
HETATM   24  C5  UNL     1      15.427  22.835   2.415  1.00  0.00     0.047 A 
HETATM   25  C4  UNL     1      16.663  22.647   1.890  1.00  0.00     0.031 A 
HETATM   26 CL1  UNL     1      14.045  21.828   2.037  1.00  0.00    -0.083 Cl
HETATM   27  C3  UNL     1      17.723  23.438   2.244  1.00  0.00    -0.056 A 
HETATM   28  C27 UNL     1      17.496  24.441   3.159  1.00  0.00     0.016 A 
HETATM   29  C22 UNL     1      16.244  24.717   3.762  1.00  0.00    -0.036 A 
BRANCH  27  30
HETATM   30  C2  UNL     1      19.078  23.268   1.690  1.00  0.00     0.034 C 
HETATM   31  C1  UNL     1      20.054  23.606   2.816  1.00  0.00     0.010 C 
ENDBRANCH  27  30
BRANCH  29  32
HETATM   32  C23 UNL     1      16.135  25.832   4.735  1.00  0.00    -0.023 C 
HETATM   33  C24 UNL     1      15.307  27.014   4.263  1.00  0.00     0.019 C 
HETATM   34  C25 UNL     1      16.067  25.519   6.175  1.00  0.00     0.019 C 
HETATM   35  C26 UNL     1      17.564  26.530   4.667  1.00  0.00     0.019 C 
ENDBRANCH  29  32
ENDBRANCH   1  23
TORSDOF 7
ENDMDL
