MODEL 1
REMARK VINA RESULT: -6.975202171      0.000      0.000
REMARK  7 active torsions:
REMARK  status: ('A' for Active; 'I' for Inactive)
REMARK    1  A    between atoms: C1_2  and  N1_3 
REMARK    2  A    between atoms: C1_2  and  N3_14 
REMARK    3  A    between atoms: N1_3  and  C2_5 
REMARK    4  A    between atoms: C2_5  and  C3_6 
REMARK    5  A    between atoms: C3_6  and  N2_7 
REMARK    6  A    between atoms: N3_14  and  N4_16 
REMARK    7  A    between atoms: C10_18  and  C11_19 
ROOT
HETATM    1  S1  UNL     1      -4.063  -0.786  11.889  1.00  0.00    -0.040 SA
HETATM    2  C1  UNL     1      -3.889   0.478  12.899  1.00  0.00     0.186 C 
ENDROOT
BRANCH   2   3
HETATM    3  N1  UNL     1      -3.290   1.658  12.407  1.00  0.00    -0.361 N 
ATOM      4  H1  UNL     1      -2.279   1.785  12.458  1.00  0.00     0.162 HD
BRANCH   3   5
HETATM    5  C2  UNL     1      -4.132   2.686  11.828  1.00  0.00     0.166 C 
BRANCH   5   6
HETATM    6  C3  UNL     1      -4.206   3.926  12.650  1.00  0.00     0.082 C 
BRANCH   6   7
HETATM    7  N2  UNL     1      -3.015   4.368  13.244  1.00  0.00    -0.372 N 
HETATM    8  C4  UNL     1      -2.102   5.097  12.471  1.00  0.00     0.063 C 
HETATM    9  C5  UNL     1      -1.335   6.173  13.220  1.00  0.00     0.044 C 
HETATM   10  C6  UNL     1      -2.239   7.342  13.479  1.00  0.00     0.005 C 
HETATM   11  C7  UNL     1      -3.011   7.203  14.769  1.00  0.00     0.002 C 
HETATM   12  C8  UNL     1      -3.872   5.969  14.790  1.00  0.00     0.020 C 
HETATM   13  C9  UNL     1      -3.087   4.694  14.638  1.00  0.00     0.127 C 
ENDBRANCH   6   7
ENDBRANCH   5   6
ENDBRANCH   3   5
ENDBRANCH   2   3
BRANCH   2  14
HETATM   14  N3  UNL     1      -4.325   0.402  14.235  1.00  0.00    -0.277 N 
ATOM     15  H3  UNL     1      -5.163  -0.145  14.426  1.00  0.00     0.189 HD
BRANCH  14  16
HETATM   16  N4  UNL     1      -3.699   1.016  15.316  1.00  0.00    -0.313 N 
HETATM   17  C10 UNL     1      -4.413   1.669  16.154  1.00  0.00     0.085 C 
ATOM     18  H4  UNL     1      -2.689   0.947  15.439  1.00  0.00     0.185 HD
BRANCH  17  19
HETATM   19  C11 UNL     1      -5.879   1.768  15.979  1.00  0.00     0.029 C 
HETATM   20  C12 UNL     1      -6.303   3.196  15.771  1.00  0.00     0.036 C 
HETATM   21  C13 UNL     1      -6.852   3.815  16.992  1.00  0.00    -0.030 C 
HETATM   22  C14 UNL     1      -6.881   3.252  18.174  1.00  0.00    -0.031 C 
HETATM   23  C15 UNL     1      -6.335   1.883  18.376  1.00  0.00     0.027 C 
HETATM   24  C16 UNL     1      -6.602   1.090  17.120  1.00  0.00     0.014 C 
ENDBRANCH  17  19
ENDBRANCH  14  16
ENDBRANCH   2  14
TORSDOF 7
ENDMDL
MODEL 2
REMARK VINA RESULT: -6.888793270      0.979      1.453
REMARK  7 active torsions:
REMARK  status: ('A' for Active; 'I' for Inactive)
REMARK    1  A    between atoms: C1_2  and  N1_3 
REMARK    2  A    between atoms: C1_2  and  N3_14 
REMARK    3  A    between atoms: N1_3  and  C2_5 
REMARK    4  A    between atoms: C2_5  and  C3_6 
REMARK    5  A    between atoms: C3_6  and  N2_7 
REMARK    6  A    between atoms: N3_14  and  N4_16 
REMARK    7  A    between atoms: C10_18  and  C11_19 
ROOT
HETATM    1  S1  UNL     1      -4.008  -0.552  11.886  1.00  0.00    -0.040 SA
HETATM    2  C1  UNL     1      -4.341   0.562  13.024  1.00  0.00     0.186 C 
ENDROOT
BRANCH   2   3
HETATM    3  N1  UNL     1      -4.682   1.868  12.610  1.00  0.00    -0.361 N 
ATOM      4  H1  UNL     1      -5.457   2.365  13.050  1.00  0.00     0.162 HD
BRANCH   3   5
HETATM    5  C2  UNL     1      -3.915   2.493  11.551  1.00  0.00     0.166 C 
BRANCH   5   6
HETATM    6  C3  UNL     1      -2.756   3.288  12.046  1.00  0.00     0.082 C 
BRANCH   6   7
HETATM    7  N2  UNL     1      -2.960   4.662  12.234  1.00  0.00    -0.372 N 
HETATM    8  C4  UNL     1      -4.117   5.253  11.710  1.00  0.00     0.063 C 
HETATM    9  C5  UNL     1      -4.694   6.389  12.537  1.00  0.00     0.044 C 
HETATM   10  C6  UNL     1      -5.380   5.826  13.747  1.00  0.00     0.005 C 
HETATM   11  C7  UNL     1      -4.441   5.650  14.916  1.00  0.00     0.002 C 
HETATM   12  C8  UNL     1      -3.295   4.730  14.594  1.00  0.00     0.020 C 
HETATM   13  C9  UNL     1      -2.444   5.217  13.451  1.00  0.00     0.127 C 
ENDBRANCH   6   7
ENDBRANCH   5   6
ENDBRANCH   3   5
ENDBRANCH   2   3
BRANCH   2  14
HETATM   14  N3  UNL     1      -4.292   0.237  14.392  1.00  0.00    -0.277 N 
ATOM     15  H3  UNL     1      -4.763  -0.617  14.690  1.00  0.00     0.189 HD
BRANCH  14  16
HETATM   16  N4  UNL     1      -3.650   0.990  15.371  1.00  0.00    -0.313 N 
HETATM   17  C10 UNL     1      -4.359   1.619  16.231  1.00  0.00     0.085 C 
ATOM     18  H4  UNL     1      -2.632   1.040  15.402  1.00  0.00     0.185 HD
BRANCH  17  19
HETATM   19  C11 UNL     1      -5.836   1.546  16.188  1.00  0.00     0.029 C 
HETATM   20  C12 UNL     1      -6.436   2.895  15.899  1.00  0.00     0.036 C 
HETATM   21  C13 UNL     1      -6.946   3.567  17.108  1.00  0.00    -0.030 C 
HETATM   22  C14 UNL     1      -6.810   3.121  18.332  1.00  0.00    -0.031 C 
HETATM   23  C15 UNL     1      -6.097   1.843  18.599  1.00  0.00     0.027 C 
HETATM   24  C16 UNL     1      -6.378   0.909  17.447  1.00  0.00     0.014 C 
ENDBRANCH  17  19
ENDBRANCH  14  16
ENDBRANCH   2  14
TORSDOF 7
ENDMDL
MODEL 3
REMARK VINA RESULT: -6.737439046      1.565      5.585
REMARK  7 active torsions:
REMARK  status: ('A' for Active; 'I' for Inactive)
REMARK    1  A    between atoms: C1_2  and  N1_3 
REMARK    2  A    between atoms: C1_2  and  N3_14 
REMARK    3  A    between atoms: N1_3  and  C2_5 
REMARK    4  A    between atoms: C2_5  and  C3_6 
REMARK    5  A    between atoms: C3_6  and  N2_7 
REMARK    6  A    between atoms: N3_14  and  N4_16 
REMARK    7  A    between atoms: C10_18  and  C11_19 
ROOT
HETATM    1  S1  UNL     1      -4.036   3.694  11.159  1.00  0.00    -0.040 SA
HETATM    2  C1  UNL     1      -2.849   3.050  12.067  1.00  0.00     0.186 C 
ENDROOT
BRANCH   2   3
HETATM    3  N1  UNL     1      -2.935   1.686  12.421  1.00  0.00    -0.361 N 
ATOM      4  H1  UNL     1      -2.100   1.099  12.429  1.00  0.00     0.162 HD
BRANCH   3   5
HETATM    5  C2  UNL     1      -4.227   1.131  12.773  1.00  0.00     0.166 C 
BRANCH   5   6
HETATM    6  C3  UNL     1      -4.414   0.945  14.240  1.00  0.00     0.082 C 
BRANCH   6   7
HETATM    7  N2  UNL     1      -4.546   2.105  15.017  1.00  0.00    -0.372 N 
HETATM    8  C4  UNL     1      -5.584   3.000  14.728  1.00  0.00     0.063 C 
HETATM    9  C5  UNL     1      -6.182   3.707  15.931  1.00  0.00     0.044 C 
HETATM   10  C6  UNL     1      -7.052   2.749  16.691  1.00  0.00     0.005 C 
HETATM   11  C7  UNL     1      -6.283   1.961  17.723  1.00  0.00     0.002 C 
HETATM   12  C8  UNL     1      -5.170   1.152  17.112  1.00  0.00     0.020 C 
HETATM   13  C9  UNL     1      -4.151   1.994  16.391  1.00  0.00     0.127 C 
ENDBRANCH   6   7
ENDBRANCH   5   6
ENDBRANCH   3   5
ENDBRANCH   2   3
BRANCH   2  14
HETATM   14  N3  UNL     1      -1.758   3.831  12.493  1.00  0.00    -0.277 N 
ATOM     15  H3  UNL     1      -1.177   4.259  11.773  1.00  0.00     0.189 HD
BRANCH  14  16
HETATM   16  N4  UNL     1      -1.411   4.063  13.820  1.00  0.00    -0.313 N 
HETATM   17  C10 UNL     1      -1.498   5.253  14.283  1.00  0.00     0.085 C 
ATOM     18  H4  UNL     1      -1.092   3.298  14.415  1.00  0.00     0.185 HD
BRANCH  17  19
HETATM   19  C11 UNL     1      -1.962   6.364  13.422  1.00  0.00     0.029 C 
HETATM   20  C12 UNL     1      -0.872   7.382  13.220  1.00  0.00     0.036 C 
HETATM   21  C13 UNL     1      -1.031   8.570  14.080  1.00  0.00    -0.030 C 
HETATM   22  C14 UNL     1      -1.942   8.711  15.009  1.00  0.00    -0.031 C 
HETATM   23  C15 UNL     1      -2.929   7.629  15.275  1.00  0.00     0.027 C 
HETATM   24  C16 UNL     1      -3.243   6.959  13.960  1.00  0.00     0.014 C 
ENDBRANCH  17  19
ENDBRANCH  14  16
ENDBRANCH   2  14
TORSDOF 7
ENDMDL
MODEL 4
REMARK VINA RESULT: -6.645146257      0.791      1.381
REMARK  7 active torsions:
REMARK  status: ('A' for Active; 'I' for Inactive)
REMARK    1  A    between atoms: C1_2  and  N1_3 
REMARK    2  A    between atoms: C1_2  and  N3_14 
REMARK    3  A    between atoms: N1_3  and  C2_5 
REMARK    4  A    between atoms: C2_5  and  C3_6 
REMARK    5  A    between atoms: C3_6  and  N2_7 
REMARK    6  A    between atoms: N3_14  and  N4_16 
REMARK    7  A    between atoms: C10_18  and  C11_19 
ROOT
HETATM    1  S1  UNL     1      -3.964  -0.624  11.890  1.00  0.00    -0.040 SA
HETATM    2  C1  UNL     1      -4.314   0.546  12.964  1.00  0.00     0.186 C 
ENDROOT
BRANCH   2   3
HETATM    3  N1  UNL     1      -4.644   1.831  12.479  1.00  0.00    -0.361 N 
ATOM      4  H1  UNL     1      -5.571   2.225  12.645  1.00  0.00     0.162 HD
BRANCH   3   5
HETATM    5  C2  UNL     1      -3.649   2.581  11.741  1.00  0.00     0.166 C 
BRANCH   5   6
HETATM    6  C3  UNL     1      -2.928   3.588  12.571  1.00  0.00     0.082 C 
BRANCH   6   7
HETATM    7  N2  UNL     1      -3.707   4.567  13.203  1.00  0.00    -0.372 N 
HETATM    8  C4  UNL     1      -3.391   4.940  14.516  1.00  0.00     0.063 C 
HETATM    9  C5  UNL     1      -3.638   6.401  14.850  1.00  0.00     0.044 C 
HETATM   10  C6  UNL     1      -2.568   7.244  14.222  1.00  0.00     0.005 C 
HETATM   11  C7  UNL     1      -2.912   7.661  12.812  1.00  0.00     0.002 C 
HETATM   12  C8  UNL     1      -3.131   6.482  11.904  1.00  0.00     0.020 C 
HETATM   13  C9  UNL     1      -4.253   5.585  12.355  1.00  0.00     0.127 C 
ENDBRANCH   6   7
ENDBRANCH   5   6
ENDBRANCH   3   5
ENDBRANCH   2   3
BRANCH   2  14
HETATM   14  N3  UNL     1      -4.289   0.291  14.348  1.00  0.00    -0.277 N 
ATOM     15  H3  UNL     1      -4.781  -0.537  14.682  1.00  0.00     0.189 HD
BRANCH  14  16
HETATM   16  N4  UNL     1      -3.645   1.081  15.295  1.00  0.00    -0.313 N 
HETATM   17  C10 UNL     1      -4.352   1.773  16.107  1.00  0.00     0.085 C 
ATOM     18  H4  UNL     1      -2.626   1.107  15.343  1.00  0.00     0.185 HD
BRANCH  17  19
HETATM   19  C11 UNL     1      -5.829   1.734  16.041  1.00  0.00     0.029 C 
HETATM   20  C12 UNL     1      -6.400   3.117  15.876  1.00  0.00     0.036 C 
HETATM   21  C13 UNL     1      -6.913   3.680  17.139  1.00  0.00    -0.030 C 
HETATM   22  C14 UNL     1      -6.801   3.116  18.315  1.00  0.00    -0.031 C 
HETATM   23  C15 UNL     1      -6.116   1.804  18.466  1.00  0.00     0.027 C 
HETATM   24  C16 UNL     1      -6.399   0.991  17.227  1.00  0.00     0.014 C 
ENDBRANCH  17  19
ENDBRANCH  14  16
ENDBRANCH   2  14
TORSDOF 7
ENDMDL
MODEL 5
REMARK VINA RESULT: -6.410527959      1.988      3.003
REMARK  7 active torsions:
REMARK  status: ('A' for Active; 'I' for Inactive)
REMARK    1  A    between atoms: C1_2  and  N1_3 
REMARK    2  A    between atoms: C1_2  and  N3_14 
REMARK    3  A    between atoms: N1_3  and  C2_5 
REMARK    4  A    between atoms: C2_5  and  C3_6 
REMARK    5  A    between atoms: C3_6  and  N2_7 
REMARK    6  A    between atoms: N3_14  and  N4_16 
REMARK    7  A    between atoms: C10_18  and  C11_19 
ROOT
HETATM    1  S1  UNL     1      -3.602   4.069  11.122  1.00  0.00    -0.040 SA
HETATM    2  C1  UNL     1      -2.700   3.555  12.374  1.00  0.00     0.186 C 
ENDROOT
BRANCH   2   3
HETATM    3  N1  UNL     1      -1.300   3.729  12.315  1.00  0.00    -0.361 N 
ATOM      4  H1  UNL     1      -0.673   3.006  12.668  1.00  0.00     0.162 HD
BRANCH   3   5
HETATM    5  C2  UNL     1      -0.767   4.950  11.744  1.00  0.00     0.166 C 
BRANCH   5   6
HETATM    6  C3  UNL     1      -0.418   5.979  12.764  1.00  0.00     0.082 C 
BRANCH   6   7
HETATM    7  N2  UNL     1      -1.406   6.921  13.082  1.00  0.00    -0.372 N 
HETATM    8  C4  UNL     1      -2.151   6.752  14.256  1.00  0.00     0.063 C 
HETATM    9  C5  UNL     1      -2.556   8.037  14.956  1.00  0.00     0.044 C 
HETATM   10  C6  UNL     1      -1.363   8.624  15.651  1.00  0.00     0.005 C 
HETATM   11  C7  UNL     1      -0.562   9.538  14.756  1.00  0.00     0.002 C 
HETATM   12  C8  UNL     1      -0.052   8.833  13.528  1.00  0.00     0.020 C 
HETATM   13  C9  UNL     1      -1.151   8.269  12.667  1.00  0.00     0.127 C 
ENDBRANCH   6   7
ENDBRANCH   5   6
ENDBRANCH   3   5
ENDBRANCH   2   3
BRANCH   2  14
HETATM   14  N3  UNL     1      -3.296   2.948  13.495  1.00  0.00    -0.277 N 
ATOM     15  H3  UNL     1      -4.032   2.263  13.323  1.00  0.00     0.189 HD
BRANCH  14  16
HETATM   16  N4  UNL     1      -2.960   3.209  14.820  1.00  0.00    -0.313 N 
HETATM   17  C10 UNL     1      -3.816   2.953  15.737  1.00  0.00     0.085 C 
ATOM     18  H4  UNL     1      -2.047   3.597  15.056  1.00  0.00     0.185 HD
BRANCH  17  19
HETATM   19  C11 UNL     1      -5.139   2.388  15.396  1.00  0.00     0.029 C 
HETATM   20  C12 UNL     1      -6.242   3.360  15.719  1.00  0.00     0.036 C 
HETATM   21  C13 UNL     1      -6.928   3.048  16.986  1.00  0.00    -0.030 C 
HETATM   22  C14 UNL     1      -6.574   2.105  17.822  1.00  0.00    -0.031 C 
HETATM   23  C15 UNL     1      -5.398   1.239  17.537  1.00  0.00     0.027 C 
HETATM   24  C16 UNL     1      -5.327   1.035  16.043  1.00  0.00     0.014 C 
ENDBRANCH  17  19
ENDBRANCH  14  16
ENDBRANCH   2  14
TORSDOF 7
ENDMDL
