MODEL 1
REMARK VINA RESULT: -5.469978936      0.000      0.000
REMARK  11 active torsions:
REMARK  status: ('A' for Active; 'I' for Inactive)
REMARK    1  A    between atoms: N1_1  and  C1_4 
REMARK    2  A    between atoms: N5_18  and  C7_19 
REMARK    3  A    between atoms: C8_23  and  C9_24 
REMARK    4  A    between atoms: C9_24  and  N7_25 
REMARK    5  A    between atoms: N7_25  and  C10_28 
REMARK    6  A    between atoms: C10_28  and  C11_29 
REMARK    7  A    between atoms: C11_29  and  N8_30 
REMARK    8  A    between atoms: N8_30  and  N9_31 
REMARK    9  A    between atoms: N9_31  and  N10_32 
REMARK   10  A    between atoms: C12_35  and  C13_36 
REMARK   11  A    between atoms: C13_36  and  O3_37 
ROOT
HETATM    1  C7  UNL     1      22.967   4.915  17.367  1.00  0.00     0.441 C 
HETATM    2  N6  UNL     1      22.798   3.640  17.929  1.00  0.00    -0.022 N 
ATOM      3  H61 UNL     1      22.287   2.989  17.333  1.00  0.00     0.283 HD
ATOM      4  H62 UNL     1      22.146   3.616  18.713  1.00  0.00     0.283 HD
HETATM    5  C8  UNL     1      24.101   3.217  18.254  1.00  0.00     0.247 C 
HETATM    6  C12 UNL     1      24.721   4.486  18.730  1.00  0.00     0.182 C 
HETATM    7  O4  UNL     1      24.054   5.481  18.044  1.00  0.00    -0.334 OA
ENDROOT
BRANCH   1   8
HETATM    8  N5  UNL     1      23.258   4.992  15.960  1.00  0.00    -0.232 N 
HETATM    9  C2  UNL     1      23.795   6.157  15.483  1.00  0.00     0.148 A 
HETATM   10  N2  UNL     1      24.045   7.194  16.281  1.00  0.00    -0.175 N 
HETATM   11  C3  UNL     1      24.087   6.278  14.151  1.00  0.00     0.093 A 
HETATM   12  C1  UNL     1      24.570   8.348  15.835  1.00  0.00     0.677 A 
ATOM     13  H2  UNL     1      23.829   7.108  17.274  1.00  0.00     0.186 HD
HETATM   14  N3  UNL     1      24.850   8.448  14.522  1.00  0.00    -0.201 N 
HETATM   15  C4  UNL     1      24.631   7.456  13.656  1.00  0.00     0.127 A 
ATOM     16  H3  UNL     1      25.249   9.320  14.174  1.00  0.00     0.183 HD
HETATM   17  C5  UNL     1      23.827   5.205  13.320  1.00  0.00     0.264 A 
HETATM   18  O1  UNL     1      24.099   5.323  12.093  1.00  0.00    -0.267 OA
HETATM   19  N4  UNL     1      23.301   4.092  13.846  1.00  0.00    -0.274 N 
HETATM   20  C6  UNL     1      23.004   3.949  15.156  1.00  0.00     0.334 A 
ATOM     21  H4  UNL     1      23.113   3.307  13.222  1.00  0.00     0.173 HD
HETATM   22  O2  UNL     1      22.502   2.852  15.580  1.00  0.00    -0.246 OA
BRANCH  12  23
HETATM   23  N1  UNL     1      24.804   9.344  16.632  1.00  0.00    -0.234 N 
ATOM     24  H12 UNL     1      25.673   9.384  17.165  1.00  0.00     0.174 HD
ATOM     25  H11 UNL     1      24.137  10.107  16.748  1.00  0.00     0.174 HD
ENDBRANCH  12  23
ENDBRANCH   1   8
BRANCH   5  26
HETATM   26  C9  UNL     1      24.195   2.068  19.201  1.00  0.00     0.268 C 
BRANCH  26  27
HETATM   27  N7  UNL     1      23.261   1.049  18.798  1.00  0.00    -0.072 N 
ATOM     28  H72 UNL     1      22.653   1.361  18.042  1.00  0.00     0.277 HD
ATOM     29  H71 UNL     1      23.718   0.279  18.310  1.00  0.00     0.277 HD
BRANCH  27  30
HETATM   30  C10 UNL     1      22.511   0.598  19.956  1.00  0.00     0.249 C 
BRANCH  30  31
HETATM   31  C11 UNL     1      21.022   0.523  19.645  1.00  0.00     0.159 C 
BRANCH  31  32
HETATM   32  N8  UNL     1      20.656   1.672  18.813  1.00  0.00    -0.125 NA
BRANCH  32  33
HETATM   33  N9  UNL     1      20.465   1.286  17.486  1.00  0.00    -0.039 NA
BRANCH  33  34
HETATM   34  N10 UNL     1      19.358   0.432  17.417  1.00  0.00    -0.332 N 
ATOM     35 2H10 UNL     1      18.615   0.498  16.721  1.00  0.00     0.173 HD
ATOM     36 1H10 UNL     1      19.422  -0.254  18.169  1.00  0.00     0.173 HD
ENDBRANCH  33  34
ENDBRANCH  32  33
ENDBRANCH  31  32
ENDBRANCH  30  31
ENDBRANCH  27  30
ENDBRANCH  26  27
ENDBRANCH   5  26
BRANCH   6  37
HETATM   37  C13 UNL     1      24.551   4.745  20.200  1.00  0.00     0.198 C 
BRANCH  37  38
HETATM   38  O3  UNL     1      24.315   6.101  20.449  1.00  0.00    -0.398 OA
ATOM     39  H3  UNL     1      23.813   6.498  19.747  1.00  0.00     0.209 HD
ENDBRANCH  37  38
ENDBRANCH   6  37
TORSDOF 11
ENDMDL
MODEL 2
REMARK VINA RESULT: -5.415271140      2.135      7.356
REMARK  11 active torsions:
REMARK  status: ('A' for Active; 'I' for Inactive)
REMARK    1  A    between atoms: N1_1  and  C1_4 
REMARK    2  A    between atoms: N5_18  and  C7_19 
REMARK    3  A    between atoms: C8_23  and  C9_24 
REMARK    4  A    between atoms: C9_24  and  N7_25 
REMARK    5  A    between atoms: N7_25  and  C10_28 
REMARK    6  A    between atoms: C10_28  and  C11_29 
REMARK    7  A    between atoms: C11_29  and  N8_30 
REMARK    8  A    between atoms: N8_30  and  N9_31 
REMARK    9  A    between atoms: N9_31  and  N10_32 
REMARK   10  A    between atoms: C12_35  and  C13_36 
REMARK   11  A    between atoms: C13_36  and  O3_37 
ROOT
HETATM    1  C7  UNL     1      22.578   4.155  17.549  1.00  0.00     0.441 C 
HETATM    2  N6  UNL     1      23.366   5.281  17.264  1.00  0.00    -0.022 N 
ATOM      3  H61 UNL     1      23.852   5.663  18.075  1.00  0.00     0.283 HD
ATOM      4  H62 UNL     1      22.828   6.119  17.046  1.00  0.00     0.283 HD
HETATM    5  C8  UNL     1      24.224   4.864  16.228  1.00  0.00     0.247 C 
HETATM    6  C12 UNL     1      23.320   3.999  15.418  1.00  0.00     0.182 C 
HETATM    7  O4  UNL     1      22.408   3.498  16.324  1.00  0.00    -0.334 OA
ENDROOT
BRANCH   1   8
HETATM    8  N5  UNL     1      23.102   3.190  18.478  1.00  0.00    -0.232 N 
HETATM    9  C2  UNL     1      22.346   2.079  18.737  1.00  0.00     0.148 A 
HETATM   10  N2  UNL     1      21.164   1.883  18.157  1.00  0.00    -0.175 N 
HETATM   11  C3  UNL     1      22.804   1.134  19.616  1.00  0.00     0.093 A 
HETATM   12  C1  UNL     1      20.403   0.801  18.398  1.00  0.00     0.677 A 
ATOM     13  H2  UNL     1      20.820   2.585  17.502  1.00  0.00     0.186 HD
HETATM   14  N3  UNL     1      20.870  -0.117  19.265  1.00  0.00    -0.201 N 
HETATM   15  C4  UNL     1      22.044   0.003  19.887  1.00  0.00     0.127 A 
ATOM     16  H3  UNL     1      20.300  -0.943  19.454  1.00  0.00     0.183 HD
HETATM   17  C5  UNL     1      24.029   1.334  20.221  1.00  0.00     0.264 A 
HETATM   18  O1  UNL     1      24.445   0.459  21.030  1.00  0.00    -0.267 OA
HETATM   19  N4  UNL     1      24.722   2.442  19.927  1.00  0.00    -0.274 N 
HETATM   20  C6  UNL     1      24.292   3.389  19.064  1.00  0.00     0.334 A 
ATOM     21  H4  UNL     1      25.625   2.579  20.381  1.00  0.00     0.173 HD
HETATM   22  O2  UNL     1      25.015   4.420  18.838  1.00  0.00    -0.246 OA
BRANCH  12  23
HETATM   23  N1  UNL     1      19.254   0.632  17.820  1.00  0.00    -0.234 N 
ATOM     24  H12 UNL     1      19.028   1.139  16.965  1.00  0.00     0.174 HD
ATOM     25  H11 UNL     1      18.552  -0.004  18.199  1.00  0.00     0.174 HD
ENDBRANCH  12  23
ENDBRANCH   1   8
BRANCH   5  26
HETATM   26  C9  UNL     1      24.909   5.952  15.472  1.00  0.00     0.268 C 
BRANCH  26  27
HETATM   27  N7  UNL     1      25.765   5.365  14.475  1.00  0.00    -0.072 N 
ATOM     28  H72 UNL     1      26.596   4.938  14.883  1.00  0.00     0.277 HD
ATOM     29  H71 UNL     1      25.358   4.525  14.063  1.00  0.00     0.277 HD
BRANCH  27  30
HETATM   30  C10 UNL     1      26.095   6.362  13.474  1.00  0.00     0.249 C 
BRANCH  30  31
HETATM   31  C11 UNL     1      26.263   5.722  12.102  1.00  0.00     0.159 C 
BRANCH  31  32
HETATM   32  N8  UNL     1      25.021   5.900  11.345  1.00  0.00    -0.125 NA
BRANCH  32  33
HETATM   33  N9  UNL     1      24.191   6.837  11.963  1.00  0.00    -0.039 NA
BRANCH  33  34
HETATM   34  N10 UNL     1      23.364   7.417  10.995  1.00  0.00    -0.332 N 
ATOM     35 2H10 UNL     1      23.360   7.166  10.007  1.00  0.00     0.173 HD
ATOM     36 1H10 UNL     1      22.777   8.122  11.442  1.00  0.00     0.173 HD
ENDBRANCH  33  34
ENDBRANCH  32  33
ENDBRANCH  31  32
ENDBRANCH  30  31
ENDBRANCH  27  30
ENDBRANCH  26  27
ENDBRANCH   5  26
BRANCH   6  37
HETATM   37  C13 UNL     1      22.556   4.729  14.351  1.00  0.00     0.198 C 
BRANCH  37  38
HETATM   38  O3  UNL     1      23.006   4.375  13.074  1.00  0.00    -0.398 OA
ATOM     39  H3  UNL     1      22.657   4.961  12.412  1.00  0.00     0.209 HD
ENDBRANCH  37  38
ENDBRANCH   6  37
TORSDOF 11
ENDMDL
MODEL 3
REMARK VINA RESULT: -5.328158333      2.198      6.882
REMARK  11 active torsions:
REMARK  status: ('A' for Active; 'I' for Inactive)
REMARK    1  A    between atoms: N1_1  and  C1_4 
REMARK    2  A    between atoms: N5_18  and  C7_19 
REMARK    3  A    between atoms: C8_23  and  C9_24 
REMARK    4  A    between atoms: C9_24  and  N7_25 
REMARK    5  A    between atoms: N7_25  and  C10_28 
REMARK    6  A    between atoms: C10_28  and  C11_29 
REMARK    7  A    between atoms: C11_29  and  N8_30 
REMARK    8  A    between atoms: N8_30  and  N9_31 
REMARK    9  A    between atoms: N9_31  and  N10_32 
REMARK   10  A    between atoms: C12_35  and  C13_36 
REMARK   11  A    between atoms: C13_36  and  O3_37 
ROOT
HETATM    1  C7  UNL     1      23.417   2.159  17.344  1.00  0.00     0.441 C 
HETATM    2  N6  UNL     1      22.858   3.298  16.744  1.00  0.00    -0.022 N 
ATOM      3  H61 UNL     1      21.886   3.182  16.459  1.00  0.00     0.283 HD
ATOM      4  H62 UNL     1      23.228   3.502  15.816  1.00  0.00     0.283 HD
HETATM    5  C8  UNL     1      23.060   4.331  17.680  1.00  0.00     0.247 C 
HETATM    6  C12 UNL     1      24.412   3.997  18.212  1.00  0.00     0.182 C 
HETATM    7  O4  UNL     1      24.509   2.626  18.086  1.00  0.00    -0.334 OA
ENDROOT
BRANCH   1   8
HETATM    8  N5  UNL     1      22.588   1.401  18.242  1.00  0.00    -0.232 N 
HETATM    9  C2  UNL     1      23.188   0.815  19.323  1.00  0.00     0.148 A 
HETATM   10  N2  UNL     1      24.495   0.933  19.550  1.00  0.00    -0.175 N 
HETATM   11  C3  UNL     1      22.439   0.082  20.204  1.00  0.00     0.093 A 
HETATM   12  C1  UNL     1      25.107   0.365  20.604  1.00  0.00     0.677 A 
ATOM     13  H2  UNL     1      25.056   1.479  18.896  1.00  0.00     0.186 HD
HETATM   14  N3  UNL     1      24.354  -0.352  21.459  1.00  0.00    -0.201 N 
HETATM   15  C4  UNL     1      23.039  -0.518  21.304  1.00  0.00     0.127 A 
ATOM     16  H3  UNL     1      24.809  -0.787  22.262  1.00  0.00     0.183 HD
HETATM   17  C5  UNL     1      21.084  -0.044  19.970  1.00  0.00     0.264 A 
HETATM   18  O1  UNL     1      20.399  -0.722  20.787  1.00  0.00    -0.267 OA
HETATM   19  N4  UNL     1      20.554   0.552  18.895  1.00  0.00    -0.274 N 
HETATM   20  C6  UNL     1      21.272   1.280  18.011  1.00  0.00     0.334 A 
ATOM     21  H4  UNL     1      19.552   0.451  18.733  1.00  0.00     0.173 HD
HETATM   22  O2  UNL     1      20.690   1.818  17.007  1.00  0.00    -0.246 OA
BRANCH  12  23
HETATM   23  N1  UNL     1      26.382   0.494  20.804  1.00  0.00    -0.234 N 
ATOM     24  H12 UNL     1      27.004   0.726  20.030  1.00  0.00     0.174 HD
ATOM     25  H11 UNL     1      26.796   0.371  21.729  1.00  0.00     0.174 HD
ENDBRANCH  12  23
ENDBRANCH   1   8
BRANCH   5  26
HETATM   26  C9  UNL     1      22.906   5.720  17.160  1.00  0.00     0.268 C 
BRANCH  26  27
HETATM   27  N7  UNL     1      22.677   5.668  15.739  1.00  0.00    -0.072 N 
ATOM     28  H72 UNL     1      22.850   4.739  15.355  1.00  0.00     0.277 HD
ATOM     29  H71 UNL     1      21.687   5.740  15.506  1.00  0.00     0.277 HD
BRANCH  27  30
HETATM   30  C10 UNL     1      23.472   6.690  15.084  1.00  0.00     0.249 C 
BRANCH  30  31
HETATM   31  C11 UNL     1      24.484   6.066  14.132  1.00  0.00     0.159 C 
BRANCH  31  32
HETATM   32  N8  UNL     1      24.098   4.676  13.880  1.00  0.00    -0.125 NA
BRANCH  32  33
HETATM   33  N9  UNL     1      23.253   4.586  12.774  1.00  0.00    -0.039 NA
BRANCH  33  34
HETATM   34  N10 UNL     1      23.437   3.340  12.163  1.00  0.00    -0.332 N 
ATOM     35 2H10 UNL     1      24.296   3.040  11.702  1.00  0.00     0.173 HD
ATOM     36 1H10 UNL     1      22.580   2.795  12.259  1.00  0.00     0.173 HD
ENDBRANCH  33  34
ENDBRANCH  32  33
ENDBRANCH  31  32
ENDBRANCH  30  31
ENDBRANCH  27  30
ENDBRANCH  26  27
ENDBRANCH   5  26
BRANCH   6  37
HETATM   37  C13 UNL     1      25.548   4.612  17.445  1.00  0.00     0.198 C 
BRANCH  37  38
HETATM   38  O3  UNL     1      25.907   3.817  16.351  1.00  0.00    -0.398 OA
ATOM     39  H3  UNL     1      26.614   3.224  16.575  1.00  0.00     0.209 HD
ENDBRANCH  37  38
ENDBRANCH   6  37
TORSDOF 11
ENDMDL
MODEL 4
REMARK VINA RESULT: -5.261984624      1.609      1.753
REMARK  11 active torsions:
REMARK  status: ('A' for Active; 'I' for Inactive)
REMARK    1  A    between atoms: N1_1  and  C1_4 
REMARK    2  A    between atoms: N5_18  and  C7_19 
REMARK    3  A    between atoms: C8_23  and  C9_24 
REMARK    4  A    between atoms: C9_24  and  N7_25 
REMARK    5  A    between atoms: N7_25  and  C10_28 
REMARK    6  A    between atoms: C10_28  and  C11_29 
REMARK    7  A    between atoms: C11_29  and  N8_30 
REMARK    8  A    between atoms: N8_30  and  N9_31 
REMARK    9  A    between atoms: N9_31  and  N10_32 
REMARK   10  A    between atoms: C12_35  and  C13_36 
REMARK   11  A    between atoms: C13_36  and  O3_37 
ROOT
HETATM    1  C7  UNL     1      23.417   3.724  18.205  1.00  0.00     0.441 C 
HETATM    2  N6  UNL     1      23.005   2.447  18.616  1.00  0.00    -0.022 N 
ATOM      3  H61 UNL     1      22.170   2.106  18.140  1.00  0.00     0.283 HD
ATOM      4  H62 UNL     1      22.619   2.419  19.560  1.00  0.00     0.283 HD
HETATM    5  C8  UNL     1      24.139   1.631  18.437  1.00  0.00     0.247 C 
HETATM    6  C12 UNL     1      25.240   2.548  18.848  1.00  0.00     0.182 C 
HETATM    7  O4  UNL     1      24.769   3.813  18.558  1.00  0.00    -0.334 OA
ENDROOT
BRANCH   1   8
HETATM    8  N5  UNL     1      23.323   4.037  16.804  1.00  0.00    -0.232 N 
HETATM    9  C2  UNL     1      24.134   5.025  16.317  1.00  0.00     0.148 A 
HETATM   10  N2  UNL     1      24.988   5.684  17.099  1.00  0.00    -0.175 N 
HETATM   11  C3  UNL     1      24.079   5.360  14.990  1.00  0.00     0.093 A 
HETATM   12  C1  UNL     1      25.794   6.658  16.643  1.00  0.00     0.677 A 
ATOM     13  H2  UNL     1      25.032   5.437  18.088  1.00  0.00     0.186 HD
HETATM   14  N3  UNL     1      25.725   6.973  15.336  1.00  0.00    -0.201 N 
HETATM   15  C4  UNL     1      24.898   6.361  14.485  1.00  0.00     0.127 A 
ATOM     16  H3  UNL     1      26.332   7.712  14.980  1.00  0.00     0.183 HD
HETATM   17  C5  UNL     1      23.195   4.680  14.176  1.00  0.00     0.264 A 
HETATM   18  O1  UNL     1      23.149   4.994  12.953  1.00  0.00    -0.267 OA
HETATM   19  N4  UNL     1      22.426   3.724  14.711  1.00  0.00    -0.274 N 
HETATM   20  C6  UNL     1      22.462   3.376  16.017  1.00  0.00     0.334 A 
ATOM     21  H4  UNL     1      21.776   3.230  14.100  1.00  0.00     0.173 HD
HETATM   22  O2  UNL     1      21.693   2.451  16.451  1.00  0.00    -0.246 OA
BRANCH  12  23
HETATM   23  N1  UNL     1      26.616   7.286  17.426  1.00  0.00    -0.234 N 
ATOM     24  H12 UNL     1      26.263   7.858  18.192  1.00  0.00     0.174 HD
ATOM     25  H11 UNL     1      27.627   7.225  17.300  1.00  0.00     0.174 HD
ENDBRANCH  12  23
ENDBRANCH   1   8
BRANCH   5  26
HETATM   26  C9  UNL     1      24.112   0.315  19.138  1.00  0.00     0.268 C 
BRANCH  26  27
HETATM   27  N7  UNL     1      22.981  -0.444  18.670  1.00  0.00    -0.072 N 
ATOM     28  H72 UNL     1      22.282   0.144  18.219  1.00  0.00     0.277 HD
ATOM     29  H71 UNL     1      23.216  -1.031  17.869  1.00  0.00     0.277 HD
BRANCH  27  30
HETATM   30  C10 UNL     1      22.427  -1.212  19.770  1.00  0.00     0.249 C 
BRANCH  30  31
HETATM   31  C11 UNL     1      21.596  -0.326  20.688  1.00  0.00     0.159 C 
BRANCH  31  32
HETATM   32  N8  UNL     1      20.287  -0.103  20.069  1.00  0.00    -0.125 NA
BRANCH  32  33
HETATM   33  N9  UNL     1      20.328   0.985  19.197  1.00  0.00    -0.039 NA
BRANCH  33  34
HETATM   34  N10 UNL     1      19.707   0.625  17.995  1.00  0.00    -0.332 N 
ATOM     35 2H10 UNL     1      19.983   0.965  17.073  1.00  0.00     0.173 HD
ATOM     36 1H10 UNL     1      18.946  -0.024  18.197  1.00  0.00     0.173 HD
ENDBRANCH  33  34
ENDBRANCH  32  33
ENDBRANCH  31  32
ENDBRANCH  30  31
ENDBRANCH  27  30
ENDBRANCH  26  27
ENDBRANCH   5  26
BRANCH   6  37
HETATM   37  C13 UNL     1      25.568   2.503  20.313  1.00  0.00     0.198 C 
BRANCH  37  38
HETATM   38  O3  UNL     1      24.828   3.453  21.026  1.00  0.00    -0.398 OA
ATOM     39  H3  UNL     1      24.530   3.102  21.857  1.00  0.00     0.209 HD
ENDBRANCH  37  38
ENDBRANCH   6  37
TORSDOF 11
ENDMDL
MODEL 5
REMARK VINA RESULT: -5.184913598      2.162      6.772
REMARK  11 active torsions:
REMARK  status: ('A' for Active; 'I' for Inactive)
REMARK    1  A    between atoms: N1_1  and  C1_4 
REMARK    2  A    between atoms: N5_18  and  C7_19 
REMARK    3  A    between atoms: C8_23  and  C9_24 
REMARK    4  A    between atoms: C9_24  and  N7_25 
REMARK    5  A    between atoms: N7_25  and  C10_28 
REMARK    6  A    between atoms: C10_28  and  C11_29 
REMARK    7  A    between atoms: C11_29  and  N8_30 
REMARK    8  A    between atoms: N8_30  and  N9_31 
REMARK    9  A    between atoms: N9_31  and  N10_32 
REMARK   10  A    between atoms: C12_35  and  C13_36 
REMARK   11  A    between atoms: C13_36  and  O3_37 
ROOT
HETATM    1  C7  UNL     1      24.125   2.344  16.961  1.00  0.00     0.441 C 
HETATM    2  N6  UNL     1      23.909   3.457  16.133  1.00  0.00    -0.022 N 
ATOM      3  H61 UNL     1      23.017   3.440  15.639  1.00  0.00     0.283 HD
ATOM      4  H62 UNL     1      24.501   3.478  15.303  1.00  0.00     0.283 HD
HETATM    5  C8  UNL     1      24.073   4.570  16.980  1.00  0.00     0.247 C 
HETATM    6  C12 UNL     1      25.200   4.127  17.848  1.00  0.00     0.182 C 
HETATM    7  O4  UNL     1      25.091   2.751  17.889  1.00  0.00    -0.334 OA
ENDROOT
BRANCH   1   8
HETATM    8  N5  UNL     1      23.004   1.840  17.708  1.00  0.00    -0.232 N 
HETATM    9  C2  UNL     1      23.267   1.112  18.837  1.00  0.00     0.148 A 
HETATM   10  N2  UNL     1      24.512   0.870  19.243  1.00  0.00    -0.175 N 
HETATM   11  C3  UNL     1      22.232   0.610  19.580  1.00  0.00     0.093 A 
HETATM   12  C1  UNL     1      24.795   0.157  20.347  1.00  0.00     0.677 A 
ATOM     13  H2  UNL     1      25.285   1.243  18.692  1.00  0.00     0.186 HD
HETATM   14  N3  UNL     1      23.764  -0.329  21.064  1.00  0.00    -0.201 N 
HETATM   15  C4  UNL     1      22.488  -0.131  20.727  1.00  0.00     0.127 A 
ATOM     16  H3  UNL     1      23.968  -0.872  21.904  1.00  0.00     0.183 HD
HETATM   17  C5  UNL     1      20.940   0.858  19.162  1.00  0.00     0.264 A 
HETATM   18  O1  UNL     1      19.990   0.392  19.851  1.00  0.00    -0.267 OA
HETATM   19  N4  UNL     1      20.746   1.577  18.048  1.00  0.00    -0.274 N 
HETATM   20  C6  UNL     1      21.750   2.082  17.298  1.00  0.00     0.334 A 
ATOM     21  H4  UNL     1      19.787   1.752  17.749  1.00  0.00     0.173 HD
HETATM   22  O2  UNL     1      21.482   2.758  16.246  1.00  0.00    -0.246 OA
BRANCH  12  23
HETATM   23  N1  UNL     1      26.016  -0.066  20.722  1.00  0.00    -0.234 N 
ATOM     24  H12 UNL     1      26.795   0.181  20.112  1.00  0.00     0.174 HD
ATOM     25  H11 UNL     1      26.231  -0.489  21.625  1.00  0.00     0.174 HD
ENDBRANCH  12  23
ENDBRANCH   1   8
BRANCH   5  26
HETATM   26  C9  UNL     1      24.271   5.883  16.301  1.00  0.00     0.268 C 
BRANCH  26  27
HETATM   27  N7  UNL     1      23.294   6.022  15.252  1.00  0.00    -0.072 N 
ATOM     28  H72 UNL     1      22.852   5.133  15.017  1.00  0.00     0.277 HD
ATOM     29  H71 UNL     1      22.461   6.520  15.565  1.00  0.00     0.277 HD
BRANCH  27  30
HETATM   30  C10 UNL     1      23.910   6.651  14.099  1.00  0.00     0.249 C 
BRANCH  30  31
HETATM   31  C11 UNL     1      25.026   5.781  13.534  1.00  0.00     0.159 C 
BRANCH  31  32
HETATM   32  N8  UNL     1      24.502   5.026  12.394  1.00  0.00    -0.125 NA
BRANCH  32  33
HETATM   33  N9  UNL     1      23.401   4.256  12.769  1.00  0.00    -0.039 NA
BRANCH  33  34
HETATM   34  N10 UNL     1      23.378   3.090  11.994  1.00  0.00    -0.332 N 
ATOM     35 2H10 UNL     1      22.810   2.959  11.158  1.00  0.00     0.173 HD
ATOM     36 1H10 UNL     1      24.017   2.408  12.405  1.00  0.00     0.173 HD
ENDBRANCH  33  34
ENDBRANCH  32  33
ENDBRANCH  31  32
ENDBRANCH  30  31
ENDBRANCH  27  30
ENDBRANCH  26  27
ENDBRANCH   5  26
BRANCH   6  37
HETATM   37  C13 UNL     1      26.563   4.465  17.314  1.00  0.00     0.198 C 
BRANCH  37  38
HETATM   38  O3  UNL     1      26.950   3.568  16.313  1.00  0.00    -0.398 OA
ATOM     39  H3  UNL     1      26.412   2.784  16.328  1.00  0.00     0.209 HD
ENDBRANCH  37  38
ENDBRANCH   6  37
TORSDOF 11
ENDMDL
