MODEL 1
REMARK VINA RESULT: -10.215076899      0.000      0.000
REMARK  10 active torsions:
REMARK  status: ('A' for Active; 'I' for Inactive)
REMARK       I    between atoms: C1_4  and  N3_6 
REMARK       I    between atoms: N3_6  and  C2_8 
REMARK    1  A    between atoms: C2_8  and  C3_10 
REMARK    2  A    between atoms: C3_10  and  N4_11 
REMARK    3  A    between atoms: C3_10  and  C4_15 
REMARK    4  A    between atoms: C4_15  and  N5_16 
REMARK    5  A    between atoms: C4_15  and  C13_31 
REMARK       I    between atoms: N5_16  and  C5_18 
REMARK    6  A    between atoms: C5_18  and  C6_20 
REMARK    7  A    between atoms: C6_20  and  N6_21 
REMARK    8  A    between atoms: C6_20  and  C7_25 
REMARK    9  A    between atoms: C13_31  and  N7_32 
REMARK   10  A    between atoms: C13_31  and  O3_36 
ROOT
HETATM    1  C4  UNL     1      60.521  35.731  74.341  1.00  0.00     0.085 C 
ENDROOT
BRANCH   1   2
HETATM    2  C3  UNL     1      59.063  35.655  74.061  1.00  0.00     0.324 C 
BRANCH   2   3
HETATM    3  C2  UNL     1      58.244  34.807  74.927  1.00  0.00     0.260 C 
HETATM    4  N3  UNL     1      58.520  33.491  75.258  1.00  0.00    -0.299 N 
HETATM    5  C1  UNL     1      57.644  32.733  76.118  1.00  0.00     0.188 C 
ATOM      6  H3  UNL     1      59.361  33.049  74.887  1.00  0.00     0.171 HD
HETATM    7  N1  UNL     1      57.892  31.506  76.433  1.00  0.00    -0.373 N 
HETATM    8  N2  UNL     1      56.483  33.342  76.633  1.00  0.00    -0.064 NA
ATOM      9  H12 UNL     1      57.273  30.970  77.041  1.00  0.00     0.158 HD
ATOM     10  H11 UNL     1      58.732  31.065  76.060  1.00  0.00     0.158 HD
HETATM   11  O1  UNL     1      57.187  35.330  75.424  1.00  0.00    -0.270 OA
ENDBRANCH   2   3
BRANCH   2  12
HETATM   12  N4  UNL     1      58.567  37.046  74.434  1.00  0.00    -0.061 N 
ATOM     13  H43 UNL     1      57.706  37.339  73.970  1.00  0.00     0.275 HD
ATOM     14  H42 UNL     1      58.198  37.136  75.381  1.00  0.00     0.275 HD
ATOM     15  H41 UNL     1      59.386  37.618  74.232  1.00  0.00     0.275 HD
ENDBRANCH   2  12
ENDBRANCH   1   2
BRANCH   1  16
HETATM   16  N5  UNL     1      60.808  36.020  75.717  1.00  0.00    -0.326 N 
HETATM   17  C5  UNL     1      61.126  35.229  76.815  1.00  0.00     0.253 C 
HETATM   18  O2  UNL     1      61.232  33.986  76.899  1.00  0.00    -0.271 OA
ATOM     19  H5  UNL     1      60.771  37.015  75.935  1.00  0.00     0.168 HD
BRANCH  17  20
HETATM   20  C6  UNL     1      61.403  35.907  78.167  1.00  0.00     0.279 C 
BRANCH  20  21
HETATM   21  N6  UNL     1      60.369  36.855  78.478  1.00  0.00    -0.066 N 
ATOM     22  H63 UNL     1      59.454  36.410  78.540  1.00  0.00     0.275 HD
ATOM     23  H62 UNL     1      60.441  37.193  79.438  1.00  0.00     0.275 HD
ATOM     24  H61 UNL     1      60.372  37.622  77.805  1.00  0.00     0.275 HD
ENDBRANCH  20  21
BRANCH  20  25
HETATM   25  C7  UNL     1      62.732  36.642  78.060  1.00  0.00     0.025 C 
HETATM   26  C8  UNL     1      63.076  37.284  79.384  1.00  0.00     0.007 C 
HETATM   27  C9  UNL     1      64.566  37.428  79.552  1.00  0.00     0.000 C 
HETATM   28  C10 UNL     1      65.296  37.483  78.228  1.00  0.00     0.000 C 
HETATM   29  C11 UNL     1      65.120  36.212  77.436  1.00  0.00     0.000 C 
HETATM   30  C12 UNL     1      63.780  35.592  77.768  1.00  0.00     0.007 C 
ENDBRANCH  20  25
ENDBRANCH  17  20
ENDBRANCH   1  16
BRANCH   1  31
HETATM   31  C13 UNL     1      61.390  36.454  73.389  1.00  0.00     0.365 C 
BRANCH  31  32
HETATM   32  N7  UNL     1      61.034  36.392  72.015  1.00  0.00    -0.048 N 
ATOM     33  H73 UNL     1      60.972  35.417  71.724  1.00  0.00     0.277 HD
ATOM     34  H72 UNL     1      60.064  36.686  71.901  1.00  0.00     0.277 HD
ATOM     35  H71 UNL     1      61.624  36.906  71.359  1.00  0.00     0.277 HD
ENDBRANCH  31  32
BRANCH  31  36
HETATM   36  O3  UNL     1      61.445  37.840  73.745  1.00  0.00    -0.365 OA
ATOM     37  H3  UNL     1      61.137  38.368  73.018  1.00  0.00     0.212 HD
ENDBRANCH  31  36
ENDBRANCH   1  31
TORSDOF 10
ENDMDL
MODEL 2
REMARK VINA RESULT: -9.872828110      1.973      4.199
REMARK  10 active torsions:
REMARK  status: ('A' for Active; 'I' for Inactive)
REMARK       I    between atoms: C1_4  and  N3_6 
REMARK       I    between atoms: N3_6  and  C2_8 
REMARK    1  A    between atoms: C2_8  and  C3_10 
REMARK    2  A    between atoms: C3_10  and  N4_11 
REMARK    3  A    between atoms: C3_10  and  C4_15 
REMARK    4  A    between atoms: C4_15  and  N5_16 
REMARK    5  A    between atoms: C4_15  and  C13_31 
REMARK       I    between atoms: N5_16  and  C5_18 
REMARK    6  A    between atoms: C5_18  and  C6_20 
REMARK    7  A    between atoms: C6_20  and  N6_21 
REMARK    8  A    between atoms: C6_20  and  C7_25 
REMARK    9  A    between atoms: C13_31  and  N7_32 
REMARK   10  A    between atoms: C13_31  and  O3_36 
ROOT
HETATM    1  C4  UNL     1      59.224  35.767  73.869  1.00  0.00     0.085 C 
ENDROOT
BRANCH   1   2
HETATM    2  C3  UNL     1      59.900  34.946  72.829  1.00  0.00     0.324 C 
BRANCH   2   3
HETATM    3  C2  UNL     1      61.350  35.069  72.698  1.00  0.00     0.260 C 
HETATM    4  N3  UNL     1      62.038  36.243  72.438  1.00  0.00    -0.299 N 
HETATM    5  C1  UNL     1      63.475  36.261  72.318  1.00  0.00     0.188 C 
ATOM      6  H3  UNL     1      61.516  37.113  72.329  1.00  0.00     0.171 HD
HETATM    7  N1  UNL     1      64.126  37.349  72.076  1.00  0.00    -0.373 N 
HETATM    8  N2  UNL     1      64.198  35.061  72.469  1.00  0.00    -0.064 NA
ATOM      9  H12 UNL     1      65.142  37.363  71.991  1.00  0.00     0.158 HD
ATOM     10  H11 UNL     1      63.603  38.218  71.967  1.00  0.00     0.158 HD
HETATM   11  O1  UNL     1      62.042  34.001  72.841  1.00  0.00    -0.270 OA
ENDBRANCH   2   3
BRANCH   2  12
HETATM   12  N4  UNL     1      59.758  33.527  73.365  1.00  0.00    -0.061 N 
ATOM     13  H43 UNL     1      60.159  32.798  72.774  1.00  0.00     0.275 HD
ATOM     14  H42 UNL     1      60.331  33.312  74.181  1.00  0.00     0.275 HD
ATOM     15  H41 UNL     1      58.751  33.462  73.513  1.00  0.00     0.275 HD
ENDBRANCH   2  12
ENDBRANCH   1   2
BRANCH   1  16
HETATM   16  N5  UNL     1      59.803  35.601  75.171  1.00  0.00    -0.326 N 
HETATM   17  C5  UNL     1      60.849  36.225  75.840  1.00  0.00     0.253 C 
HETATM   18  O2  UNL     1      61.614  37.135  75.453  1.00  0.00    -0.271 OA
ATOM     19  H5  UNL     1      59.353  34.870  75.721  1.00  0.00     0.168 HD
BRANCH  17  20
HETATM   20  C6  UNL     1      61.180  35.791  77.278  1.00  0.00     0.279 C 
BRANCH  20  21
HETATM   21  N6  UNL     1      60.091  36.100  78.162  1.00  0.00    -0.066 N 
ATOM     22  H63 UNL     1      59.961  37.106  78.266  1.00  0.00     0.275 HD
ATOM     23  H62 UNL     1      59.188  35.871  77.746  1.00  0.00     0.275 HD
ATOM     24  H61 UNL     1      60.219  35.640  79.064  1.00  0.00     0.275 HD
ENDBRANCH  20  21
BRANCH  20  25
HETATM   25  C7  UNL     1      62.416  36.560  77.727  1.00  0.00     0.025 C 
HETATM   26  C8  UNL     1      62.288  36.936  79.186  1.00  0.00     0.007 C 
HETATM   27  C9  UNL     1      63.640  37.074  79.835  1.00  0.00     0.000 C 
HETATM   28  C10 UNL     1      64.731  37.403  78.839  1.00  0.00     0.000 C 
HETATM   29  C11 UNL     1      64.907  36.310  77.816  1.00  0.00     0.000 C 
HETATM   30  C12 UNL     1      63.583  35.610  77.594  1.00  0.00     0.007 C 
ENDBRANCH  20  25
ENDBRANCH  17  20
ENDBRANCH   1  16
BRANCH   1  31
HETATM   31  C13 UNL     1      57.747  35.825  73.879  1.00  0.00     0.365 C 
BRANCH  31  32
HETATM   32  N7  UNL     1      57.090  35.782  72.621  1.00  0.00    -0.048 N 
ATOM     33  H73 UNL     1      57.725  36.115  71.895  1.00  0.00     0.277 HD
ATOM     34  H72 UNL     1      56.968  34.810  72.334  1.00  0.00     0.277 HD
ATOM     35  H71 UNL     1      56.199  36.273  72.545  1.00  0.00     0.277 HD
ENDBRANCH  31  32
BRANCH  31  36
HETATM   36  O3  UNL     1      57.229  34.742  74.659  1.00  0.00    -0.365 OA
ATOM     37  H3  UNL     1      56.285  34.821  74.727  1.00  0.00     0.212 HD
ENDBRANCH  31  36
ENDBRANCH   1  31
TORSDOF 10
ENDMDL
MODEL 3
REMARK VINA RESULT: -9.809418338      0.460      1.117
REMARK  10 active torsions:
REMARK  status: ('A' for Active; 'I' for Inactive)
REMARK       I    between atoms: C1_4  and  N3_6 
REMARK       I    between atoms: N3_6  and  C2_8 
REMARK    1  A    between atoms: C2_8  and  C3_10 
REMARK    2  A    between atoms: C3_10  and  N4_11 
REMARK    3  A    between atoms: C3_10  and  C4_15 
REMARK    4  A    between atoms: C4_15  and  N5_16 
REMARK    5  A    between atoms: C4_15  and  C13_31 
REMARK       I    between atoms: N5_16  and  C5_18 
REMARK    6  A    between atoms: C5_18  and  C6_20 
REMARK    7  A    between atoms: C6_20  and  N6_21 
REMARK    8  A    between atoms: C6_20  and  C7_25 
REMARK    9  A    between atoms: C13_31  and  N7_32 
REMARK   10  A    between atoms: C13_31  and  O3_36 
ROOT
HETATM    1  C4  UNL     1      60.420  35.616  74.346  1.00  0.00     0.085 C 
ENDROOT
BRANCH   1   2
HETATM    2  C3  UNL     1      58.947  35.579  74.145  1.00  0.00     0.324 C 
BRANCH   2   3
HETATM    3  C2  UNL     1      58.161  34.703  75.012  1.00  0.00     0.260 C 
HETATM    4  N3  UNL     1      58.499  33.408  75.367  1.00  0.00    -0.299 N 
HETATM    5  C1  UNL     1      57.650  32.618  76.226  1.00  0.00     0.188 C 
ATOM      6  H3  UNL     1      59.366  33.004  75.014  1.00  0.00     0.171 HD
HETATM    7  N1  UNL     1      57.955  31.411  76.563  1.00  0.00    -0.373 N 
HETATM    8  N2  UNL     1      56.452  33.174  76.715  1.00  0.00    -0.064 NA
ATOM      9  H12 UNL     1      57.356  30.852  77.170  1.00  0.00     0.158 HD
ATOM     10  H11 UNL     1      58.823  31.008  76.208  1.00  0.00     0.158 HD
HETATM   11  O1  UNL     1      57.071  35.178  75.487  1.00  0.00    -0.270 OA
ENDBRANCH   2   3
BRANCH   2  12
HETATM   12  N4  UNL     1      58.501  36.958  74.614  1.00  0.00    -0.061 N 
ATOM     13  H43 UNL     1      57.616  37.284  74.224  1.00  0.00     0.275 HD
ATOM     14  H42 UNL     1      58.200  37.009  75.587  1.00  0.00     0.275 HD
ATOM     15  H41 UNL     1      59.315  37.528  74.381  1.00  0.00     0.275 HD
ENDBRANCH   2  12
ENDBRANCH   1   2
BRANCH   1  16
HETATM   16  N5  UNL     1      60.789  35.932  75.695  1.00  0.00    -0.326 N 
HETATM   17  C5  UNL     1      61.194  35.167  76.782  1.00  0.00     0.253 C 
HETATM   18  O2  UNL     1      61.333  33.928  76.878  1.00  0.00    -0.271 OA
ATOM     19  H5  UNL     1      60.744  36.930  75.901  1.00  0.00     0.168 HD
BRANCH  17  20
HETATM   20  C6  UNL     1      61.543  35.872  78.104  1.00  0.00     0.279 C 
BRANCH  20  21
HETATM   21  N6  UNL     1      61.005  37.204  78.122  1.00  0.00    -0.066 N 
ATOM     22  H63 UNL     1      61.584  37.853  77.589  1.00  0.00     0.275 HD
ATOM     23  H62 UNL     1      60.149  37.275  77.571  1.00  0.00     0.275 HD
ATOM     24  H61 UNL     1      60.865  37.521  79.081  1.00  0.00     0.275 HD
ENDBRANCH  20  21
BRANCH  20  25
HETATM   25  C7  UNL     1      63.060  35.950  78.208  1.00  0.00     0.025 C 
HETATM   26  C8  UNL     1      63.678  35.858  76.832  1.00  0.00     0.007 C 
HETATM   27  C9  UNL     1      65.008  36.562  76.781  1.00  0.00     0.000 C 
HETATM   28  C10 UNL     1      65.671  36.648  78.139  1.00  0.00     0.000 C 
HETATM   29  C11 UNL     1      64.849  37.450  79.116  1.00  0.00     0.000 C 
HETATM   30  C12 UNL     1      63.381  37.315  78.771  1.00  0.00     0.007 C 
ENDBRANCH  20  25
ENDBRANCH  17  20
ENDBRANCH   1  16
BRANCH   1  31
HETATM   31  C13 UNL     1      61.259  36.283  73.328  1.00  0.00     0.365 C 
BRANCH  31  32
HETATM   32  N7  UNL     1      60.782  36.276  71.991  1.00  0.00    -0.048 N 
ATOM     33  H73 UNL     1      59.898  35.768  71.949  1.00  0.00     0.277 HD
ATOM     34  H72 UNL     1      60.473  37.214  71.735  1.00  0.00     0.277 HD
ATOM     35  H71 UNL     1      61.413  35.918  71.274  1.00  0.00     0.277 HD
ENDBRANCH  31  32
BRANCH  31  36
HETATM   36  O3  UNL     1      61.459  37.653  73.694  1.00  0.00    -0.365 OA
ATOM     37  H3  UNL     1      61.483  38.191  72.912  1.00  0.00     0.212 HD
ENDBRANCH  31  36
ENDBRANCH   1  31
TORSDOF 10
ENDMDL
MODEL 4
REMARK VINA RESULT: -9.789637887      1.903      2.214
REMARK  10 active torsions:
REMARK  status: ('A' for Active; 'I' for Inactive)
REMARK       I    between atoms: C1_4  and  N3_6 
REMARK       I    between atoms: N3_6  and  C2_8 
REMARK    1  A    between atoms: C2_8  and  C3_10 
REMARK    2  A    between atoms: C3_10  and  N4_11 
REMARK    3  A    between atoms: C3_10  and  C4_15 
REMARK    4  A    between atoms: C4_15  and  N5_16 
REMARK    5  A    between atoms: C4_15  and  C13_31 
REMARK       I    between atoms: N5_16  and  C5_18 
REMARK    6  A    between atoms: C5_18  and  C6_20 
REMARK    7  A    between atoms: C6_20  and  N6_21 
REMARK    8  A    between atoms: C6_20  and  C7_25 
REMARK    9  A    between atoms: C13_31  and  N7_32 
REMARK   10  A    between atoms: C13_31  and  O3_36 
ROOT
HETATM    1  C4  UNL     1      61.538  35.020  73.292  1.00  0.00     0.085 C 
ENDROOT
BRANCH   1   2
HETATM    2  C3  UNL     1      60.243  34.291  73.243  1.00  0.00     0.324 C 
BRANCH   2   3
HETATM    3  C2  UNL     1      60.076  33.135  74.122  1.00  0.00     0.260 C 
HETATM    4  N3  UNL     1      58.991  32.904  74.950  1.00  0.00    -0.299 N 
HETATM    5  C1  UNL     1      58.921  31.732  75.789  1.00  0.00     0.188 C 
ATOM      6  H3  UNL     1      58.224  33.577  74.968  1.00  0.00     0.171 HD
HETATM    7  N1  UNL     1      57.914  31.508  76.565  1.00  0.00    -0.373 N 
HETATM    8  N2  UNL     1      59.978  30.801  75.767  1.00  0.00    -0.064 NA
ATOM      9  H12 UNL     1      57.865  30.679  77.159  1.00  0.00     0.158 HD
ATOM     10  H11 UNL     1      57.149  32.182  76.582  1.00  0.00     0.158 HD
HETATM   11  O1  UNL     1      61.011  32.260  74.119  1.00  0.00    -0.270 OA
ENDBRANCH   2   3
BRANCH   2  12
HETATM   12  N4  UNL     1      59.266  35.286  73.855  1.00  0.00    -0.061 N 
ATOM     13  H43 UNL     1      58.363  34.896  74.130  1.00  0.00     0.275 HD
ATOM     14  H42 UNL     1      59.511  35.619  74.788  1.00  0.00     0.275 HD
ATOM     15  H41 UNL     1      59.226  36.006  73.134  1.00  0.00     0.275 HD
ENDBRANCH   2  12
ENDBRANCH   1   2
BRANCH   1  16
HETATM   16  N5  UNL     1      62.211  34.874  74.550  1.00  0.00    -0.326 N 
HETATM   17  C5  UNL     1      62.029  35.443  75.805  1.00  0.00     0.253 C 
HETATM   18  O2  UNL     1      61.194  36.295  76.181  1.00  0.00    -0.271 OA
ATOM     19  H5  UNL     1      62.987  34.213  74.518  1.00  0.00     0.168 HD
BRANCH  17  20
HETATM   20  C6  UNL     1      62.951  35.016  76.960  1.00  0.00     0.279 C 
BRANCH  20  21
HETATM   21  N6  UNL     1      62.234  34.207  77.905  1.00  0.00    -0.066 N 
ATOM     22  H63 UNL     1      61.225  34.301  77.796  1.00  0.00     0.275 HD
ATOM     23  H62 UNL     1      62.319  33.212  77.694  1.00  0.00     0.275 HD
ATOM     24  H61 UNL     1      62.533  34.418  78.857  1.00  0.00     0.275 HD
ENDBRANCH  20  21
BRANCH  20  25
HETATM   25  C7  UNL     1      63.441  36.277  77.659  1.00  0.00     0.025 C 
HETATM   26  C8  UNL     1      62.839  36.367  79.043  1.00  0.00     0.007 C 
HETATM   27  C9  UNL     1      63.730  37.143  79.977  1.00  0.00     0.000 C 
HETATM   28  C10 UNL     1      64.633  38.113  79.246  1.00  0.00     0.000 C 
HETATM   29  C11 UNL     1      65.581  37.404  78.312  1.00  0.00     0.000 C 
HETATM   30  C12 UNL     1      64.937  36.129  77.812  1.00  0.00     0.007 C 
ENDBRANCH  20  25
ENDBRANCH  17  20
ENDBRANCH   1  16
BRANCH   1  31
HETATM   31  C13 UNL     1      61.604  36.388  72.737  1.00  0.00     0.365 C 
BRANCH  31  32
HETATM   32  N7  UNL     1      62.838  36.795  72.165  1.00  0.00    -0.048 N 
ATOM     33  H73 UNL     1      63.110  36.133  71.438  1.00  0.00     0.277 HD
ATOM     34  H72 UNL     1      62.694  37.638  71.609  1.00  0.00     0.277 HD
ATOM     35  H71 UNL     1      63.621  36.939  72.803  1.00  0.00     0.277 HD
ENDBRANCH  31  32
BRANCH  31  36
HETATM   36  O3  UNL     1      60.602  36.546  71.728  1.00  0.00    -0.365 OA
ATOM     37  H3  UNL     1      59.841  36.976  72.099  1.00  0.00     0.212 HD
ENDBRANCH  31  36
ENDBRANCH   1  31
TORSDOF 10
ENDMDL
MODEL 5
REMARK VINA RESULT: -9.787084293      1.591      1.994
REMARK  10 active torsions:
REMARK  status: ('A' for Active; 'I' for Inactive)
REMARK       I    between atoms: C1_4  and  N3_6 
REMARK       I    between atoms: N3_6  and  C2_8 
REMARK    1  A    between atoms: C2_8  and  C3_10 
REMARK    2  A    between atoms: C3_10  and  N4_11 
REMARK    3  A    between atoms: C3_10  and  C4_15 
REMARK    4  A    between atoms: C4_15  and  N5_16 
REMARK    5  A    between atoms: C4_15  and  C13_31 
REMARK       I    between atoms: N5_16  and  C5_18 
REMARK    6  A    between atoms: C5_18  and  C6_20 
REMARK    7  A    between atoms: C6_20  and  N6_21 
REMARK    8  A    between atoms: C6_20  and  C7_25 
REMARK    9  A    between atoms: C13_31  and  N7_32 
REMARK   10  A    between atoms: C13_31  and  O3_36 
ROOT
HETATM    1  C4  UNL     1      61.177  35.299  73.668  1.00  0.00     0.085 C 
ENDROOT
BRANCH   1   2
HETATM    2  C3  UNL     1      60.306  34.177  73.228  1.00  0.00     0.324 C 
BRANCH   2   3
HETATM    3  C2  UNL     1      60.099  33.067  74.156  1.00  0.00     0.260 C 
HETATM    4  N3  UNL     1      58.961  32.855  74.915  1.00  0.00    -0.299 N 
HETATM    5  C1  UNL     1      58.854  31.730  75.812  1.00  0.00     0.188 C 
ATOM      6  H3  UNL     1      58.181  33.509  74.839  1.00  0.00     0.171 HD
HETATM    7  N1  UNL     1      57.798  31.523  76.524  1.00  0.00    -0.373 N 
HETATM    8  N2  UNL     1      59.929  30.826  75.920  1.00  0.00    -0.064 NA
ATOM      9  H12 UNL     1      57.722  30.728  77.159  1.00  0.00     0.158 HD
ATOM     10  H11 UNL     1      57.020  32.177  76.447  1.00  0.00     0.158 HD
HETATM   11  O1  UNL     1      61.050  32.218  74.271  1.00  0.00    -0.270 OA
ENDBRANCH   2   3
BRANCH   2  12
HETATM   12  N4  UNL     1      58.921  34.810  73.191  1.00  0.00    -0.061 N 
ATOM     13  H43 UNL     1      58.563  35.018  72.258  1.00  0.00     0.275 HD
ATOM     14  H42 UNL     1      58.154  34.191  73.450  1.00  0.00     0.275 HD
ATOM     15  H41 UNL     1      59.048  35.620  73.798  1.00  0.00     0.275 HD
ENDBRANCH   2  12
ENDBRANCH   1   2
BRANCH   1  16
HETATM   16  N5  UNL     1      61.377  35.322  75.088  1.00  0.00    -0.326 N 
HETATM   17  C5  UNL     1      60.557  35.632  76.167  1.00  0.00     0.253 C 
HETATM   18  O2  UNL     1      59.365  36.011  76.179  1.00  0.00    -0.271 OA
ATOM     19  H5  UNL     1      62.321  35.056  75.366  1.00  0.00     0.168 HD
BRANCH  17  20
HETATM   20  C6  UNL     1      61.122  35.516  77.592  1.00  0.00     0.279 C 
BRANCH  20  21
HETATM   21  N6  UNL     1      60.194  36.053  78.548  1.00  0.00    -0.066 N 
ATOM     22  H63 UNL     1      59.270  35.632  78.458  1.00  0.00     0.275 HD
ATOM     23  H62 UNL     1      60.409  35.748  79.498  1.00  0.00     0.275 HD
ATOM     24  H61 UNL     1      60.154  37.070  78.477  1.00  0.00     0.275 HD
ENDBRANCH  20  21
BRANCH  20  25
HETATM   25  C7  UNL     1      62.413  36.321  77.651  1.00  0.00     0.025 C 
HETATM   26  C8  UNL     1      62.484  37.090  78.950  1.00  0.00     0.007 C 
HETATM   27  C9  UNL     1      63.912  37.339  79.361  1.00  0.00     0.000 C 
HETATM   28  C10 UNL     1      64.864  37.330  78.185  1.00  0.00     0.000 C 
HETATM   29  C11 UNL     1      64.891  35.990  77.494  1.00  0.00     0.000 C 
HETATM   30  C12 UNL     1      63.544  35.318  77.644  1.00  0.00     0.007 C 
ENDBRANCH  20  25
ENDBRANCH  17  20
ENDBRANCH   1  16
BRANCH   1  31
HETATM   31  C13 UNL     1      60.965  36.637  73.076  1.00  0.00     0.365 C 
BRANCH  31  32
HETATM   32  N7  UNL     1      61.849  37.671  73.483  1.00  0.00    -0.048 N 
ATOM     33  H73 UNL     1      62.533  37.294  74.139  1.00  0.00     0.277 HD
ATOM     34  H72 UNL     1      62.456  37.926  72.703  1.00  0.00     0.277 HD
ATOM     35  H71 UNL     1      61.429  38.514  73.876  1.00  0.00     0.277 HD
ENDBRANCH  31  32
BRANCH  31  36
HETATM   36  O3  UNL     1      61.050  36.550  71.650  1.00  0.00    -0.365 OA
ATOM     37  H3  UNL     1      61.815  37.024  71.347  1.00  0.00     0.212 HD
ENDBRANCH  31  36
ENDBRANCH   1  31
TORSDOF 10
ENDMDL
