MODEL 1
REMARK VINA RESULT: -7.437667869      0.000      0.000
REMARK  1 active torsions:
REMARK  status: ('A' for Active; 'I' for Inactive)
REMARK    1  A    between atoms: N2_6  and  C5_7 
ROOT
HETATM    1  C5  UNL     1      16.751  12.296  18.925  1.00  0.00     0.139 A 
HETATM    2  C6  UNL     1      15.586  13.144  18.423  1.00  0.00     0.014 A 
HETATM    3  N3  UNL     1      14.563  13.842  18.040  1.00  0.00    -0.365 N 
ATOM      4  H3  UNL     1      13.715  13.746  18.599  1.00  0.00     0.161 HD
HETATM    5  C7  UNL     1      14.489  14.734  16.919  1.00  0.00     0.321 C 
HETATM    6  C8  UNL     1      13.055  14.965  16.581  1.00  0.00     0.059 C 
HETATM    7  C9  UNL     1      12.971  16.126  15.618  1.00  0.00     0.025 C 
HETATM    8  C10 UNL     1      13.995  15.971  14.523  1.00  0.00     0.121 C 
HETATM    9  C11 UNL     1      13.344  16.128  13.223  1.00  0.00     0.065 C 
HETATM   10  N4  UNL     1      12.826  16.273  12.194  1.00  0.00    -0.197 NA
HETATM   11  C12 UNL     1      14.671  14.625  14.526  1.00  0.00     0.294 C 
HETATM   12  N5  UNL     1      15.278  14.289  15.794  1.00  0.00     0.112 N 
HETATM   13  C13 UNL     1      15.518  12.865  15.773  1.00  0.00     0.276 C 
HETATM   14  C14 UNL     1      16.862  12.560  16.377  1.00  0.00     0.043 C 
HETATM   15  C15 UNL     1      16.905  13.155  17.758  1.00  0.00     0.063 A 
ENDROOT
BRANCH   1  16
HETATM   16  N2  UNL     1      17.262  12.664  20.194  1.00  0.00    -0.381 N 
HETATM   17  C4  UNL     1      16.489  12.318  21.331  1.00  0.00     0.124 C 
HETATM   18  C3  UNL     1      15.422  13.391  21.532  1.00  0.00     0.050 C 
HETATM   19  C2  UNL     1      16.113  14.551  22.212  1.00  0.00     0.274 C 
HETATM   20  N1  UNL     1      16.523  15.584  21.320  1.00  0.00     0.088 N 
HETATM   21  C1  UNL     1      15.489  16.521  20.983  1.00  0.00     0.310 C 
HETATM   22  C17 UNL     1      17.212  15.142  20.150  1.00  0.00     0.316 C 
HETATM   23  C16 UNL     1      17.972  13.874  20.309  1.00  0.00     0.089 C 
ENDBRANCH   1  16
TORSDOF 1
ENDMDL
MODEL 2
REMARK VINA RESULT: -7.390279854      3.170      4.310
REMARK  1 active torsions:
REMARK  status: ('A' for Active; 'I' for Inactive)
REMARK    1  A    between atoms: N2_6  and  C5_7 
ROOT
HETATM    1  C5  UNL     1      14.126  14.192  17.278  1.00  0.00     0.139 A 
HETATM    2  C6  UNL     1      12.750  13.648  16.907  1.00  0.00     0.014 A 
HETATM    3  N3  UNL     1      11.602  13.131  16.597  1.00  0.00    -0.365 N 
ATOM      4  H3  UNL     1      11.554  12.113  16.581  1.00  0.00     0.161 HD
HETATM    5  C7  UNL     1      10.391  13.831  16.273  1.00  0.00     0.321 C 
HETATM    6  C8  UNL     1       9.473  12.898  15.558  1.00  0.00     0.059 C 
HETATM    7  C9  UNL     1       8.102  13.532  15.494  1.00  0.00     0.025 C 
HETATM    8  C10 UNL     1       8.213  14.971  15.063  1.00  0.00     0.121 C 
HETATM    9  C11 UNL     1       7.292  15.218  13.953  1.00  0.00     0.065 C 
HETATM   10  N4  UNL     1       6.545  15.414  13.086  1.00  0.00    -0.197 NA
HETATM   11  C12 UNL     1       9.593  15.348  14.591  1.00  0.00     0.294 C 
HETATM   12  N5  UNL     1      10.629  15.063  15.558  1.00  0.00     0.112 N 
HETATM   13  C13 UNL     1      11.882  15.092  14.841  1.00  0.00     0.276 C 
HETATM   14  C14 UNL     1      12.931  15.788  15.666  1.00  0.00     0.043 C 
HETATM   15  C15 UNL     1      13.019  15.098  16.999  1.00  0.00     0.063 A 
ENDROOT
BRANCH   1  16
HETATM   16  N2  UNL     1      14.548  13.915  18.601  1.00  0.00    -0.381 N 
HETATM   17  C4  UNL     1      14.444  14.965  19.549  1.00  0.00     0.124 C 
HETATM   18  C3  UNL     1      15.679  15.853  19.420  1.00  0.00     0.050 C 
HETATM   19  C2  UNL     1      16.789  15.141  20.158  1.00  0.00     0.274 C 
HETATM   20  N1  UNL     1      17.649  14.379  19.315  1.00  0.00     0.088 N 
HETATM   21  C1  UNL     1      18.687  15.141  18.682  1.00  0.00     0.310 C 
HETATM   22  C17 UNL     1      16.986  13.536  18.372  1.00  0.00     0.316 C 
HETATM   23  C16 UNL     1      15.645  13.054  18.792  1.00  0.00     0.089 C 
ENDBRANCH   1  16
TORSDOF 1
ENDMDL
MODEL 3
REMARK VINA RESULT: -7.320451070      1.447      1.631
REMARK  1 active torsions:
REMARK  status: ('A' for Active; 'I' for Inactive)
REMARK    1  A    between atoms: N2_6  and  C5_7 
ROOT
HETATM    1  C5  UNL     1      16.678  13.340  18.707  1.00  0.00     0.139 A 
HETATM    2  C6  UNL     1      15.461  13.800  17.910  1.00  0.00     0.014 A 
HETATM    3  N3  UNL     1      14.397  14.192  17.283  1.00  0.00    -0.365 N 
ATOM      4  H3  UNL     1      13.570  14.359  17.856  1.00  0.00     0.161 HD
HETATM    5  C7  UNL     1      14.251  14.418  15.873  1.00  0.00     0.321 C 
HETATM    6  C8  UNL     1      12.799  14.414  15.532  1.00  0.00     0.059 C 
HETATM    7  C9  UNL     1      12.634  14.951  14.130  1.00  0.00     0.025 C 
HETATM    8  C10 UNL     1      13.635  14.308  13.204  1.00  0.00     0.121 C 
HETATM    9  C11 UNL     1      12.943  13.790  12.025  1.00  0.00     0.065 C 
HETATM   10  N4  UNL     1      12.391  13.397  11.081  1.00  0.00    -0.197 NA
HETATM   11  C12 UNL     1      14.374  13.156  13.833  1.00  0.00     0.294 C 
HETATM   12  N5  UNL     1      15.030  13.501  15.073  1.00  0.00     0.112 N 
HETATM   13  C13 UNL     1      15.335  12.257  15.739  1.00  0.00     0.276 C 
HETATM   14  C14 UNL     1      16.708  12.325  16.353  1.00  0.00     0.043 C 
HETATM   15  C15 UNL     1      16.760  13.520  17.263  1.00  0.00     0.063 A 
ENDROOT
BRANCH   1  16
HETATM   16  N2  UNL     1      17.205  14.296  19.609  1.00  0.00    -0.381 N 
HETATM   17  C4  UNL     1      17.405  13.883  20.951  1.00  0.00     0.124 C 
HETATM   18  C3  UNL     1      16.080  14.018  21.698  1.00  0.00     0.050 C 
HETATM   19  C2  UNL     1      15.941  15.481  22.048  1.00  0.00     0.274 C 
HETATM   20  N1  UNL     1      15.130  16.220  21.137  1.00  0.00     0.088 N 
HETATM   21  C1  UNL     1      13.720  16.124  21.387  1.00  0.00     0.310 C 
HETATM   22  C17 UNL     1      15.420  16.010  19.755  1.00  0.00     0.316 C 
HETATM   23  C16 UNL     1      16.829  15.645  19.456  1.00  0.00     0.089 C 
ENDBRANCH   1  16
TORSDOF 1
ENDMDL
MODEL 4
REMARK VINA RESULT: -6.994632016      2.733      4.426
REMARK  1 active torsions:
REMARK  status: ('A' for Active; 'I' for Inactive)
REMARK    1  A    between atoms: N2_6  and  C5_7 
ROOT
HETATM    1  C5  UNL     1      15.483  13.978  15.548  1.00  0.00     0.139 A 
HETATM    2  C6  UNL     1      14.042  13.641  15.918  1.00  0.00     0.014 A 
HETATM    3  N3  UNL     1      12.837  13.303  16.256  1.00  0.00    -0.365 N 
ATOM      4  H3  UNL     1      12.736  12.409  16.738  1.00  0.00     0.161 HD
HETATM    5  C7  UNL     1      11.629  14.043  16.028  1.00  0.00     0.321 C 
HETATM    6  C8  UNL     1      10.465  13.119  16.156  1.00  0.00     0.059 C 
HETATM    7  C9  UNL     1       9.202  13.946  16.223  1.00  0.00     0.025 C 
HETATM    8  C10 UNL     1       9.217  15.008  15.154  1.00  0.00     0.121 C 
HETATM    9  C11 UNL     1       7.964  14.956  14.401  1.00  0.00     0.065 C 
HETATM   10  N4  UNL     1       6.959  14.923  13.819  1.00  0.00    -0.197 NA
HETATM   11  C12 UNL     1      10.341  14.842  14.165  1.00  0.00     0.294 C 
HETATM   12  N5  UNL     1      11.645  14.775  14.783  1.00  0.00     0.112 N 
HETATM   13  C13 UNL     1      12.543  14.227  13.793  1.00  0.00     0.276 C 
HETATM   14  C14 UNL     1      13.857  14.961  13.827  1.00  0.00     0.043 C 
HETATM   15  C15 UNL     1      14.398  14.898  15.228  1.00  0.00     0.063 A 
ENDROOT
BRANCH   1  16
HETATM   16  N2  UNL     1      16.351  14.202  16.644  1.00  0.00    -0.381 N 
HETATM   17  C4  UNL     1      17.712  13.840  16.480  1.00  0.00     0.124 C 
HETATM   18  C3  UNL     1      17.850  12.347  16.772  1.00  0.00     0.050 C 
HETATM   19  C2  UNL     1      17.875  12.212  18.277  1.00  0.00     0.274 C 
HETATM   20  N1  UNL     1      16.614  11.877  18.849  1.00  0.00     0.088 N 
HETATM   21  C1  UNL     1      16.305  10.475  18.824  1.00  0.00     0.310 C 
HETATM   22  C17 UNL     1      15.508  12.652  18.385  1.00  0.00     0.316 C 
HETATM   23  C16 UNL     1      15.847  14.032  17.948  1.00  0.00     0.089 C 
ENDBRANCH   1  16
TORSDOF 1
ENDMDL
MODEL 5
REMARK VINA RESULT: -6.620137622      2.303      3.826
REMARK  1 active torsions:
REMARK  status: ('A' for Active; 'I' for Inactive)
REMARK    1  A    between atoms: N2_6  and  C5_7 
ROOT
HETATM    1  C5  UNL     1      16.199  14.330  17.008  1.00  0.00     0.139 A 
HETATM    2  C6  UNL     1      15.199  14.272  15.857  1.00  0.00     0.014 A 
HETATM    3  N3  UNL     1      14.394  14.236  14.842  1.00  0.00    -0.365 N 
ATOM      4  H3  UNL     1      14.811  14.406  13.927  1.00  0.00     0.161 HD
HETATM    5  C7  UNL     1      12.981  13.984  14.861  1.00  0.00     0.321 C 
HETATM    6  C8  UNL     1      12.388  14.472  13.582  1.00  0.00     0.059 C 
HETATM    7  C9  UNL     1      10.980  13.935  13.472  1.00  0.00     0.025 C 
HETATM    8  C10 UNL     1      10.245  14.126  14.774  1.00  0.00     0.121 C 
HETATM    9  C11 UNL     1       8.960  14.776  14.516  1.00  0.00     0.065 C 
HETATM   10  N4  UNL     1       7.933  15.273  14.303  1.00  0.00    -0.197 NA
HETATM   11  C12 UNL     1      10.992  14.987  15.759  1.00  0.00     0.294 C 
HETATM   12  N5  UNL     1      12.330  14.517  16.035  1.00  0.00     0.112 N 
HETATM   13  C13 UNL     1      13.037  15.617  16.647  1.00  0.00     0.276 C 
HETATM   14  C14 UNL     1      13.885  15.115  17.785  1.00  0.00     0.043 C 
HETATM   15  C15 UNL     1      14.793  14.039  17.259  1.00  0.00     0.063 A 
ENDROOT
BRANCH   1  16
HETATM   16  N2  UNL     1      17.182  13.311  17.005  1.00  0.00    -0.381 N 
HETATM   17  C4  UNL     1      16.763  12.005  16.646  1.00  0.00     0.124 C 
HETATM   18  C3  UNL     1      16.178  11.332  17.885  1.00  0.00     0.050 C 
HETATM   19  C2  UNL     1      17.355  10.854  18.703  1.00  0.00     0.274 C 
HETATM   20  N1  UNL     1      17.725  11.740  19.757  1.00  0.00     0.088 N 
HETATM   21  C1  UNL     1      16.951  11.588  20.957  1.00  0.00     0.310 C 
HETATM   22  C17 UNL     1      17.831  13.115  19.389  1.00  0.00     0.316 C 
HETATM   23  C16 UNL     1      18.205  13.360  17.971  1.00  0.00     0.089 C 
ENDBRANCH   1  16
TORSDOF 1
ENDMDL
