MODEL 1
REMARK VINA RESULT: -5.976141500      0.000      0.000
REMARK  4 active torsions:
REMARK  status: ('A' for Active; 'I' for Inactive)
REMARK    1  A    between atoms: C2_2  and  C3_3 
REMARK    2  A    between atoms: C3_3  and  O1_5 
REMARK    3  A    between atoms: C3_3  and  C5_7 
REMARK    4  A    between atoms: C6_8  and  C7_9 
ROOT
HETATM    1  C7  UNL     1      -0.168  -0.696  -8.651  1.00  0.00     0.041 A 
HETATM    2  C8  UNL     1       0.176  -1.606  -9.608  1.00  0.00     0.120 A 
HETATM    3 CL1  UNL     1       0.540  -3.254  -9.140  1.00  0.00    -0.063 Cl
HETATM    4  N1  UNL     1       0.255  -1.293 -10.949  1.00  0.00    -0.298 N 
ATOM      5  H1  UNL     1       0.516  -1.998 -11.640  1.00  0.00     0.171 HD
HETATM    6  C9  UNL     1      -0.020  -0.044 -11.314  1.00  0.00     0.328 A 
HETATM    7  O2  UNL     1       0.043   0.269 -12.527  1.00  0.00    -0.246 OA
HETATM    8  N2  UNL     1      -0.363   0.885 -10.407  1.00  0.00    -0.294 N 
HETATM    9  C10 UNL     1      -0.646   2.221 -10.883  1.00  0.00     0.162 C 
HETATM   10  C11 UNL     1      -0.450   0.618  -9.097  1.00  0.00     0.119 A 
HETATM   11  S1  UNL     1      -0.871   1.785  -8.039  1.00  0.00    -0.059 SA
ENDROOT
BRANCH   1  12
HETATM   12  C6  UNL     1      -0.273  -0.932  -7.244  1.00  0.00     0.017 C 
HETATM   13  C5  UNL     1       0.541  -0.763  -6.248  1.00  0.00     0.011 C 
BRANCH  13  14
HETATM   14  C3  UNL     1       0.139  -1.113  -4.833  1.00  0.00     0.072 C 
HETATM   15  C4  UNL     1       1.301  -1.705  -4.059  1.00  0.00     0.050 C 
BRANCH  14  16
HETATM   16  C2  UNL     1      -0.428   0.082  -4.123  1.00  0.00     0.037 C 
HETATM   17  C1  UNL     1       0.485   1.282  -4.431  1.00  0.00     0.008 C 
ENDBRANCH  14  16
BRANCH  14  18
HETATM   18  O1  UNL     1      -0.883  -2.075  -4.859  1.00  0.00    -0.386 OA
ATOM     19  H1  UNL     1      -1.092  -2.216  -5.775  1.00  0.00     0.211 HD
ENDBRANCH  14  18
ENDBRANCH  13  14
ENDBRANCH   1  12
TORSDOF 4
ENDMDL
MODEL 2
REMARK VINA RESULT: -5.975895007      2.417      3.131
REMARK  4 active torsions:
REMARK  status: ('A' for Active; 'I' for Inactive)
REMARK    1  A    between atoms: C2_2  and  C3_3 
REMARK    2  A    between atoms: C3_3  and  O1_5 
REMARK    3  A    between atoms: C3_3  and  C5_7 
REMARK    4  A    between atoms: C6_8  and  C7_9 
ROOT
HETATM    1  C7  UNL     1       0.235   0.718  -8.648  1.00  0.00     0.041 A 
HETATM    2  C8  UNL     1      -0.080   1.623  -9.621  1.00  0.00     0.120 A 
HETATM    3 CL1  UNL     1      -0.331   3.301  -9.189  1.00  0.00    -0.063 Cl
HETATM    4  N1  UNL     1      -0.215   1.281 -10.951  1.00  0.00    -0.298 N 
ATOM      5  H1  UNL     1      -0.453   1.982 -11.653  1.00  0.00     0.171 HD
HETATM    6  C9  UNL     1      -0.027   0.008 -11.288  1.00  0.00     0.328 A 
HETATM    7  O2  UNL     1      -0.143  -0.332 -12.490  1.00  0.00    -0.246 OA
HETATM    8  N2  UNL     1       0.284  -0.917 -10.366  1.00  0.00    -0.294 N 
HETATM    9  C10 UNL     1       0.473  -2.279 -10.813  1.00  0.00     0.162 C 
HETATM   10  C11 UNL     1       0.424  -0.622  -9.066  1.00  0.00     0.119 A 
HETATM   11  S1  UNL     1       0.803  -1.784  -7.988  1.00  0.00    -0.059 SA
ENDROOT
BRANCH   1  12
HETATM   12  C6  UNL     1       0.394   0.983  -7.252  1.00  0.00     0.017 C 
HETATM   13  C5  UNL     1      -0.361   0.785  -6.215  1.00  0.00     0.011 C 
BRANCH  13  14
HETATM   14  C3  UNL     1       0.087   1.181  -4.827  1.00  0.00     0.072 C 
HETATM   15  C4  UNL     1      -1.061   1.748  -4.016  1.00  0.00     0.050 C 
BRANCH  14  16
HETATM   16  C2  UNL     1       0.727   0.023  -4.116  1.00  0.00     0.037 C 
HETATM   17  C1  UNL     1      -0.193  -1.197  -4.295  1.00  0.00     0.008 C 
ENDBRANCH  14  16
BRANCH  14  18
HETATM   18  O1  UNL     1       1.072   2.178  -4.917  1.00  0.00    -0.386 OA
ATOM     19  H1  UNL     1       0.610   2.993  -5.072  1.00  0.00     0.211 HD
ENDBRANCH  14  18
ENDBRANCH  13  14
ENDBRANCH   1  12
TORSDOF 4
ENDMDL
MODEL 3
REMARK VINA RESULT: -5.869084640      2.516      3.164
REMARK  4 active torsions:
REMARK  status: ('A' for Active; 'I' for Inactive)
REMARK    1  A    between atoms: C2_2  and  C3_3 
REMARK    2  A    between atoms: C3_3  and  O1_5 
REMARK    3  A    between atoms: C3_3  and  C5_7 
REMARK    4  A    between atoms: C6_8  and  C7_9 
ROOT
HETATM    1  C7  UNL     1       0.605   0.689  -7.262  1.00  0.00     0.041 A 
HETATM    2  C8  UNL     1       0.934   1.993  -7.502  1.00  0.00     0.120 A 
HETATM    3 CL1  UNL     1       1.621   2.959  -6.213  1.00  0.00    -0.063 Cl
HETATM    4  N1  UNL     1       0.749   2.602  -8.725  1.00  0.00    -0.298 N 
ATOM      5  H1  UNL     1       1.005   3.579  -8.871  1.00  0.00     0.171 HD
HETATM    6  C9  UNL     1       0.227   1.875  -9.710  1.00  0.00     0.328 A 
HETATM    7  O2  UNL     1       0.049   2.403 -10.834  1.00  0.00    -0.246 OA
HETATM    8  N2  UNL     1      -0.111   0.590  -9.521  1.00  0.00    -0.294 N 
HETATM    9  C10 UNL     1      -0.673  -0.132 -10.641  1.00  0.00     0.162 C 
HETATM   10  C11 UNL     1       0.053  -0.035  -8.347  1.00  0.00     0.119 A 
HETATM   11  S1  UNL     1      -0.374  -1.599  -8.172  1.00  0.00    -0.059 SA
ENDROOT
BRANCH   1  12
HETATM   12  C6  UNL     1       0.761  -0.020  -6.030  1.00  0.00     0.017 C 
HETATM   13  C5  UNL     1       0.408   0.230  -4.807  1.00  0.00     0.011 C 
BRANCH  13  14
HETATM   14  C3  UNL     1       0.719  -0.734  -3.684  1.00  0.00     0.072 C 
HETATM   15  C4  UNL     1       0.130  -2.104  -3.954  1.00  0.00     0.050 C 
BRANCH  14  16
HETATM   16  C2  UNL     1       2.198  -0.822  -3.443  1.00  0.00     0.037 C 
HETATM   17  C1  UNL     1       2.614  -2.290  -3.639  1.00  0.00     0.008 C 
ENDBRANCH  14  16
BRANCH  14  18
HETATM   18  O1  UNL     1       0.155  -0.260  -2.489  1.00  0.00    -0.386 OA
ATOM     19  H1  UNL     1       0.185  -0.985  -1.876  1.00  0.00     0.211 HD
ENDBRANCH  14  18
ENDBRANCH  13  14
ENDBRANCH   1  12
TORSDOF 4
ENDMDL
MODEL 4
REMARK VINA RESULT: -5.860844246      2.018      2.563
REMARK  4 active torsions:
REMARK  status: ('A' for Active; 'I' for Inactive)
REMARK    1  A    between atoms: C2_2  and  C3_3 
REMARK    2  A    between atoms: C3_3  and  O1_5 
REMARK    3  A    between atoms: C3_3  and  C5_7 
REMARK    4  A    between atoms: C6_8  and  C7_9 
ROOT
HETATM    1  C7  UNL     1      -0.585  -0.677  -7.260  1.00  0.00     0.041 A 
HETATM    2  C8  UNL     1      -0.920  -1.979  -7.494  1.00  0.00     0.120 A 
HETATM    3 CL1  UNL     1      -1.601  -2.941  -6.198  1.00  0.00    -0.063 Cl
HETATM    4  N1  UNL     1      -0.748  -2.592  -8.718  1.00  0.00    -0.298 N 
ATOM      5  H1  UNL     1      -1.009  -3.568  -8.859  1.00  0.00     0.171 HD
HETATM    6  C9  UNL     1      -0.232  -1.869  -9.708  1.00  0.00     0.328 A 
HETATM    7  O2  UNL     1      -0.064  -2.400 -10.832  1.00  0.00    -0.246 OA
HETATM    8  N2  UNL     1       0.113  -0.585  -9.524  1.00  0.00    -0.294 N 
HETATM    9  C10 UNL     1       0.669   0.133 -10.650  1.00  0.00     0.162 C 
HETATM   10  C11 UNL     1      -0.039   0.043  -8.350  1.00  0.00     0.119 A 
HETATM   11  S1  UNL     1       0.396   1.605  -8.182  1.00  0.00    -0.059 SA
ENDROOT
BRANCH   1  12
HETATM   12  C6  UNL     1      -0.727   0.036  -6.028  1.00  0.00     0.017 C 
HETATM   13  C5  UNL     1      -0.455  -0.256  -4.793  1.00  0.00     0.011 C 
BRANCH  13  14
HETATM   14  C3  UNL     1      -0.723   0.726  -3.675  1.00  0.00     0.072 C 
HETATM   15  C4  UNL     1      -0.111   2.081  -3.970  1.00  0.00     0.050 C 
BRANCH  14  16
HETATM   16  C2  UNL     1      -2.195   0.847  -3.405  1.00  0.00     0.037 C 
HETATM   17  C1  UNL     1      -2.598   2.307  -3.679  1.00  0.00     0.008 C 
ENDBRANCH  14  16
BRANCH  14  18
HETATM   18  O1  UNL     1      -0.145   0.253  -2.486  1.00  0.00    -0.386 OA
ATOM     19  H1  UNL     1       0.531  -0.362  -2.746  1.00  0.00     0.211 HD
ENDBRANCH  14  18
ENDBRANCH  13  14
ENDBRANCH   1  12
TORSDOF 4
ENDMDL
MODEL 5
REMARK VINA RESULT: -5.828400232      2.219      2.770
REMARK  4 active torsions:
REMARK  status: ('A' for Active; 'I' for Inactive)
REMARK    1  A    between atoms: C2_2  and  C3_3 
REMARK    2  A    between atoms: C3_3  and  O1_5 
REMARK    3  A    between atoms: C3_3  and  C5_7 
REMARK    4  A    between atoms: C6_8  and  C7_9 
ROOT
HETATM    1  C7  UNL     1       0.175   0.148  -7.948  1.00  0.00     0.041 A 
HETATM    2  C8  UNL     1       0.620   1.166  -8.741  1.00  0.00     0.120 A 
HETATM    3 CL1  UNL     1       1.147   2.665  -8.006  1.00  0.00    -0.063 Cl
HETATM    4  N1  UNL     1       0.677   1.077 -10.116  1.00  0.00    -0.298 N 
ATOM      5  H1  UNL     1       1.015   1.857 -10.681  1.00  0.00     0.171 HD
HETATM    6  C9  UNL     1       0.278  -0.058 -10.684  1.00  0.00     0.328 A 
HETATM    7  O2  UNL     1       0.319  -0.168 -11.933  1.00  0.00    -0.246 OA
HETATM    8  N2  UNL     1      -0.167  -1.086  -9.943  1.00  0.00    -0.294 N 
HETATM    9  C10 UNL     1      -0.584  -2.286 -10.635  1.00  0.00     0.162 C 
HETATM   10  C11 UNL     1      -0.237  -1.036  -8.606  1.00  0.00     0.119 A 
HETATM   11  S1  UNL     1      -0.786  -2.314  -7.756  1.00  0.00    -0.059 SA
ENDROOT
BRANCH   1  12
HETATM   12  C6  UNL     1       0.081   0.154  -6.520  1.00  0.00     0.017 C 
HETATM   13  C5  UNL     1      -0.673   0.791  -5.679  1.00  0.00     0.011 C 
BRANCH  13  14
HETATM   14  C3  UNL     1      -0.538   0.586  -4.187  1.00  0.00     0.072 C 
HETATM   15  C4  UNL     1       0.870   0.166  -3.812  1.00  0.00     0.050 C 
BRANCH  14  16
HETATM   16  C2  UNL     1      -0.950   1.818  -3.434  1.00  0.00     0.037 C 
HETATM   17  C1  UNL     1      -2.485   1.807  -3.331  1.00  0.00     0.008 C 
ENDBRANCH  14  16
BRANCH  14  18
HETATM   18  O1  UNL     1      -1.406  -0.436  -3.772  1.00  0.00    -0.386 OA
ATOM     19  H1  UNL     1      -1.088  -0.727  -2.926  1.00  0.00     0.211 HD
ENDBRANCH  14  18
ENDBRANCH  13  14
ENDBRANCH   1  12
TORSDOF 4
ENDMDL
