MODEL 1
REMARK VINA RESULT: -6.041542108      0.000      0.000
REMARK  2 active torsions:
REMARK  status: ('A' for Active; 'I' for Inactive)
REMARK    1  A    between atoms: C2_2  and  C3_4 
REMARK    2  A    between atoms: C5_6  and  C6_7 
ROOT
HETATM    1  C3  UNL     1       9.107  13.873 -15.331  1.00  0.00     0.193 C 
HETATM    2  C4  UNL     1       8.306  13.971 -16.638  1.00  0.00     0.072 C 
HETATM    3  C5  UNL     1       8.849  15.376 -16.497  1.00  0.00     0.129 C 
HETATM    4  O2  UNL     1       8.727  15.215 -15.120  1.00  0.00    -0.372 OA
ENDROOT
BRANCH   3   5
HETATM    5  C6  UNL     1       8.049  16.472 -17.111  1.00  0.00     0.015 C 
HETATM    6  C7  UNL     1       8.339  17.867 -16.602  1.00  0.00     0.007 C 
HETATM    7  C8  UNL     1       8.043  18.349 -18.029  1.00  0.00     0.001 C 
HETATM    8  C9  UNL     1       8.438  16.931 -18.471  1.00  0.00     0.007 C 
ENDBRANCH   3   5
BRANCH   1   9
HETATM    9  C2  UNL     1       8.533  12.933 -14.346  1.00  0.00     0.151 C 
HETATM   10  C1  UNL     1       7.671  11.829 -14.832  1.00  0.00     0.093 C 
HETATM   11  O1  UNL     1       8.794  13.102 -13.166  1.00  0.00    -0.296 OA
ENDBRANCH   1   9
TORSDOF 2
ENDMDL
MODEL 2
REMARK VINA RESULT: -6.029955034      1.102      1.440
REMARK  2 active torsions:
REMARK  status: ('A' for Active; 'I' for Inactive)
REMARK    1  A    between atoms: C2_2  and  C3_4 
REMARK    2  A    between atoms: C5_6  and  C6_7 
ROOT
HETATM    1  C3  UNL     1       8.826  13.916 -15.214  1.00  0.00     0.193 C 
HETATM    2  C4  UNL     1       8.966  13.399 -16.654  1.00  0.00     0.072 C 
HETATM    3  C5  UNL     1       8.919  14.897 -16.862  1.00  0.00     0.129 C 
HETATM    4  O2  UNL     1       8.054  14.956 -15.774  1.00  0.00    -0.372 OA
ENDROOT
BRANCH   3   5
HETATM    5  C6  UNL     1       8.384  15.380 -18.164  1.00  0.00     0.015 C 
HETATM    6  C7  UNL     1       8.524  16.863 -18.427  1.00  0.00     0.007 C 
HETATM    7  C8  UNL     1       8.713  16.489 -19.904  1.00  0.00     0.001 C 
HETATM    8  C9  UNL     1       9.199  15.128 -19.383  1.00  0.00     0.007 C 
ENDBRANCH   3   5
BRANCH   1   9
HETATM    9  C2  UNL     1       8.057  13.018 -14.328  1.00  0.00     0.151 C 
HETATM   10  C1  UNL     1       7.823  11.619 -14.759  1.00  0.00     0.093 C 
HETATM   11  O1  UNL     1       7.644  13.465 -13.270  1.00  0.00    -0.296 OA
ENDBRANCH   1   9
TORSDOF 2
ENDMDL
MODEL 3
REMARK VINA RESULT: -5.710718991      1.302      1.882
REMARK  2 active torsions:
REMARK  status: ('A' for Active; 'I' for Inactive)
REMARK    1  A    between atoms: C2_2  and  C3_4 
REMARK    2  A    between atoms: C5_6  and  C6_7 
ROOT
HETATM    1  C3  UNL     1       7.879  14.051 -15.060  1.00  0.00     0.193 C 
HETATM    2  C4  UNL     1       9.069  14.981 -15.341  1.00  0.00     0.072 C 
HETATM    3  C5  UNL     1       8.252  15.126 -16.607  1.00  0.00     0.129 C 
HETATM    4  O2  UNL     1       7.888  13.793 -16.447  1.00  0.00    -0.372 OA
ENDROOT
BRANCH   3   5
HETATM    5  C6  UNL     1       8.994  15.469 -17.851  1.00  0.00     0.015 C 
HETATM    6  C7  UNL     1       8.624  14.670 -19.082  1.00  0.00     0.007 C 
HETATM    7  C8  UNL     1       8.902  15.950 -19.883  1.00  0.00     0.001 C 
HETATM    8  C9  UNL     1       8.590  16.702 -18.580  1.00  0.00     0.007 C 
ENDBRANCH   3   5
BRANCH   1   9
HETATM    9  C2  UNL     1       8.221  12.874 -14.236  1.00  0.00     0.151 C 
HETATM   10  C1  UNL     1       7.837  11.527 -14.722  1.00  0.00     0.093 C 
HETATM   11  O1  UNL     1       8.809  13.057 -13.183  1.00  0.00    -0.296 OA
ENDBRANCH   1   9
TORSDOF 2
ENDMDL
MODEL 4
REMARK VINA RESULT: -5.708568966      1.086      1.101
REMARK  2 active torsions:
REMARK  status: ('A' for Active; 'I' for Inactive)
REMARK    1  A    between atoms: C2_2  and  C3_4 
REMARK    2  A    between atoms: C5_6  and  C6_7 
ROOT
HETATM    1  C3  UNL     1       9.129  13.651 -15.417  1.00  0.00     0.193 C 
HETATM    2  C4  UNL     1       8.796  14.040 -16.866  1.00  0.00     0.072 C 
HETATM    3  C5  UNL     1       8.872  15.391 -16.188  1.00  0.00     0.129 C 
HETATM    4  O2  UNL     1       8.360  14.776 -15.050  1.00  0.00    -0.372 OA
ENDROOT
BRANCH   3   5
HETATM    5  C6  UNL     1       8.054  16.486 -16.777  1.00  0.00     0.015 C 
HETATM    6  C7  UNL     1       8.310  17.872 -16.226  1.00  0.00     0.007 C 
HETATM    7  C8  UNL     1       8.014  18.388 -17.641  1.00  0.00     0.001 C 
HETATM    8  C9  UNL     1       8.443  16.993 -18.121  1.00  0.00     0.007 C 
ENDBRANCH   3   5
BRANCH   1   9
HETATM    9  C2  UNL     1       8.538  12.365 -14.992  1.00  0.00     0.151 C 
HETATM   10  C1  UNL     1       7.917  12.276 -13.648  1.00  0.00     0.093 C 
HETATM   11  O1  UNL     1       8.584  11.424 -15.766  1.00  0.00    -0.296 OA
ENDBRANCH   1   9
TORSDOF 2
ENDMDL
MODEL 5
REMARK VINA RESULT: -5.626529544      1.949      2.331
REMARK  2 active torsions:
REMARK  status: ('A' for Active; 'I' for Inactive)
REMARK    1  A    between atoms: C2_2  and  C3_4 
REMARK    2  A    between atoms: C5_6  and  C6_7 
ROOT
HETATM    1  C3  UNL     1       8.078  14.207 -15.503  1.00  0.00     0.193 C 
HETATM    2  C4  UNL     1       9.255  13.943 -16.455  1.00  0.00     0.072 C 
HETATM    3  C5  UNL     1       8.300  14.711 -17.343  1.00  0.00     0.129 C 
HETATM    4  O2  UNL     1       7.263  14.094 -16.650  1.00  0.00    -0.372 OA
ENDROOT
BRANCH   3   5
HETATM    5  C6  UNL     1       8.375  14.440 -18.805  1.00  0.00     0.015 C 
HETATM    6  C7  UNL     1       7.151  14.817 -19.610  1.00  0.00     0.007 C 
HETATM    7  C8  UNL     1       8.121  15.167 -20.748  1.00  0.00     0.001 C 
HETATM    8  C9  UNL     1       9.166  15.383 -19.642  1.00  0.00     0.007 C 
ENDBRANCH   3   5
BRANCH   1   9
HETATM    9  C2  UNL     1       7.858  13.134 -14.512  1.00  0.00     0.151 C 
HETATM   10  C1  UNL     1       7.753  11.734 -14.989  1.00  0.00     0.093 C 
HETATM   11  O1  UNL     1       7.771  13.443 -13.335  1.00  0.00    -0.296 OA
ENDBRANCH   1   9
TORSDOF 2
ENDMDL
