MODEL 1
REMARK VINA RESULT: -5.619987346      0.000      0.000
REMARK  3 active torsions:
REMARK  status: ('A' for Active; 'I' for Inactive)
REMARK    1  A    between atoms: C3_3  and  C4_4 
REMARK    2  A    between atoms: C6_6  and  S1_7 
REMARK    3  A    between atoms: S1_7  and  C7_8 
ROOT
HETATM    1  C4  UNL     1       7.989  16.162 -17.034  1.00  0.00     0.023 A 
HETATM    2  C5  UNL     1       8.990  15.335 -17.865  1.00  0.00     0.026 A 
HETATM    3  C6  UNL     1       8.233  14.729 -16.752  1.00  0.00     0.063 A 
ENDROOT
BRANCH   3   4
HETATM    4  S1  UNL     1       9.036  14.198 -15.232  1.00  0.00    -0.087 SA
BRANCH   4   5
HETATM    5  C7  UNL     1       8.019  13.047 -14.321  1.00  0.00     0.182 C 
HETATM    6  C8  UNL     1       7.666  11.740 -14.930  1.00  0.00     0.104 C 
HETATM    7  O1  UNL     1       7.619  13.322 -13.225  1.00  0.00    -0.286 OA
ENDBRANCH   4   5
ENDBRANCH   3   4
BRANCH   1   8
HETATM    8  C3  UNL     1       8.668  17.243 -16.278  1.00  0.00    -0.025 C 
HETATM    9  C2  UNL     1       7.941  18.268 -15.870  1.00  0.00    -0.035 C 
HETATM   10  C1  UNL     1       8.538  19.387 -15.112  1.00  0.00     0.036 C 
ENDBRANCH   1   8
TORSDOF 3
ENDMDL
MODEL 2
REMARK VINA RESULT: -5.148343266      2.351      2.739
REMARK  3 active torsions:
REMARK  status: ('A' for Active; 'I' for Inactive)
REMARK    1  A    between atoms: C3_3  and  C4_4 
REMARK    2  A    between atoms: C6_6  and  S1_7 
REMARK    3  A    between atoms: S1_7  and  C7_8 
ROOT
HETATM    1  C4  UNL     1       7.741  14.748 -18.398  1.00  0.00     0.023 A 
HETATM    2  C5  UNL     1       9.092  15.485 -18.485  1.00  0.00     0.026 A 
HETATM    3  C6  UNL     1       8.833  14.481 -17.435  1.00  0.00     0.063 A 
ENDROOT
BRANCH   3   4
HETATM    4  S1  UNL     1       8.682  14.935 -15.701  1.00  0.00    -0.087 SA
BRANCH   4   5
HETATM    5  C7  UNL     1       7.860  13.659 -14.759  1.00  0.00     0.182 C 
HETATM    6  C8  UNL     1       7.159  12.561 -15.468  1.00  0.00     0.104 C 
HETATM    7  O1  UNL     1       7.870  13.685 -13.560  1.00  0.00    -0.286 OA
ENDBRANCH   4   5
ENDBRANCH   3   4
BRANCH   1   8
HETATM    8  C3  UNL     1       6.629  15.681 -18.094  1.00  0.00    -0.025 C 
HETATM    9  C2  UNL     1       5.699  15.864 -19.016  1.00  0.00    -0.035 C 
HETATM   10  C1  UNL     1       4.558  16.776 -18.793  1.00  0.00     0.036 C 
ENDBRANCH   1   8
TORSDOF 3
ENDMDL
MODEL 3
REMARK VINA RESULT: -5.082498524      1.931      3.501
REMARK  3 active torsions:
REMARK  status: ('A' for Active; 'I' for Inactive)
REMARK    1  A    between atoms: C3_3  and  C4_4 
REMARK    2  A    between atoms: C6_6  and  S1_7 
REMARK    3  A    between atoms: S1_7  and  C7_8 
ROOT
HETATM    1  C4  UNL     1       8.751  15.092 -18.196  1.00  0.00     0.023 A 
HETATM    2  C5  UNL     1       8.644  16.019 -16.969  1.00  0.00     0.026 A 
HETATM    3  C6  UNL     1       8.970  14.587 -16.822  1.00  0.00     0.063 A 
ENDROOT
BRANCH   3   4
HETATM    4  S1  UNL     1       7.828  13.424 -16.061  1.00  0.00    -0.087 SA
BRANCH   4   5
HETATM    5  C7  UNL     1       8.133  13.257 -14.309  1.00  0.00     0.182 C 
HETATM    6  C8  UNL     1       7.920  11.945 -13.649  1.00  0.00     0.104 C 
HETATM    7  O1  UNL     1       8.507  14.197 -13.664  1.00  0.00    -0.286 OA
ENDBRANCH   4   5
ENDBRANCH   3   4
BRANCH   1   8
HETATM    8  C3  UNL     1       7.448  14.954 -18.891  1.00  0.00    -0.025 C 
HETATM    9  C2  UNL     1       7.444  14.449 -20.113  1.00  0.00    -0.035 C 
HETATM   10  C1  UNL     1       6.189  14.278 -20.875  1.00  0.00     0.036 C 
ENDBRANCH   1   8
TORSDOF 3
ENDMDL
MODEL 4
REMARK VINA RESULT: -4.910929968      2.328      3.770
REMARK  3 active torsions:
REMARK  status: ('A' for Active; 'I' for Inactive)
REMARK    1  A    between atoms: C3_3  and  C4_4 
REMARK    2  A    between atoms: C6_6  and  S1_7 
REMARK    3  A    between atoms: S1_7  and  C7_8 
ROOT
HETATM    1  C4  UNL     1       8.308  14.750 -18.724  1.00  0.00     0.023 A 
HETATM    2  C5  UNL     1       8.718  15.825 -17.697  1.00  0.00     0.026 A 
HETATM    3  C6  UNL     1       8.739  14.389 -17.354  1.00  0.00     0.063 A 
ENDROOT
BRANCH   3   4
HETATM    4  S1  UNL     1       7.588  13.676 -16.170  1.00  0.00    -0.087 SA
BRANCH   4   5
HETATM    5  C7  UNL     1       8.174  13.864 -14.493  1.00  0.00     0.182 C 
HETATM    6  C8  UNL     1       9.480  14.521 -14.242  1.00  0.00     0.104 C 
HETATM    7  O1  UNL     1       7.520  13.463 -13.571  1.00  0.00    -0.286 OA
ENDBRANCH   4   5
ENDBRANCH   3   4
BRANCH   1   8
HETATM    8  C3  UNL     1       6.877  14.868 -19.097  1.00  0.00    -0.025 C 
HETATM    9  C2  UNL     1       6.503  14.414 -20.281  1.00  0.00    -0.035 C 
HETATM   10  C1  UNL     1       5.098  14.493 -20.730  1.00  0.00     0.036 C 
ENDBRANCH   1   8
TORSDOF 3
ENDMDL
MODEL 5
REMARK VINA RESULT: -4.906882945      1.964      3.230
REMARK  3 active torsions:
REMARK  status: ('A' for Active; 'I' for Inactive)
REMARK    1  A    between atoms: C3_3  and  C4_4 
REMARK    2  A    between atoms: C6_6  and  S1_7 
REMARK    3  A    between atoms: S1_7  and  C7_8 
ROOT
HETATM    1  C4  UNL     1       8.691  15.378 -17.302  1.00  0.00     0.023 A 
HETATM    2  C5  UNL     1       8.544  15.578 -15.781  1.00  0.00     0.026 A 
HETATM    3  C6  UNL     1       9.352  14.474 -16.334  1.00  0.00     0.063 A 
ENDROOT
BRANCH   3   4
HETATM    4  S1  UNL     1       8.852  12.753 -16.170  1.00  0.00    -0.087 SA
BRANCH   4   5
HETATM    5  C7  UNL     1       7.564  12.560 -14.948  1.00  0.00     0.182 C 
HETATM    6  C8  UNL     1       7.926  12.224 -13.548  1.00  0.00     0.104 C 
HETATM    7  O1  UNL     1       6.412  12.697 -15.250  1.00  0.00    -0.286 OA
ENDBRANCH   4   5
ENDBRANCH   3   4
BRANCH   1   8
HETATM    8  C3  UNL     1       7.392  15.044 -17.937  1.00  0.00    -0.025 C 
HETATM    9  C2  UNL     1       7.361  14.893 -19.250  1.00  0.00    -0.035 C 
HETATM   10  C1  UNL     1       6.110  14.560 -19.960  1.00  0.00     0.036 C 
ENDBRANCH   1   8
TORSDOF 3
ENDMDL
