MODEL 1
REMARK VINA RESULT: -4.882124937      0.000      0.000
REMARK  3 active torsions:
REMARK  status: ('A' for Active; 'I' for Inactive)
REMARK    1  A    between atoms: C2_2  and  C4_4 
REMARK    2  A    between atoms: C4_4  and  N1_5 
REMARK    3  A    between atoms: C4_4  and  C5_9 
ROOT
HETATM    1  C4  UNL     1      10.421  13.241  45.647  1.00  0.00     0.209 C 
ENDROOT
BRANCH   1   2
HETATM    2  C2  UNL     1       9.719  12.166  46.415  1.00  0.00     0.010 C 
HETATM    3  C1  UNL     1      10.403  10.818  46.294  1.00  0.00     0.011 C 
HETATM    4  C3  UNL     1       8.242  12.109  46.213  1.00  0.00     0.011 C 
ENDBRANCH   1   2
BRANCH   1   5
HETATM    5  N1  UNL     1      11.628  12.707  45.084  1.00  0.00    -0.073 N 
ATOM      6  H13 UNL     1      12.120  13.389  44.505  1.00  0.00     0.274 HD
ATOM      7  H12 UNL     1      12.354  12.564  45.787  1.00  0.00     0.274 HD
ATOM      8  H11 UNL     1      11.411  11.851  44.572  1.00  0.00     0.274 HD
ENDBRANCH   1   5
BRANCH   1   9
HETATM    9  C5  UNL     1      10.587  14.540  46.347  1.00  0.00     0.111 C 
HETATM   10  C6  UNL     1       9.655  15.623  45.977  1.00  0.00     0.027 C 
HETATM   11  C7  UNL     1      10.259  16.883  46.623  1.00  0.00     0.007 C 
HETATM   12  C8  UNL     1      10.028  16.704  48.093  1.00  0.00     0.044 C 
HETATM   13  C9  UNL     1      10.017  15.316  48.573  1.00  0.00     0.056 C 
HETATM   14  N2  UNL     1      10.527  14.299  47.762  1.00  0.00    -0.396 N 
ATOM     15  H2  UNL     1      10.846  13.415  48.160  1.00  0.00     0.159 HD
ENDBRANCH   1   9
TORSDOF 3
ENDMDL
MODEL 2
REMARK VINA RESULT: -4.878620694      6.037      7.928
REMARK  3 active torsions:
REMARK  status: ('A' for Active; 'I' for Inactive)
REMARK    1  A    between atoms: C2_2  and  C4_4 
REMARK    2  A    between atoms: C4_4  and  N1_5 
REMARK    3  A    between atoms: C4_4  and  C5_9 
ROOT
HETATM    1  C4  UNL     1      15.711  15.093  41.813  1.00  0.00     0.209 C 
ENDROOT
BRANCH   1   2
HETATM    2  C2  UNL     1      14.939  16.311  42.212  1.00  0.00     0.010 C 
HETATM    3  C1  UNL     1      15.035  17.426  41.189  1.00  0.00     0.011 C 
HETATM    4  C3  UNL     1      15.161  16.766  43.616  1.00  0.00     0.011 C 
ENDBRANCH   1   2
BRANCH   1   5
HETATM    5  N1  UNL     1      16.345  15.330  40.548  1.00  0.00    -0.073 N 
ATOM      6  H13 UNL     1      15.938  14.769  39.799  1.00  0.00     0.274 HD
ATOM      7  H12 UNL     1      16.127  16.253  40.172  1.00  0.00     0.274 HD
ATOM      8  H11 UNL     1      17.350  15.177  40.642  1.00  0.00     0.274 HD
ENDBRANCH   1   5
BRANCH   1   9
HETATM    9  C5  UNL     1      14.983  13.802  41.908  1.00  0.00     0.111 C 
HETATM   10  C6  UNL     1      13.558  13.864  42.285  1.00  0.00     0.027 C 
HETATM   11  C7  UNL     1      13.181  12.403  42.592  1.00  0.00     0.007 C 
HETATM   12  C8  UNL     1      13.166  11.725  41.255  1.00  0.00     0.044 C 
HETATM   13  C9  UNL     1      14.097  12.264  40.255  1.00  0.00     0.056 C 
HETATM   14  N2  UNL     1      15.136  13.107  40.661  1.00  0.00    -0.396 N 
ATOM     15  H2  UNL     1      15.973  13.225  40.090  1.00  0.00     0.159 HD
ENDBRANCH   1   9
TORSDOF 3
ENDMDL
MODEL 3
REMARK VINA RESULT: -4.851944392      1.557      1.823
REMARK  3 active torsions:
REMARK  status: ('A' for Active; 'I' for Inactive)
REMARK    1  A    between atoms: C2_2  and  C4_4 
REMARK    2  A    between atoms: C4_4  and  N1_5 
REMARK    3  A    between atoms: C4_4  and  C5_9 
ROOT
HETATM    1  C4  UNL     1       9.647  13.664  46.662  1.00  0.00     0.209 C 
ENDROOT
BRANCH   1   2
HETATM    2  C2  UNL     1      10.179  12.638  45.712  1.00  0.00     0.010 C 
HETATM    3  C1  UNL     1      10.289  11.261  46.339  1.00  0.00     0.011 C 
HETATM    4  C3  UNL     1      11.398  13.051  44.957  1.00  0.00     0.011 C 
ENDBRANCH   1   2
BRANCH   1   5
HETATM    5  N1  UNL     1       8.286  13.963  46.319  1.00  0.00    -0.073 N 
ATOM      6  H13 UNL     1       8.190  14.875  45.872  1.00  0.00     0.274 HD
ATOM      7  H12 UNL     1       7.945  13.388  45.548  1.00  0.00     0.274 HD
ATOM      8  H11 UNL     1       7.703  13.878  47.153  1.00  0.00     0.274 HD
ENDBRANCH   1   5
BRANCH   1   9
HETATM    9  C5  UNL     1      10.505  14.855  46.882  1.00  0.00     0.111 C 
HETATM   10  C6  UNL     1       9.938  16.166  46.510  1.00  0.00     0.027 C 
HETATM   11  C7  UNL     1      11.138  17.129  46.564  1.00  0.00     0.007 C 
HETATM   12  C8  UNL     1      11.443  17.276  48.024  1.00  0.00     0.044 C 
HETATM   13  C9  UNL     1      11.140  16.108  48.860  1.00  0.00     0.056 C 
HETATM   14  N2  UNL     1      10.914  14.866  48.259  1.00  0.00    -0.396 N 
ATOM     15  H2  UNL     1      11.036  13.997  48.780  1.00  0.00     0.159 HD
ENDBRANCH   1   9
TORSDOF 3
ENDMDL
MODEL 4
REMARK VINA RESULT: -4.843505725      2.334      3.890
REMARK  3 active torsions:
REMARK  status: ('A' for Active; 'I' for Inactive)
REMARK    1  A    between atoms: C2_2  and  C4_4 
REMARK    2  A    between atoms: C4_4  and  N1_5 
REMARK    3  A    between atoms: C4_4  and  C5_9 
ROOT
HETATM    1  C4  UNL     1      12.331  13.288  44.617  1.00  0.00     0.209 C 
ENDROOT
BRANCH   1   2
HETATM    2  C2  UNL     1      13.002  14.621  44.516  1.00  0.00     0.010 C 
HETATM    3  C1  UNL     1      13.492  14.925  43.114  1.00  0.00     0.011 C 
HETATM    4  C3  UNL     1      14.013  14.898  45.578  1.00  0.00     0.011 C 
ENDBRANCH   1   2
BRANCH   1   5
HETATM    5  N1  UNL     1      12.580  12.541  43.416  1.00  0.00    -0.073 N 
ATOM      6  H13 UNL     1      13.335  12.944  42.860  1.00  0.00     0.274 HD
ATOM      7  H12 UNL     1      13.008  11.635  43.606  1.00  0.00     0.274 HD
ATOM      8  H11 UNL     1      11.712  12.456  42.887  1.00  0.00     0.274 HD
ENDBRANCH   1   5
BRANCH   1   9
HETATM    9  C5  UNL     1      10.910  13.305  45.050  1.00  0.00     0.111 C 
HETATM   10  C6  UNL     1      10.563  12.496  46.235  1.00  0.00     0.027 C 
HETATM   11  C7  UNL     1       9.024  12.474  46.243  1.00  0.00     0.007 C 
HETATM   12  C8  UNL     1       8.626  13.865  46.635  1.00  0.00     0.044 C 
HETATM   13  C9  UNL     1       9.547  14.932  46.224  1.00  0.00     0.056 C 
HETATM   14  N2  UNL     1      10.519  14.671  45.253  1.00  0.00    -0.396 N 
ATOM     15  H2  UNL     1      10.936  15.426  44.707  1.00  0.00     0.159 HD
ENDBRANCH   1   9
TORSDOF 3
ENDMDL
MODEL 5
REMARK VINA RESULT: -4.840026987      6.170      7.993
REMARK  3 active torsions:
REMARK  status: ('A' for Active; 'I' for Inactive)
REMARK    1  A    between atoms: C2_2  and  C4_4 
REMARK    2  A    between atoms: C4_4  and  N1_5 
REMARK    3  A    between atoms: C4_4  and  C5_9 
ROOT
HETATM    1  C4  UNL     1      15.689  14.784  41.672  1.00  0.00     0.209 C 
ENDROOT
BRANCH   1   2
HETATM    2  C2  UNL     1      15.147  16.034  42.289  1.00  0.00     0.010 C 
HETATM    3  C1  UNL     1      15.420  17.267  41.451  1.00  0.00     0.011 C 
HETATM    4  C3  UNL     1      15.464  16.211  43.736  1.00  0.00     0.011 C 
ENDBRANCH   1   2
BRANCH   1   5
HETATM    5  N1  UNL     1      16.660  15.133  40.674  1.00  0.00    -0.073 N 
ATOM      6  H13 UNL     1      17.591  14.785  40.902  1.00  0.00     0.274 HD
ATOM      7  H12 UNL     1      16.522  14.619  39.804  1.00  0.00     0.274 HD
ATOM      8  H11 UNL     1      16.648  16.143  40.533  1.00  0.00     0.274 HD
ENDBRANCH   1   5
BRANCH   1   9
HETATM    9  C5  UNL     1      14.682  13.784  41.233  1.00  0.00     0.111 C 
HETATM   10  C6  UNL     1      15.196  12.539  40.629  1.00  0.00     0.027 C 
HETATM   11  C7  UNL     1      13.951  11.871  40.017  1.00  0.00     0.007 C 
HETATM   12  C8  UNL     1      13.157  11.394  41.195  1.00  0.00     0.044 C 
HETATM   13  C9  UNL     1      13.286  12.195  42.419  1.00  0.00     0.056 C 
HETATM   14  N2  UNL     1      13.834  13.479  42.351  1.00  0.00    -0.396 N 
ATOM     15  H2  UNL     1      13.640  14.176  43.070  1.00  0.00     0.159 HD
ENDBRANCH   1   9
TORSDOF 3
ENDMDL
