MODEL 1
REMARK VINA RESULT: -4.867289378      0.000      0.000
REMARK  2 active torsions:
REMARK  status: ('A' for Active; 'I' for Inactive)
REMARK    1  A    between atoms: N1_1  and  C1_5 
REMARK    2  A    between atoms: C5_9  and  O1_10 
ROOT
HETATM    1  C1  UNL     1      13.060  11.789  41.375  1.00  0.00     0.186 C 
HETATM    2  C2  UNL     1      14.011  12.826  40.829  1.00  0.00     0.033 C 
HETATM    3  C3  UNL     1      14.363  13.879  41.845  1.00  0.00     0.004 C 
HETATM    4  C4  UNL     1      13.225  14.181  42.786  1.00  0.00     0.034 C 
HETATM    5  C5  UNL     1      12.836  12.963  43.585  1.00  0.00     0.147 C 
HETATM    6  C6  UNL     1      13.142  11.676  42.875  1.00  0.00     0.066 C 
ENDROOT
BRANCH   1   7
HETATM    7  N1  UNL     1      13.434  10.493  40.832  1.00  0.00    -0.075 N 
ATOM      8  H13 UNL     1      12.969  10.290  39.947  1.00  0.00     0.274 HD
ATOM      9  H12 UNL     1      14.396  10.472  40.493  1.00  0.00     0.274 HD
ATOM     10  H11 UNL     1      13.253   9.782  41.542  1.00  0.00     0.274 HD
ENDBRANCH   1   7
BRANCH   5  11
HETATM   11  O1  UNL     1      11.515  13.059  43.988  1.00  0.00    -0.279 OA
HETATM   12 CL1  UNL     1      11.162  14.538  44.739  1.00  0.00     0.062 Cl
ENDBRANCH   5  11
TORSDOF 2
ENDMDL
MODEL 2
REMARK VINA RESULT: -4.862615472      3.202      3.704
REMARK  2 active torsions:
REMARK  status: ('A' for Active; 'I' for Inactive)
REMARK    1  A    between atoms: N1_1  and  C1_5 
REMARK    2  A    between atoms: C5_9  and  O1_10 
ROOT
HETATM    1  C1  UNL     1      14.502  10.607  41.322  1.00  0.00     0.186 C 
HETATM    2  C2  UNL     1      13.454  11.077  42.300  1.00  0.00     0.033 C 
HETATM    3  C3  UNL     1      13.024  12.497  42.048  1.00  0.00     0.004 C 
HETATM    4  C4  UNL     1      14.143  13.359  41.524  1.00  0.00     0.034 C 
HETATM    5  C5  UNL     1      14.654  12.850  40.199  1.00  0.00     0.147 C 
HETATM    6  C6  UNL     1      14.454  11.372  40.025  1.00  0.00     0.066 C 
ENDROOT
BRANCH   1   7
HETATM    7  N1  UNL     1      14.239   9.214  41.001  1.00  0.00    -0.075 N 
ATOM      8  H13 UNL     1      13.428   8.843  41.497  1.00  0.00     0.274 HD
ATOM      9  H12 UNL     1      13.890   9.089  40.051  1.00  0.00     0.274 HD
ATOM     10  H11 UNL     1      15.088   8.676  41.181  1.00  0.00     0.274 HD
ENDBRANCH   1   7
BRANCH   5  11
HETATM   11  O1  UNL     1      15.967  13.246  40.010  1.00  0.00    -0.279 OA
HETATM   12 CL1  UNL     1      16.215  14.889  40.354  1.00  0.00     0.062 Cl
ENDBRANCH   5  11
TORSDOF 2
ENDMDL
MODEL 3
REMARK VINA RESULT: -4.854348758      3.554      4.004
REMARK  2 active torsions:
REMARK  status: ('A' for Active; 'I' for Inactive)
REMARK    1  A    between atoms: N1_1  and  C1_5 
REMARK    2  A    between atoms: C5_9  and  O1_10 
ROOT
HETATM    1  C1  UNL     1      13.276  12.527  42.473  1.00  0.00     0.186 C 
HETATM    2  C2  UNL     1      14.209  13.657  42.112  1.00  0.00     0.033 C 
HETATM    3  C3  UNL     1      14.739  13.542  40.709  1.00  0.00     0.004 C 
HETATM    4  C4  UNL     1      14.929  12.112  40.275  1.00  0.00     0.034 C 
HETATM    5  C5  UNL     1      13.623  11.359  40.275  1.00  0.00     0.147 C 
HETATM    6  C6  UNL     1      12.631  11.912  41.258  1.00  0.00     0.066 C 
ENDROOT
BRANCH   1   7
HETATM    7  N1  UNL     1      12.203  13.063  43.296  1.00  0.00    -0.075 N 
ATOM      8  H13 UNL     1      11.667  12.333  43.766  1.00  0.00     0.274 HD
ATOM      9  H12 UNL     1      12.548  13.541  44.128  1.00  0.00     0.274 HD
ATOM     10  H11 UNL     1      11.620  13.664  42.712  1.00  0.00     0.274 HD
ENDBRANCH   1   7
BRANCH   5  11
HETATM   11  O1  UNL     1      13.852  10.004  40.441  1.00  0.00    -0.279 OA
HETATM   12 CL1  UNL     1      15.384   9.525  39.893  1.00  0.00     0.062 Cl
ENDBRANCH   5  11
TORSDOF 2
ENDMDL
MODEL 4
REMARK VINA RESULT: -4.752845228      2.212      2.899
REMARK  2 active torsions:
REMARK  status: ('A' for Active; 'I' for Inactive)
REMARK    1  A    between atoms: N1_1  and  C1_5 
REMARK    2  A    between atoms: C5_9  and  O1_10 
ROOT
HETATM    1  C1  UNL     1      15.626  13.970  40.984  1.00  0.00     0.186 C 
HETATM    2  C2  UNL     1      15.305  12.819  40.064  1.00  0.00     0.033 C 
HETATM    3  C3  UNL     1      13.920  12.273  40.282  1.00  0.00     0.004 C 
HETATM    4  C4  UNL     1      13.484  12.356  41.722  1.00  0.00     0.034 C 
HETATM    5  C5  UNL     1      13.434  13.785  42.199  1.00  0.00     0.147 C 
HETATM    6  C6  UNL     1      14.386  14.682  41.460  1.00  0.00     0.066 C 
ENDROOT
BRANCH   1   7
HETATM    7  N1  UNL     1      16.415  14.943  40.245  1.00  0.00    -0.075 N 
ATOM      8  H13 UNL     1      17.182  15.327  40.798  1.00  0.00     0.274 HD
ATOM      9  H12 UNL     1      16.974  14.515  39.508  1.00  0.00     0.274 HD
ATOM     10  H11 UNL     1      15.786  15.665  39.892  1.00  0.00     0.274 HD
ENDBRANCH   1   7
BRANCH   5  11
HETATM   11  O1  UNL     1      13.599  13.836  43.573  1.00  0.00    -0.279 OA
HETATM   12 CL1  UNL     1      12.191  13.412  44.420  1.00  0.00     0.062 Cl
ENDBRANCH   5  11
TORSDOF 2
ENDMDL
MODEL 5
REMARK VINA RESULT: -4.735890885      2.142      2.706
REMARK  2 active torsions:
REMARK  status: ('A' for Active; 'I' for Inactive)
REMARK    1  A    between atoms: N1_1  and  C1_5 
REMARK    2  A    between atoms: C5_9  and  O1_10 
ROOT
HETATM    1  C1  UNL     1      14.852  14.144  41.782  1.00  0.00     0.186 C 
HETATM    2  C2  UNL     1      14.497  13.019  40.842  1.00  0.00     0.033 C 
HETATM    3  C3  UNL     1      13.216  12.328  41.224  1.00  0.00     0.004 C 
HETATM    4  C4  UNL     1      13.000  12.289  42.714  1.00  0.00     0.034 C 
HETATM    5  C5  UNL     1      12.898  13.678  43.291  1.00  0.00     0.147 C 
HETATM    6  C6  UNL     1      13.641  14.703  42.483  1.00  0.00     0.066 C 
ENDROOT
BRANCH   1   7
HETATM    7  N1  UNL     1      15.428  15.228  41.004  1.00  0.00    -0.075 N 
ATOM      8  H13 UNL     1      15.502  16.096  41.535  1.00  0.00     0.274 HD
ATOM      9  H12 UNL     1      16.422  15.093  40.819  1.00  0.00     0.274 HD
ATOM     10  H11 UNL     1      14.882  15.336  40.149  1.00  0.00     0.274 HD
ENDBRANCH   1   7
BRANCH   5  11
HETATM   11  O1  UNL     1      13.266  13.670  44.626  1.00  0.00    -0.279 OA
HETATM   12 CL1  UNL     1      14.003  15.118  45.114  1.00  0.00     0.062 Cl
ENDBRANCH   5  11
TORSDOF 2
ENDMDL
