MODEL 1
REMARK VINA RESULT: -6.129342854      0.000      0.000
REMARK  2 active torsions:
REMARK  status: ('A' for Active; 'I' for Inactive)
REMARK    1  A    between atoms: C2_3  and  C3_4 
REMARK    2  A    between atoms: C6_7  and  O1_8 
ROOT
HETATM    1  N1  UNL     1      15.612   8.965  39.470  1.00  0.00    -0.197 NA
HETATM    2  C1  UNL     1      14.873   9.605  40.093  1.00  0.00     0.061 C 
HETATM    3  C2  UNL     1      13.950  10.426  40.863  1.00  0.00     0.151 C 
ENDROOT
BRANCH   3   4
HETATM    4  C3  UNL     1      14.000  11.874  40.476  1.00  0.00     0.129 C 
HETATM    5  C4  UNL     1      13.555  12.751  41.700  1.00  0.00     0.110 C 
HETATM    6  C5  UNL     1      14.487  13.808  41.802  1.00  0.00    -0.147 C 
HETATM    7  C6  UNL     1      15.512  14.768  41.692  1.00  0.00     0.210 C 
HETATM    8  C7  UNL     1      16.436  14.295  40.503  1.00  0.00     0.244 C 
HETATM    9  O2  UNL     1      15.681  13.399  39.695  1.00  0.00    -0.281 OA
HETATM   10  N2  UNL     1      15.376  12.235  40.089  1.00  0.00    -0.296 N 
ATOM     11  H2  UNL     1      16.105  11.524  40.139  1.00  0.00     0.188 HD
BRANCH   7  12
HETATM   12  O1  UNL     1      15.147  16.107  41.376  1.00  0.00    -0.382 OA
ATOM     13  H1  UNL     1      15.832  16.765  41.353  1.00  0.00     0.211 HD
ENDBRANCH   7  12
ENDBRANCH   3   4
TORSDOF 2
ENDMDL
MODEL 2
REMARK VINA RESULT: -5.815448644      2.326      4.610
REMARK  2 active torsions:
REMARK  status: ('A' for Active; 'I' for Inactive)
REMARK    1  A    between atoms: C2_3  and  C3_4 
REMARK    2  A    between atoms: C6_7  and  O1_8 
ROOT
HETATM    1  N1  UNL     1      15.745  17.560  41.445  1.00  0.00    -0.197 NA
HETATM    2  C1  UNL     1      16.056  16.637  40.816  1.00  0.00     0.061 C 
HETATM    3  C2  UNL     1      16.437  15.464  40.043  1.00  0.00     0.151 C 
ENDROOT
BRANCH   3   4
HETATM    4  C3  UNL     1      16.161  14.179  40.763  1.00  0.00     0.129 C 
HETATM    5  C4  UNL     1      15.029  14.415  41.824  1.00  0.00     0.110 C 
HETATM    6  C5  UNL     1      14.121  13.340  41.694  1.00  0.00    -0.147 C 
HETATM    7  C6  UNL     1      13.379  12.179  41.399  1.00  0.00     0.210 C 
HETATM    8  C7  UNL     1      14.114  11.482  40.187  1.00  0.00     0.244 C 
HETATM    9  O2  UNL     1      15.450  11.970  40.150  1.00  0.00    -0.281 OA
HETATM   10  N2  UNL     1      15.723  13.155  39.797  1.00  0.00    -0.296 N 
ATOM     11  H2  UNL     1      15.637  13.410  38.813  1.00  0.00     0.188 HD
BRANCH   7  12
HETATM   12  O1  UNL     1      13.273  11.176  42.402  1.00  0.00    -0.382 OA
ATOM     13  H1  UNL     1      12.433  11.057  42.830  1.00  0.00     0.211 HD
ENDBRANCH   7  12
ENDBRANCH   3   4
TORSDOF 2
ENDMDL
MODEL 3
REMARK VINA RESULT: -5.733478647      2.481      4.722
REMARK  2 active torsions:
REMARK  status: ('A' for Active; 'I' for Inactive)
REMARK    1  A    between atoms: C2_3  and  C3_4 
REMARK    2  A    between atoms: C6_7  and  O1_8 
ROOT
HETATM    1  N1  UNL     1      15.453  15.383  42.480  1.00  0.00    -0.197 NA
HETATM    2  C1  UNL     1      15.746  14.726  41.571  1.00  0.00     0.061 C 
HETATM    3  C2  UNL     1      16.093  13.892  40.430  1.00  0.00     0.151 C 
ENDROOT
BRANCH   3   4
HETATM    4  C3  UNL     1      15.033  12.882  40.106  1.00  0.00     0.129 C 
HETATM    5  C4  UNL     1      15.709  11.488  39.851  1.00  0.00     0.110 C 
HETATM    6  C5  UNL     1      14.950  10.533  40.564  1.00  0.00    -0.147 C 
HETATM    7  C6  UNL     1      14.042   9.772  41.325  1.00  0.00     0.210 C 
HETATM    8  C7  UNL     1      13.032  10.802  41.968  1.00  0.00     0.244 C 
HETATM    9  O2  UNL     1      13.089  12.000  41.203  1.00  0.00    -0.281 OA
HETATM   10  N2  UNL     1      14.093  12.772  41.235  1.00  0.00    -0.296 N 
ATOM     11  H2  UNL     1      14.256  13.335  42.070  1.00  0.00     0.188 HD
BRANCH   7  12
HETATM   12  O1  UNL     1      13.230   8.820  40.649  1.00  0.00    -0.382 OA
ATOM     13  H1  UNL     1      13.643   8.252  40.009  1.00  0.00     0.211 HD
ENDBRANCH   7  12
ENDBRANCH   3   4
TORSDOF 2
ENDMDL
MODEL 4
REMARK VINA RESULT: -5.684269872      1.296      1.399
REMARK  2 active torsions:
REMARK  status: ('A' for Active; 'I' for Inactive)
REMARK    1  A    between atoms: C2_3  and  C3_4 
REMARK    2  A    between atoms: C6_7  and  O1_8 
ROOT
HETATM    1  N1  UNL     1      12.415   9.468  41.941  1.00  0.00    -0.197 NA
HETATM    2  C1  UNL     1      13.289   9.861  41.290  1.00  0.00     0.061 C 
HETATM    3  C2  UNL     1      14.380  10.375  40.474  1.00  0.00     0.151 C 
ENDROOT
BRANCH   3   4
HETATM    4  C3  UNL     1      14.275  11.850  40.228  1.00  0.00     0.129 C 
HETATM    5  C4  UNL     1      13.686  12.546  41.505  1.00  0.00     0.110 C 
HETATM    6  C5  UNL     1      14.483  13.686  41.750  1.00  0.00    -0.147 C 
HETATM    7  C6  UNL     1      15.392  14.762  41.780  1.00  0.00     0.210 C 
HETATM    8  C7  UNL     1      16.409  14.515  40.598  1.00  0.00     0.244 C 
HETATM    9  O2  UNL     1      15.794  13.624  39.675  1.00  0.00    -0.281 OA
HETATM   10  N2  UNL     1      15.613  12.399  39.942  1.00  0.00    -0.296 N 
ATOM     11  H2  UNL     1      16.418  11.774  39.961  1.00  0.00     0.188 HD
BRANCH   7  12
HETATM   12  O1  UNL     1      14.886  16.076  41.574  1.00  0.00    -0.382 OA
ATOM     13  H1  UNL     1      15.144  16.537  40.784  1.00  0.00     0.211 HD
ENDBRANCH   7  12
ENDBRANCH   3   4
TORSDOF 2
ENDMDL
MODEL 5
REMARK VINA RESULT: -5.667945046      2.208      3.350
REMARK  2 active torsions:
REMARK  status: ('A' for Active; 'I' for Inactive)
REMARK    1  A    between atoms: C2_3  and  C3_4 
REMARK    2  A    between atoms: C6_7  and  O1_8 
ROOT
HETATM    1  N1  UNL     1      13.650  11.822  40.692  1.00  0.00    -0.197 NA
HETATM    2  C1  UNL     1      14.623  12.380  40.401  1.00  0.00     0.061 C 
HETATM    3  C2  UNL     1      15.843  13.094  40.053  1.00  0.00     0.151 C 
ENDROOT
BRANCH   3   4
HETATM    4  C3  UNL     1      16.113  14.259  40.957  1.00  0.00     0.129 C 
HETATM    5  C4  UNL     1      16.452  15.520  40.087  1.00  0.00     0.110 C 
HETATM    6  C5  UNL     1      15.709  16.595  40.624  1.00  0.00    -0.147 C 
HETATM    7  C6  UNL     1      14.901  17.503  41.336  1.00  0.00     0.210 C 
HETATM    8  C7  UNL     1      14.159  16.659  42.446  1.00  0.00     0.244 C 
HETATM    9  O2  UNL     1      14.896  15.458  42.643  1.00  0.00    -0.281 OA
HETATM   10  N2  UNL     1      14.919  14.534  41.777  1.00  0.00    -0.296 N 
ATOM     11  H2  UNL     1      14.085  13.963  41.642  1.00  0.00     0.188 HD
BRANCH   7  12
HETATM   12  O1  UNL     1      15.539  18.566  42.034  1.00  0.00    -0.382 OA
ATOM     13  H1  UNL     1      16.306  18.363  42.556  1.00  0.00     0.211 HD
ENDBRANCH   7  12
ENDBRANCH   3   4
TORSDOF 2
ENDMDL
