MODEL 1
REMARK VINA RESULT: -6.708778883      0.000      0.000
REMARK  11 active torsions:
REMARK  status: ('A' for Active; 'I' for Inactive)
REMARK    1  A    between atoms: O1_2  and  C2_3 
REMARK    2  A    between atoms: C2_3  and  C3_5 
REMARK    3  A    between atoms: C4_6  and  O3_7 
REMARK    4  A    between atoms: O3_7  and  C5_8 
REMARK    5  A    between atoms: C6_11  and  O4_12 
REMARK    6  A    between atoms: C6_11  and  C9_17 
REMARK    7  A    between atoms: O4_12  and  C7_13 
REMARK    8  A    between atoms: C7_13  and  O6_15 
REMARK    9  A    between atoms: C10_20  and  O9_21 
REMARK   10  A    between atoms: C11_23  and  O10_24 
REMARK   11  A    between atoms: C12_26  and  O11_27 
ROOT
HETATM    1  C5  UNL     1       6.785   6.601 -14.614  1.00  0.00     0.256 C 
HETATM    2  N1  UNL     1       6.671   5.243 -15.041  1.00  0.00    -0.352 N 
ATOM      3  H1  UNL     1       6.016   4.960 -15.770  1.00  0.00     0.159 HD
HETATM    4  C6  UNL     1       7.521   4.307 -14.390  1.00  0.00     0.261 C 
HETATM    5  C10 UNL     1       8.516   4.949 -13.435  1.00  0.00     0.216 C 
HETATM    6  C11 UNL     1       7.810   5.866 -12.454  1.00  0.00     0.185 C 
HETATM    7  C12 UNL     1       6.715   6.655 -13.124  1.00  0.00     0.198 C 
ENDROOT
BRANCH   4   8
HETATM    8  O4  UNL     1       8.228   3.572 -15.358  1.00  0.00    -0.252 OA
BRANCH   8   9
HETATM    9  C7  UNL     1       8.179   3.946 -16.701  1.00  0.00     0.408 C 
HETATM   10  O5  UNL     1       7.418   3.369 -17.519  1.00  0.00    -0.229 OA
BRANCH   9  11
HETATM   11  O6  UNL     1       8.967   4.974 -17.205  1.00  0.00    -0.303 OA
HETATM   12  C8  UNL     1      10.255   5.233 -16.730  1.00  0.00     0.215 C 
ENDBRANCH   9  11
ENDBRANCH   8   9
ENDBRANCH   4   8
BRANCH   4  13
HETATM   13  C9  UNL     1       6.709   3.325 -13.592  1.00  0.00     0.234 C 
HETATM   14  O7  UNL     1       5.616   3.633 -13.064  1.00  0.00    -0.644 OA
HETATM   15  O8  UNL     1       7.190   2.033 -13.439  1.00  0.00    -0.644 OA
ENDBRANCH   4  13
BRANCH   5  16
HETATM   16  O9  UNL     1       9.151   3.968 -12.678  1.00  0.00    -0.387 OA
ATOM     17  H9  UNL     1      10.090   4.007 -12.817  1.00  0.00     0.210 HD
ENDBRANCH   5  16
BRANCH   1  18
HETATM   18  O3  UNL     1       7.951   7.180 -15.146  1.00  0.00    -0.335 OA
BRANCH  18  19
HETATM   19  C4  UNL     1       7.981   8.187 -16.067  1.00  0.00     0.143 C 
HETATM   20  C3  UNL     1       9.066   8.706 -16.590  1.00  0.00     0.106 C 
BRANCH  20  21
HETATM   21  C2  UNL     1       9.018   9.783 -17.569  1.00  0.00     0.284 C 
HETATM   22  O2  UNL     1       9.183   9.562 -18.789  1.00  0.00    -0.260 OA
BRANCH  21  23
HETATM   23  O1  UNL     1       8.787  11.109 -17.201  1.00  0.00    -0.323 OA
HETATM   24  C1  UNL     1       9.550  11.729 -16.161  1.00  0.00     0.213 C 
ENDBRANCH  21  23
ENDBRANCH  20  21
ENDBRANCH  18  19
ENDBRANCH   1  18
BRANCH   6  25
HETATM   25  O10 UNL     1       7.377   5.138 -11.366  1.00  0.00    -0.390 OA
ATOM     26  H10 UNL     1       7.944   5.304 -10.622  1.00  0.00     0.210 HD
ENDBRANCH   6  25
BRANCH   7  27
HETATM   27  O11 UNL     1       6.668   7.973 -12.648  1.00  0.00    -0.389 OA
ATOM     28  H11 UNL     1       5.830   8.179 -12.251  1.00  0.00     0.210 HD
ENDBRANCH   7  27
TORSDOF 11
ENDMDL
MODEL 2
REMARK VINA RESULT: -6.621630768      0.792      1.058
REMARK  11 active torsions:
REMARK  status: ('A' for Active; 'I' for Inactive)
REMARK    1  A    between atoms: O1_2  and  C2_3 
REMARK    2  A    between atoms: C2_3  and  C3_5 
REMARK    3  A    between atoms: C4_6  and  O3_7 
REMARK    4  A    between atoms: O3_7  and  C5_8 
REMARK    5  A    between atoms: C6_11  and  O4_12 
REMARK    6  A    between atoms: C6_11  and  C9_17 
REMARK    7  A    between atoms: O4_12  and  C7_13 
REMARK    8  A    between atoms: C7_13  and  O6_15 
REMARK    9  A    between atoms: C10_20  and  O9_21 
REMARK   10  A    between atoms: C11_23  and  O10_24 
REMARK   11  A    between atoms: C12_26  and  O11_27 
ROOT
HETATM    1  C5  UNL     1       6.793   6.572 -14.728  1.00  0.00     0.256 C 
HETATM    2  N1  UNL     1       6.696   5.239 -15.233  1.00  0.00    -0.352 N 
ATOM      3  H1  UNL     1       6.035   4.988 -15.968  1.00  0.00     0.159 HD
HETATM    4  C6  UNL     1       7.573   4.283 -14.651  1.00  0.00     0.261 C 
HETATM    5  C10 UNL     1       8.571   4.887 -13.675  1.00  0.00     0.216 C 
HETATM    6  C11 UNL     1       7.864   5.730 -12.631  1.00  0.00     0.185 C 
HETATM    7  C12 UNL     1       6.745   6.537 -13.237  1.00  0.00     0.198 C 
ENDROOT
BRANCH   4   8
HETATM    8  O4  UNL     1       8.278   3.621 -15.671  1.00  0.00    -0.252 OA
BRANCH   8   9
HETATM    9  C7  UNL     1       8.047   3.940 -17.010  1.00  0.00     0.408 C 
HETATM   10  O5  UNL     1       7.274   3.255 -17.727  1.00  0.00    -0.229 OA
BRANCH   9  11
HETATM   11  O6  UNL     1       8.659   5.028 -17.619  1.00  0.00    -0.303 OA
HETATM   12  C8  UNL     1       9.933   5.473 -17.256  1.00  0.00     0.215 C 
ENDBRANCH   9  11
ENDBRANCH   8   9
ENDBRANCH   4   8
BRANCH   4  13
HETATM   13  C9  UNL     1       6.791   3.241 -13.902  1.00  0.00     0.234 C 
HETATM   14  O7  UNL     1       5.756   3.516 -13.254  1.00  0.00    -0.644 OA
HETATM   15  O8  UNL     1       7.236   1.926 -13.932  1.00  0.00    -0.644 OA
ENDBRANCH   4  13
BRANCH   5  16
HETATM   16  O9  UNL     1       9.235   3.875 -12.987  1.00  0.00    -0.387 OA
ATOM     17  H9  UNL     1       9.990   4.231 -12.533  1.00  0.00     0.210 HD
ENDBRANCH   5  16
BRANCH   1  18
HETATM   18  O3  UNL     1       7.939   7.204 -15.241  1.00  0.00    -0.335 OA
BRANCH  18  19
HETATM   19  C4  UNL     1       7.953   8.402 -15.895  1.00  0.00     0.143 C 
HETATM   20  C3  UNL     1       8.210   9.565 -15.344  1.00  0.00     0.106 C 
BRANCH  20  21
HETATM   21  C2  UNL     1       8.206  10.804 -16.109  1.00  0.00     0.284 C 
HETATM   22  O2  UNL     1       7.312  11.664 -15.951  1.00  0.00    -0.260 OA
BRANCH  21  23
HETATM   23  O1  UNL     1       9.193  11.095 -17.051  1.00  0.00    -0.323 OA
HETATM   24  C1  UNL     1      10.581  11.041 -16.705  1.00  0.00     0.213 C 
ENDBRANCH  21  23
ENDBRANCH  20  21
ENDBRANCH  18  19
ENDBRANCH   1  18
BRANCH   6  25
HETATM   25  O10 UNL     1       7.461   4.931 -11.581  1.00  0.00    -0.390 OA
ATOM     26  H10 UNL     1       7.528   5.414 -10.766  1.00  0.00     0.210 HD
ENDBRANCH   6  25
BRANCH   7  27
HETATM   27  O11 UNL     1       6.681   7.822 -12.682  1.00  0.00    -0.389 OA
ATOM     28  H11 UNL     1       6.288   7.819 -11.817  1.00  0.00     0.210 HD
ENDBRANCH   7  27
TORSDOF 11
ENDMDL
MODEL 3
REMARK VINA RESULT: -6.216338759      2.195      3.352
REMARK  11 active torsions:
REMARK  status: ('A' for Active; 'I' for Inactive)
REMARK    1  A    between atoms: O1_2  and  C2_3 
REMARK    2  A    between atoms: C2_3  and  C3_5 
REMARK    3  A    between atoms: C4_6  and  O3_7 
REMARK    4  A    between atoms: O3_7  and  C5_8 
REMARK    5  A    between atoms: C6_11  and  O4_12 
REMARK    6  A    between atoms: C6_11  and  C9_17 
REMARK    7  A    between atoms: O4_12  and  C7_13 
REMARK    8  A    between atoms: C7_13  and  O6_15 
REMARK    9  A    between atoms: C10_20  and  O9_21 
REMARK   10  A    between atoms: C11_23  and  O10_24 
REMARK   11  A    between atoms: C12_26  and  O11_27 
ROOT
HETATM    1  C5  UNL     1       6.490   6.230 -14.718  1.00  0.00     0.256 C 
HETATM    2  N1  UNL     1       6.586   5.652 -16.020  1.00  0.00    -0.352 N 
ATOM      3  H1  UNL     1       5.783   5.596 -16.647  1.00  0.00     0.159 HD
HETATM    4  C6  UNL     1       7.867   5.159 -16.394  1.00  0.00     0.261 C 
HETATM    5  C10 UNL     1       8.957   5.464 -15.379  1.00  0.00     0.216 C 
HETATM    6  C11 UNL     1       8.547   5.007 -13.992  1.00  0.00     0.185 C 
HETATM    7  C12 UNL     1       7.093   5.298 -13.721  1.00  0.00     0.198 C 
ENDROOT
BRANCH   4   8
HETATM    8  O4  UNL     1       8.232   5.713 -17.634  1.00  0.00    -0.252 OA
BRANCH   8   9
HETATM    9  C7  UNL     1       8.423   7.089 -17.763  1.00  0.00     0.408 C 
HETATM   10  O5  UNL     1       7.452   7.881 -17.884  1.00  0.00    -0.229 OA
BRANCH   9  11
HETATM   11  O6  UNL     1       9.691   7.656 -17.764  1.00  0.00    -0.303 OA
HETATM   12  C8  UNL     1       9.963   8.885 -17.158  1.00  0.00     0.215 C 
ENDBRANCH   9  11
ENDBRANCH   8   9
ENDBRANCH   4   8
BRANCH   4  13
HETATM   13  C9  UNL     1       7.825   3.667 -16.569  1.00  0.00     0.234 C 
HETATM   14  O7  UNL     1       7.503   2.892 -15.640  1.00  0.00    -0.644 OA
HETATM   15  O8  UNL     1       8.155   3.133 -17.807  1.00  0.00    -0.644 OA
ENDBRANCH   4  13
BRANCH   5  16
HETATM   16  O9  UNL     1      10.117   4.765 -15.701  1.00  0.00    -0.387 OA
ATOM     17  H9  UNL     1       9.900   3.880 -15.971  1.00  0.00     0.210 HD
ENDBRANCH   5  16
BRANCH   1  18
HETATM   18  O3  UNL     1       7.065   7.513 -14.712  1.00  0.00    -0.335 OA
BRANCH  18  19
HETATM   19  C4  UNL     1       6.416   8.667 -14.382  1.00  0.00     0.143 C 
HETATM   20  C3  UNL     1       6.375   9.753 -15.117  1.00  0.00     0.106 C 
BRANCH  20  21
HETATM   21  C2  UNL     1       5.659  10.949 -14.695  1.00  0.00     0.284 C 
HETATM   22  O2  UNL     1       5.390  11.866 -15.502  1.00  0.00    -0.260 OA
BRANCH  21  23
HETATM   23  O1  UNL     1       5.238  11.134 -13.377  1.00  0.00    -0.323 OA
HETATM   24  C1  UNL     1       6.048  11.847 -12.437  1.00  0.00     0.213 C 
ENDBRANCH  21  23
ENDBRANCH  20  21
ENDBRANCH  18  19
ENDBRANCH   1  18
BRANCH   6  25
HETATM   25  O10 UNL     1       8.884   3.681 -13.819  1.00  0.00    -0.390 OA
ATOM     26  H10 UNL     1       8.592   3.175 -14.568  1.00  0.00     0.210 HD
ENDBRANCH   6  25
BRANCH   7  27
HETATM   27  O11 UNL     1       6.894   5.736 -12.405  1.00  0.00    -0.389 OA
ATOM     28  H11 UNL     1       5.972   5.827 -12.194  1.00  0.00     0.210 HD
ENDBRANCH   7  27
TORSDOF 11
ENDMDL
MODEL 4
REMARK VINA RESULT: -6.148093294      1.744      2.810
REMARK  11 active torsions:
REMARK  status: ('A' for Active; 'I' for Inactive)
REMARK    1  A    between atoms: O1_2  and  C2_3 
REMARK    2  A    between atoms: C2_3  and  C3_5 
REMARK    3  A    between atoms: C4_6  and  O3_7 
REMARK    4  A    between atoms: O3_7  and  C5_8 
REMARK    5  A    between atoms: C6_11  and  O4_12 
REMARK    6  A    between atoms: C6_11  and  C9_17 
REMARK    7  A    between atoms: O4_12  and  C7_13 
REMARK    8  A    between atoms: C7_13  and  O6_15 
REMARK    9  A    between atoms: C10_20  and  O9_21 
REMARK   10  A    between atoms: C11_23  and  O10_24 
REMARK   11  A    between atoms: C12_26  and  O11_27 
ROOT
HETATM    1  C5  UNL     1       7.263   7.028 -16.408  1.00  0.00     0.256 C 
HETATM    2  N1  UNL     1       7.803   6.022 -17.266  1.00  0.00    -0.352 N 
ATOM      3  H1  UNL     1       7.628   6.018 -18.271  1.00  0.00     0.159 HD
HETATM    4  C6  UNL     1       8.599   5.025 -16.638  1.00  0.00     0.261 C 
HETATM    5  C10 UNL     1       8.852   5.287 -15.161  1.00  0.00     0.216 C 
HETATM    6  C11 UNL     1       7.549   5.532 -14.425  1.00  0.00     0.185 C 
HETATM    7  C12 UNL     1       6.602   6.375 -15.240  1.00  0.00     0.198 C 
ENDROOT
BRANCH   4   8
HETATM    8  O4  UNL     1       9.835   4.933 -17.302  1.00  0.00    -0.252 OA
BRANCH   8   9
HETATM    9  C7  UNL     1      10.879   5.797 -16.971  1.00  0.00     0.408 C 
HETATM   10  O5  UNL     1      11.880   5.403 -16.318  1.00  0.00    -0.229 OA
BRANCH   9  11
HETATM   11  O6  UNL     1      10.869   7.136 -17.343  1.00  0.00    -0.303 OA
HETATM   12  C8  UNL     1      12.002   7.947 -17.257  1.00  0.00     0.215 C 
ENDBRANCH   9  11
ENDBRANCH   8   9
ENDBRANCH   4   8
BRANCH   4  13
HETATM   13  C9  UNL     1       7.937   3.680 -16.744  1.00  0.00     0.234 C 
HETATM   14  O7  UNL     1       8.140   2.765 -15.914  1.00  0.00    -0.644 OA
HETATM   15  O8  UNL     1       7.070   3.447 -17.803  1.00  0.00    -0.644 OA
ENDBRANCH   4  13
BRANCH   5  16
HETATM   16  O9  UNL     1       9.439   4.170 -14.573  1.00  0.00    -0.387 OA
ATOM     17  H9  UNL     1       9.492   3.461 -15.202  1.00  0.00     0.210 HD
ENDBRANCH   5  16
BRANCH   1  18
HETATM   18  O3  UNL     1       8.263   7.949 -16.050  1.00  0.00    -0.335 OA
BRANCH  18  19
HETATM   19  C4  UNL     1       8.271   9.273 -16.382  1.00  0.00     0.143 C 
HETATM   20  C3  UNL     1       8.913  10.215 -15.733  1.00  0.00     0.106 C 
BRANCH  20  21
HETATM   21  C2  UNL     1       8.873  11.610 -16.149  1.00  0.00     0.284 C 
HETATM   22  O2  UNL     1       7.789  12.206 -16.329  1.00  0.00    -0.260 OA
BRANCH  21  23
HETATM   23  O1  UNL     1      10.036  12.351 -16.367  1.00  0.00    -0.323 OA
HETATM   24  C1  UNL     1      11.260  11.709 -16.741  1.00  0.00     0.213 C 
ENDBRANCH  21  23
ENDBRANCH  20  21
ENDBRANCH  18  19
ENDBRANCH   1  18
BRANCH   6  25
HETATM   25  O10 UNL     1       7.008   4.328 -14.023  1.00  0.00    -0.390 OA
ATOM     26  H10 UNL     1       7.703   3.733 -13.768  1.00  0.00     0.210 HD
ENDBRANCH   6  25
BRANCH   7  27
HETATM   27  O11 UNL     1       5.919   7.299 -14.438  1.00  0.00    -0.389 OA
ATOM     28  H11 UNL     1       4.977   7.176 -14.475  1.00  0.00     0.210 HD
ENDBRANCH   7  27
TORSDOF 11
ENDMDL
MODEL 5
REMARK VINA RESULT: -6.031342778      2.233      3.797
REMARK  11 active torsions:
REMARK  status: ('A' for Active; 'I' for Inactive)
REMARK    1  A    between atoms: O1_2  and  C2_3 
REMARK    2  A    between atoms: C2_3  and  C3_5 
REMARK    3  A    between atoms: C4_6  and  O3_7 
REMARK    4  A    between atoms: O3_7  and  C5_8 
REMARK    5  A    between atoms: C6_11  and  O4_12 
REMARK    6  A    between atoms: C6_11  and  C9_17 
REMARK    7  A    between atoms: O4_12  and  C7_13 
REMARK    8  A    between atoms: C7_13  and  O6_15 
REMARK    9  A    between atoms: C10_20  and  O9_21 
REMARK   10  A    between atoms: C11_23  and  O10_24 
REMARK   11  A    between atoms: C12_26  and  O11_27 
ROOT
HETATM    1  C5  UNL     1       6.456   6.313 -14.967  1.00  0.00     0.256 C 
HETATM    2  N1  UNL     1       6.631   5.962 -16.340  1.00  0.00    -0.352 N 
ATOM      3  H1  UNL     1       5.862   6.006 -17.010  1.00  0.00     0.159 HD
HETATM    4  C6  UNL     1       7.937   5.548 -16.720  1.00  0.00     0.261 C 
HETATM    5  C10 UNL     1       8.967   5.686 -15.610  1.00  0.00     0.216 C 
HETATM    6  C11 UNL     1       8.492   5.000 -14.344  1.00  0.00     0.185 C 
HETATM    7  C12 UNL     1       7.021   5.232 -14.108  1.00  0.00     0.198 C 
ENDROOT
BRANCH   4   8
HETATM    8  O4  UNL     1       8.358   6.304 -17.829  1.00  0.00    -0.252 OA
BRANCH   8   9
HETATM    9  C7  UNL     1       8.808   7.614 -17.658  1.00  0.00     0.408 C 
HETATM   10  O5  UNL     1       8.008   8.579 -17.561  1.00  0.00    -0.229 OA
BRANCH   9  11
HETATM   11  O6  UNL     1      10.162   7.920 -17.587  1.00  0.00    -0.303 OA
HETATM   12  C8  UNL     1      10.663   9.182 -17.916  1.00  0.00     0.215 C 
ENDBRANCH   9  11
ENDBRANCH   8   9
ENDBRANCH   4   8
BRANCH   4  13
HETATM   13  C9  UNL     1       7.928   4.106 -17.144  1.00  0.00     0.234 C 
HETATM   14  O7  UNL     1       7.269   3.233 -16.536  1.00  0.00    -0.644 OA
HETATM   15  O8  UNL     1       8.679   3.733 -18.250  1.00  0.00    -0.644 OA
ENDBRANCH   4  13
BRANCH   5  16
HETATM   16  O9  UNL     1      10.154   5.059 -15.982  1.00  0.00    -0.387 OA
ATOM     17  H9  UNL     1      10.733   4.989 -15.232  1.00  0.00     0.210 HD
ENDBRANCH   5  16
BRANCH   1  18
HETATM   18  O3  UNL     1       7.010   7.581 -14.716  1.00  0.00    -0.335 OA
BRANCH  18  19
HETATM   19  C4  UNL     1       6.333   8.650 -14.205  1.00  0.00     0.143 C 
HETATM   20  C3  UNL     1       6.869   9.798 -13.864  1.00  0.00     0.106 C 
BRANCH  20  21
HETATM   21  C2  UNL     1       6.079  10.895 -13.324  1.00  0.00     0.284 C 
HETATM   22  O2  UNL     1       6.356  11.417 -12.222  1.00  0.00    -0.260 OA
BRANCH  21  23
HETATM   23  O1  UNL     1       4.977  11.418 -14.003  1.00  0.00    -0.323 OA
HETATM   24  C1  UNL     1       5.144  12.176 -15.205  1.00  0.00     0.213 C 
ENDBRANCH  21  23
ENDBRANCH  20  21
ENDBRANCH  18  19
ENDBRANCH   1  18
BRANCH   6  25
HETATM   25  O10 UNL     1       8.842   3.667 -14.376  1.00  0.00    -0.390 OA
ATOM     26  H10 UNL     1       8.522   3.232 -13.594  1.00  0.00     0.210 HD
ENDBRANCH   6  25
BRANCH   7  27
HETATM   27  O11 UNL     1       6.747   5.442 -12.750  1.00  0.00    -0.389 OA
ATOM     28  H11 UNL     1       5.816   5.541 -12.585  1.00  0.00     0.210 HD
ENDBRANCH   7  27
TORSDOF 11
ENDMDL
