MODEL 1
REMARK VINA RESULT: -6.412516518      0.000      0.000
REMARK  4 active torsions:
REMARK  status: ('A' for Active; 'I' for Inactive)
REMARK    1  A    between atoms: C2_2  and  O1_3 
REMARK    2  A    between atoms: C2_2  and  C5_11 
REMARK    3  A    between atoms: O1_3  and  C3_4 
REMARK    4  A    between atoms: C3_4  and  N1_6 
ROOT
HETATM    1  C3  UNL     1      56.256  26.103  44.750  1.00  0.00     0.217 C 
HETATM    2  S1  UNL     1      54.649  26.247  44.551  1.00  0.00    -0.033 SA
ENDROOT
BRANCH   1   3
HETATM    3  O1  UNL     1      57.035  25.773  43.659  1.00  0.00    -0.313 OA
BRANCH   3   4
HETATM    4  C2  UNL     1      57.540  26.706  42.738  1.00  0.00     0.216 C 
HETATM    5  C1  UNL     1      58.953  27.063  43.189  1.00  0.00     0.050 C 
BRANCH   4   6
HETATM    6  C5  UNL     1      57.646  26.066  41.414  1.00  0.00     0.260 C 
HETATM    7  N4  UNL     1      58.922  26.000  40.748  1.00  0.00    -0.060 NA
HETATM    8  O2  UNL     1      56.639  25.589  40.876  1.00  0.00    -0.274 OA
ENDBRANCH   4   6
ENDBRANCH   3   4
ENDBRANCH   1   3
BRANCH   1   9
HETATM    9  N1  UNL     1      56.822  26.312  46.005  1.00  0.00    -0.304 N 
HETATM   10  C4  UNL     1      57.245  27.445  46.452  1.00  0.00     0.203 C 
HETATM   11  N2  UNL     1      57.171  28.635  45.677  1.00  0.00    -0.066 NA
HETATM   12  N3  UNL     1      57.796  27.465  47.763  1.00  0.00    -0.066 NA
ATOM     13  H1  UNL     1      56.909  25.503  46.620  1.00  0.00     0.171 HD
ENDBRANCH   1   9
TORSDOF 4
ENDMDL
MODEL 2
REMARK VINA RESULT: -6.106201992      2.674      3.129
REMARK  4 active torsions:
REMARK  status: ('A' for Active; 'I' for Inactive)
REMARK    1  A    between atoms: C2_2  and  O1_3 
REMARK    2  A    between atoms: C2_2  and  C5_11 
REMARK    3  A    between atoms: O1_3  and  C3_4 
REMARK    4  A    between atoms: C3_4  and  N1_6 
ROOT
HETATM    1  C3  UNL     1      56.909  27.523  45.867  1.00  0.00     0.217 C 
HETATM    2  S1  UNL     1      58.378  27.598  46.559  1.00  0.00    -0.033 SA
ENDROOT
BRANCH   1   3
HETATM    3  O1  UNL     1      56.775  27.896  44.544  1.00  0.00    -0.313 OA
BRANCH   3   4
HETATM    4  C2  UNL     1      56.492  27.004  43.497  1.00  0.00     0.216 C 
HETATM    5  C1  UNL     1      57.828  26.473  42.986  1.00  0.00     0.050 C 
BRANCH   4   6
HETATM    6  C5  UNL     1      55.735  25.857  44.032  1.00  0.00     0.260 C 
HETATM    7  N4  UNL     1      54.328  25.994  44.313  1.00  0.00    -0.060 NA
HETATM    8  O2  UNL     1      56.308  24.781  44.239  1.00  0.00    -0.274 OA
ENDBRANCH   4   6
ENDBRANCH   3   4
ENDBRANCH   1   3
BRANCH   1   9
HETATM    9  N1  UNL     1      55.813  27.088  46.609  1.00  0.00    -0.304 N 
HETATM   10  C4  UNL     1      55.176  27.791  47.481  1.00  0.00     0.203 C 
HETATM   11  N2  UNL     1      55.547  29.131  47.781  1.00  0.00    -0.066 NA
HETATM   12  N3  UNL     1      54.078  27.176  48.142  1.00  0.00    -0.066 NA
ATOM     13  H1  UNL     1      55.487  26.134  46.448  1.00  0.00     0.171 HD
ENDBRANCH   1   9
TORSDOF 4
ENDMDL
MODEL 3
REMARK VINA RESULT: -6.051085281      2.682      3.252
REMARK  4 active torsions:
REMARK  status: ('A' for Active; 'I' for Inactive)
REMARK    1  A    between atoms: C2_2  and  O1_3 
REMARK    2  A    between atoms: C2_2  and  C5_11 
REMARK    3  A    between atoms: O1_3  and  C3_4 
REMARK    4  A    between atoms: C3_4  and  N1_6 
ROOT
HETATM    1  C3  UNL     1      57.064  28.218  45.961  1.00  0.00     0.217 C 
HETATM    2  S1  UNL     1      58.069  29.448  46.307  1.00  0.00    -0.033 SA
ENDROOT
BRANCH   1   3
HETATM    3  O1  UNL     1      57.451  27.287  45.017  1.00  0.00    -0.313 OA
BRANCH   3   4
HETATM    4  C2  UNL     1      56.738  27.016  43.837  1.00  0.00     0.216 C 
HETATM    5  C1  UNL     1      57.758  26.607  42.780  1.00  0.00     0.050 C 
BRANCH   4   6
HETATM    6  C5  UNL     1      55.849  25.863  44.066  1.00  0.00     0.260 C 
HETATM    7  N4  UNL     1      54.436  26.072  44.255  1.00  0.00    -0.060 NA
HETATM    8  O2  UNL     1      56.317  24.718  44.096  1.00  0.00    -0.274 OA
ENDBRANCH   4   6
ENDBRANCH   3   4
ENDBRANCH   1   3
BRANCH   1   9
HETATM    9  N1  UNL     1      55.839  28.116  46.614  1.00  0.00    -0.304 N 
HETATM   10  C4  UNL     1      55.461  27.121  47.339  1.00  0.00     0.203 C 
HETATM   11  N2  UNL     1      56.292  25.986  47.550  1.00  0.00    -0.066 NA
HETATM   12  N3  UNL     1      54.169  27.194  47.929  1.00  0.00    -0.066 NA
ATOM     13  H1  UNL     1      55.187  28.895  46.510  1.00  0.00     0.171 HD
ENDBRANCH   1   9
TORSDOF 4
ENDMDL
MODEL 4
REMARK VINA RESULT: -5.889330657      2.556      5.043
REMARK  4 active torsions:
REMARK  status: ('A' for Active; 'I' for Inactive)
REMARK    1  A    between atoms: C2_2  and  O1_3 
REMARK    2  A    between atoms: C2_2  and  C5_11 
REMARK    3  A    between atoms: O1_3  and  C3_4 
REMARK    4  A    between atoms: C3_4  and  N1_6 
ROOT
HETATM    1  C3  UNL     1      57.690  27.042  44.442  1.00  0.00     0.217 C 
HETATM    2  S1  UNL     1      58.153  28.370  45.258  1.00  0.00    -0.033 SA
ENDROOT
BRANCH   1   3
HETATM    3  O1  UNL     1      56.604  26.323  44.901  1.00  0.00    -0.313 OA
BRANCH   3   4
HETATM    4  C2  UNL     1      55.441  26.903  45.435  1.00  0.00     0.216 C 
HETATM    5  C1  UNL     1      54.253  26.147  44.850  1.00  0.00     0.050 C 
BRANCH   4   6
HETATM    6  C5  UNL     1      55.426  26.695  46.894  1.00  0.00     0.260 C 
HETATM    7  N4  UNL     1      54.402  27.315  47.697  1.00  0.00    -0.060 NA
HETATM    8  O2  UNL     1      56.292  25.991  47.427  1.00  0.00    -0.274 OA
ENDBRANCH   4   6
ENDBRANCH   3   4
ENDBRANCH   1   3
BRANCH   1   9
HETATM    9  N1  UNL     1      58.387  26.649  43.302  1.00  0.00    -0.304 N 
HETATM   10  C4  UNL     1      57.852  26.355  42.167  1.00  0.00     0.203 C 
HETATM   11  N2  UNL     1      56.446  26.405  41.962  1.00  0.00    -0.066 NA
HETATM   12  N3  UNL     1      58.727  25.972  41.113  1.00  0.00    -0.066 NA
ATOM     13  H1  UNL     1      59.403  26.589  43.372  1.00  0.00     0.171 HD
ENDBRANCH   1   9
TORSDOF 4
ENDMDL
MODEL 5
REMARK VINA RESULT: -5.856381706      2.484      5.119
REMARK  4 active torsions:
REMARK  status: ('A' for Active; 'I' for Inactive)
REMARK    1  A    between atoms: C2_2  and  O1_3 
REMARK    2  A    between atoms: C2_2  and  C5_11 
REMARK    3  A    between atoms: O1_3  and  C3_4 
REMARK    4  A    between atoms: C3_4  and  N1_6 
ROOT
HETATM    1  C3  UNL     1      56.768  26.903  44.625  1.00  0.00     0.217 C 
HETATM    2  S1  UNL     1      55.344  26.155  44.390  1.00  0.00    -0.033 SA
ENDROOT
BRANCH   1   3
HETATM    3  O1  UNL     1      56.868  27.843  45.632  1.00  0.00    -0.313 OA
BRANCH   3   4
HETATM    4  C2  UNL     1      56.758  27.549  47.001  1.00  0.00     0.216 C 
HETATM    5  C1  UNL     1      57.953  28.191  47.696  1.00  0.00     0.050 C 
BRANCH   4   6
HETATM    6  C5  UNL     1      55.539  28.186  47.534  1.00  0.00     0.260 C 
HETATM    7  N4  UNL     1      54.399  27.377  47.881  1.00  0.00    -0.060 NA
HETATM    8  O2  UNL     1      55.498  29.414  47.681  1.00  0.00    -0.274 OA
ENDBRANCH   4   6
ENDBRANCH   3   4
ENDBRANCH   1   3
BRANCH   1   9
HETATM    9  N1  UNL     1      57.859  26.592  43.818  1.00  0.00    -0.304 N 
HETATM   10  C4  UNL     1      57.804  26.339  42.556  1.00  0.00     0.203 C 
HETATM   11  N2  UNL     1      56.576  26.356  41.838  1.00  0.00    -0.066 NA
HETATM   12  N3  UNL     1      59.027  26.039  41.895  1.00  0.00    -0.066 NA
ATOM     13  H1  UNL     1      58.776  26.561  44.263  1.00  0.00     0.171 HD
ENDBRANCH   1   9
TORSDOF 4
ENDMDL
