MODEL 1
REMARK VINA RESULT: -3.869654772      0.000      0.000
REMARK  1 active torsions:
REMARK  status: ('A' for Active; 'I' for Inactive)
REMARK    1  A    between atoms: C2_2  and  S1_3 
ROOT
HETATM    1  S1  UNL     1      29.298  29.962   9.525  1.00  0.00    -0.109 SA
HETATM    2  C3  UNL     1      29.563  31.087   8.171  1.00  0.00     0.102 C 
HETATM    3  C4  UNL     1      29.011  32.103   9.181  1.00  0.00     0.133 C 
HETATM    4  N1  UNL     1      29.937  31.471  10.134  1.00  0.00    -0.185 NA
ENDROOT
BRANCH   1   5
HETATM    5  C2  UNL     1      30.441  28.648   9.603  1.00  0.00     0.041 C 
HETATM    6  C1  UNL     1      31.062  28.162   8.546  1.00  0.00     0.019 C 
ENDBRANCH   1   5
TORSDOF 1
ENDMDL
MODEL 2
REMARK VINA RESULT: -3.757983369      1.455      1.481
REMARK  1 active torsions:
REMARK  status: ('A' for Active; 'I' for Inactive)
REMARK    1  A    between atoms: C2_2  and  S1_3 
ROOT
HETATM    1  S1  UNL     1      28.481  30.592   9.268  1.00  0.00    -0.109 SA
HETATM    2  C3  UNL     1      29.358  31.606   8.095  1.00  0.00     0.102 C 
HETATM    3  C4  UNL     1      29.446  32.556   9.298  1.00  0.00     0.133 C 
HETATM    4  N1  UNL     1      29.842  31.357  10.056  1.00  0.00    -0.185 NA
ENDROOT
BRANCH   1   5
HETATM    5  C2  UNL     1      28.694  28.878   9.037  1.00  0.00     0.041 C 
HETATM    6  C1  UNL     1      28.326  28.240   7.943  1.00  0.00     0.019 C 
ENDBRANCH   1   5
TORSDOF 1
ENDMDL
MODEL 3
REMARK VINA RESULT: -3.745922671      1.151      1.198
REMARK  1 active torsions:
REMARK  status: ('A' for Active; 'I' for Inactive)
REMARK    1  A    between atoms: C2_2  and  S1_3 
ROOT
HETATM    1  S1  UNL     1      29.617  30.310   9.255  1.00  0.00    -0.109 SA
HETATM    2  C3  UNL     1      28.577  30.324   7.809  1.00  0.00     0.102 C 
HETATM    3  C4  UNL     1      28.958  31.812   7.806  1.00  0.00     0.133 C 
HETATM    4  N1  UNL     1      30.331  31.332   8.029  1.00  0.00    -0.185 NA
ENDROOT
BRANCH   1   5
HETATM    5  C2  UNL     1      30.486  28.820   9.502  1.00  0.00     0.041 C 
HETATM    6  C1  UNL     1      31.037  28.129   8.523  1.00  0.00     0.019 C 
ENDBRANCH   1   5
TORSDOF 1
ENDMDL
MODEL 4
REMARK VINA RESULT: -3.595399431      1.125      1.200
REMARK  1 active torsions:
REMARK  status: ('A' for Active; 'I' for Inactive)
REMARK    1  A    between atoms: C2_2  and  S1_3 
ROOT
HETATM    1  S1  UNL     1      29.115  29.903   8.382  1.00  0.00    -0.109 SA
HETATM    2  C3  UNL     1      29.474  31.616   8.710  1.00  0.00     0.102 C 
HETATM    3  C4  UNL     1      28.097  31.559   9.386  1.00  0.00     0.133 C 
HETATM    4  N1  UNL     1      28.588  30.314   9.998  1.00  0.00    -0.185 NA
ENDROOT
BRANCH   1   5
HETATM    5  C2  UNL     1      30.516  28.866   8.357  1.00  0.00     0.041 C 
HETATM    6  C1  UNL     1      30.949  28.205   9.412  1.00  0.00     0.019 C 
ENDBRANCH   1   5
TORSDOF 1
ENDMDL
MODEL 5
REMARK VINA RESULT: -3.592519843      1.774      1.812
REMARK  1 active torsions:
REMARK  status: ('A' for Active; 'I' for Inactive)
REMARK    1  A    between atoms: C2_2  and  S1_3 
ROOT
HETATM    1  S1  UNL     1      29.645  30.474   8.804  1.00  0.00    -0.109 SA
HETATM    2  C3  UNL     1      28.409  31.661   8.321  1.00  0.00     0.102 C 
HETATM    3  C4  UNL     1      29.529  32.654   8.663  1.00  0.00     0.133 C 
HETATM    4  N1  UNL     1      30.393  31.756   7.880  1.00  0.00    -0.185 NA
ENDROOT
BRANCH   1   5
HETATM    5  C2  UNL     1      29.565  28.961   7.943  1.00  0.00     0.041 C 
HETATM    6  C1  UNL     1      28.463  28.245   7.832  1.00  0.00     0.019 C 
ENDBRANCH   1   5
TORSDOF 1
ENDMDL
