MODEL 1
REMARK VINA RESULT: -8.019898866      0.000      0.000
REMARK  4 active torsions:
REMARK  status: ('A' for Active; 'I' for Inactive)
REMARK    1  A    between atoms: C2_2  and  N1_3 
REMARK    2  A    between atoms: N4_15  and  C9_17 
REMARK    3  A    between atoms: N5_22  and  C14_24 
REMARK    4  A    between atoms: C19_31  and  C20_32 
ROOT
HETATM    1  C1  UNL     1      31.677  -8.767  -9.365  1.00  0.00     0.073 C 
HETATM    2  C2  UNL     1      31.492  -8.504  -8.011  1.00  0.00     0.107 C 
HETATM    3  N3  UNL     1      31.442  -7.268  -7.428  1.00  0.00    -0.326 N 
ATOM      4  H3  UNL     1      31.150  -7.228  -6.452  1.00  0.00     0.169 HD
HETATM    5  C8  UNL     1      31.748  -6.076  -8.036  1.00  0.00     0.147 C 
HETATM    6  N4  UNL     1      31.179  -5.017  -7.589  1.00  0.00    -0.369 N 
ATOM      7  H4  UNL     1      31.377  -4.110  -8.012  1.00  0.00     0.161 HD
HETATM    8  C13 UNL     1      32.600  -5.883  -9.099  1.00  0.00     0.146 C 
HETATM    9  N5  UNL     1      33.395  -4.939  -9.068  1.00  0.00    -0.369 N 
ATOM     10  H5  UNL     1      33.977  -4.884  -9.903  1.00  0.00     0.161 HD
HETATM   11  N6  UNL     1      32.648  -6.699 -10.223  1.00  0.00    -0.343 N 
ATOM     12  H6  UNL     1      33.035  -6.268 -11.063  1.00  0.00     0.167 HD
HETATM   13  C19 UNL     1      32.259  -7.964 -10.355  1.00  0.00     0.018 C 
ENDROOT
BRANCH   2  14
HETATM   14  N1  UNL     1      31.340  -9.616  -7.142  1.00  0.00    -0.359 N 
HETATM   15  C3  UNL     1      31.945 -10.913  -7.393  1.00  0.00     0.158 C 
HETATM   16  C4  UNL     1      31.460 -11.736  -6.224  1.00  0.00     0.205 C 
HETATM   17  C5  UNL     1      31.509 -10.658  -5.123  1.00  0.00     0.061 C 
HETATM   18  N2  UNL     1      30.037 -11.904  -6.359  1.00  0.00    -0.067 N 
HETATM   19  C6  UNL     1      30.605  -9.685  -5.906  1.00  0.00     0.113 C 
HETATM   20  C7  UNL     1      29.429 -10.592  -6.122  1.00  0.00     0.257 C 
ATOM     21  H22 UNL     1      29.764 -12.317  -7.251  1.00  0.00     0.277 HD
ATOM     22  H21 UNL     1      29.659 -12.636  -5.757  1.00  0.00     0.277 HD
ENDBRANCH   2  14
BRANCH  13  23
HETATM   23  C20 UNL     1      32.430  -8.656 -11.640  1.00  0.00     0.036 A 
HETATM   24  C21 UNL     1      32.166  -7.973 -12.928  1.00  0.00     0.011 A 
HETATM   25  C22 UNL     1      31.084  -8.878 -12.378  1.00  0.00     0.011 A 
ENDBRANCH  13  23
BRANCH   6  26
HETATM   26  C9  UNL     1      30.268  -5.114  -6.499  1.00  0.00     0.083 C 
HETATM   27  C10 UNL     1      30.629  -4.380  -5.225  1.00  0.00     0.025 C 
HETATM   28  C11 UNL     1      29.134  -4.064  -5.085  1.00  0.00     0.004 C 
HETATM   29  C12 UNL     1      29.056  -4.180  -6.603  1.00  0.00     0.025 C 
ENDBRANCH   6  26
BRANCH   9  30
HETATM   30  C14 UNL     1      33.671  -3.937  -8.152  1.00  0.00     0.083 C 
HETATM   31  C15 UNL     1      34.375  -2.724  -8.726  1.00  0.00     0.025 C 
HETATM   32  C16 UNL     1      35.441  -2.299  -7.733  1.00  0.00     0.002 C 
HETATM   33  C17 UNL     1      35.080  -3.088  -6.468  1.00  0.00     0.002 C 
HETATM   34  C18 UNL     1      34.725  -4.415  -7.103  1.00  0.00     0.025 C 
ENDBRANCH   9  30
TORSDOF 4
ENDMDL
MODEL 2
REMARK VINA RESULT: -7.755497560      2.966      5.686
REMARK  4 active torsions:
REMARK  status: ('A' for Active; 'I' for Inactive)
REMARK    1  A    between atoms: C2_2  and  N1_3 
REMARK    2  A    between atoms: N4_15  and  C9_17 
REMARK    3  A    between atoms: N5_22  and  C14_24 
REMARK    4  A    between atoms: C19_31  and  C20_32 
ROOT
HETATM    1  C1  UNL     1      31.568  -7.121  -4.492  1.00  0.00     0.073 C 
HETATM    2  C2  UNL     1      32.899  -6.825  -4.774  1.00  0.00     0.107 C 
HETATM    3  N3  UNL     1      33.372  -6.249  -5.921  1.00  0.00    -0.326 N 
ATOM      4  H3  UNL     1      34.348  -5.956  -5.924  1.00  0.00     0.169 HD
HETATM    5  C8  UNL     1      32.653  -6.030  -7.070  1.00  0.00     0.147 C 
HETATM    6  N4  UNL     1      33.021  -5.061  -7.826  1.00  0.00    -0.369 N 
ATOM      7  H4  UNL     1      32.514  -4.863  -8.688  1.00  0.00     0.161 HD
HETATM    8  C13 UNL     1      31.554  -6.734  -7.507  1.00  0.00     0.146 C 
HETATM    9  N5  UNL     1      31.481  -7.054  -8.697  1.00  0.00    -0.369 N 
ATOM     10  H5  UNL     1      30.629  -7.569  -8.916  1.00  0.00     0.161 HD
HETATM   11  N6  UNL     1      30.505  -7.137  -6.689  1.00  0.00    -0.343 N 
ATOM     12  H6  UNL     1      29.620  -7.316  -7.164  1.00  0.00     0.167 HD
HETATM   13  C19 UNL     1      30.497  -7.321  -5.372  1.00  0.00     0.018 C 
ENDROOT
BRANCH   2  14
HETATM   14  N1  UNL     1      33.866  -7.147  -3.787  1.00  0.00    -0.359 N 
HETATM   15  C3  UNL     1      34.983  -6.280  -3.452  1.00  0.00     0.158 C 
HETATM   16  C4  UNL     1      35.717  -7.079  -2.402  1.00  0.00     0.205 C 
HETATM   17  C5  UNL     1      34.510  -7.701  -1.674  1.00  0.00     0.061 C 
HETATM   18  N2  UNL     1      36.270  -8.246  -3.036  1.00  0.00    -0.067 N 
HETATM   19  C6  UNL     1      33.937  -8.325  -2.962  1.00  0.00     0.113 C 
HETATM   20  C7  UNL     1      35.141  -9.112  -3.389  1.00  0.00     0.257 C 
ATOM     21  H22 UNL     1      36.870  -8.026  -3.831  1.00  0.00     0.277 HD
ATOM     22  H21 UNL     1      36.975  -8.717  -2.468  1.00  0.00     0.277 HD
ENDBRANCH   2  14
BRANCH  13  23
HETATM   23  C20 UNL     1      29.273  -7.784  -4.702  1.00  0.00     0.036 A 
HETATM   24  C21 UNL     1      29.318  -8.458  -3.383  1.00  0.00     0.011 A 
HETATM   25  C22 UNL     1      29.192  -9.330  -4.615  1.00  0.00     0.011 A 
ENDBRANCH  13  23
BRANCH   6  26
HETATM   26  C9  UNL     1      34.139  -4.263  -7.452  1.00  0.00     0.083 C 
HETATM   27  C10 UNL     1      34.912  -3.588  -8.566  1.00  0.00     0.025 C 
HETATM   28  C11 UNL     1      35.070  -2.393  -7.616  1.00  0.00     0.004 C 
HETATM   29  C12 UNL     1      33.776  -2.858  -6.957  1.00  0.00     0.025 C 
ENDBRANCH   6  26
BRANCH   9  30
HETATM   30  C14 UNL     1      32.297  -6.870  -9.801  1.00  0.00     0.083 C 
HETATM   31  C15 UNL     1      31.601  -6.301 -11.021  1.00  0.00     0.025 C 
HETATM   32  C16 UNL     1      32.124  -7.046 -12.236  1.00  0.00     0.002 C 
HETATM   33  C17 UNL     1      33.353  -7.788 -11.694  1.00  0.00     0.002 C 
HETATM   34  C18 UNL     1      32.795  -8.240 -10.362  1.00  0.00     0.025 C 
ENDBRANCH   9  30
TORSDOF 4
ENDMDL
MODEL 3
REMARK VINA RESULT: -7.687064066      3.298      7.339
REMARK  4 active torsions:
REMARK  status: ('A' for Active; 'I' for Inactive)
REMARK    1  A    between atoms: C2_2  and  N1_3 
REMARK    2  A    between atoms: N4_15  and  C9_17 
REMARK    3  A    between atoms: N5_22  and  C14_24 
REMARK    4  A    between atoms: C19_31  and  C20_32 
ROOT
HETATM    1  C1  UNL     1      29.213  -3.531  -6.450  1.00  0.00     0.073 C 
HETATM    2  C2  UNL     1      28.170  -4.048  -5.686  1.00  0.00     0.107 C 
HETATM    3  N3  UNL     1      28.216  -5.180  -4.919  1.00  0.00    -0.326 N 
ATOM      4  H3  UNL     1      27.426  -5.350  -4.298  1.00  0.00     0.169 HD
HETATM    5  C8  UNL     1      29.228  -6.107  -4.907  1.00  0.00     0.147 C 
HETATM    6  N4  UNL     1      29.404  -6.783  -3.831  1.00  0.00    -0.369 N 
ATOM      7  H4  UNL     1      30.145  -7.481  -3.780  1.00  0.00     0.161 HD
HETATM    8  C13 UNL     1      30.104  -6.391  -5.930  1.00  0.00     0.146 C 
HETATM    9  N5  UNL     1      30.360  -7.570  -6.191  1.00  0.00    -0.369 N 
ATOM     10  H5  UNL     1      31.019  -7.670  -6.963  1.00  0.00     0.161 HD
HETATM   11  N6  UNL     1      30.720  -5.431  -6.724  1.00  0.00    -0.343 N 
ATOM     12  H6  UNL     1      31.584  -5.725  -7.180  1.00  0.00     0.167 HD
HETATM   13  C19 UNL     1      30.340  -4.180  -6.971  1.00  0.00     0.018 C 
ENDROOT
BRANCH   2  14
HETATM   14  N1  UNL     1      26.938  -3.346  -5.696  1.00  0.00    -0.359 N 
HETATM   15  C3  UNL     1      26.314  -2.811  -4.497  1.00  0.00     0.158 C 
HETATM   16  C4  UNL     1      25.037  -2.207  -5.030  1.00  0.00     0.205 C 
HETATM   17  C5  UNL     1      25.562  -1.661  -6.372  1.00  0.00     0.061 C 
HETATM   18  N2  UNL     1      24.198  -3.280  -5.496  1.00  0.00    -0.067 N 
HETATM   19  C6  UNL     1      26.102  -3.032  -6.826  1.00  0.00     0.113 C 
HETATM   20  C7  UNL     1      24.837  -3.829  -6.696  1.00  0.00     0.257 C 
ATOM     21  H22 UNL     1      24.013  -3.985  -4.782  1.00  0.00     0.277 HD
ATOM     22  H21 UNL     1      23.230  -2.996  -5.651  1.00  0.00     0.277 HD
ENDBRANCH   2  14
BRANCH  13  23
HETATM   23  C20 UNL     1      31.133  -3.334  -7.874  1.00  0.00     0.036 A 
HETATM   24  C21 UNL     1      32.121  -3.917  -8.812  1.00  0.00     0.011 A 
HETATM   25  C22 UNL     1      32.641  -3.335  -7.515  1.00  0.00     0.011 A 
ENDBRANCH  13  23
BRANCH   6  26
HETATM   26  C9  UNL     1      28.558  -6.551  -2.709  1.00  0.00     0.083 C 
HETATM   27  C10 UNL     1      27.678  -7.698  -2.256  1.00  0.00     0.025 C 
HETATM   28  C11 UNL     1      27.955  -7.229  -0.821  1.00  0.00     0.004 C 
HETATM   29  C12 UNL     1      29.265  -6.658  -1.352  1.00  0.00     0.025 C 
ENDBRANCH   6  26
BRANCH   9  30
HETATM   30  C14 UNL     1      29.953  -8.787  -5.669  1.00  0.00     0.083 C 
HETATM   31  C15 UNL     1      31.052  -9.821  -5.531  1.00  0.00     0.025 C 
HETATM   32  C16 UNL     1      30.481 -11.158  -5.969  1.00  0.00     0.002 C 
HETATM   33  C17 UNL     1      28.970 -10.896  -6.023  1.00  0.00     0.002 C 
HETATM   34  C18 UNL     1      28.985  -9.520  -6.652  1.00  0.00     0.025 C 
ENDBRANCH   9  30
TORSDOF 4
ENDMDL
MODEL 4
REMARK VINA RESULT: -7.617276101      0.643      1.104
REMARK  4 active torsions:
REMARK  status: ('A' for Active; 'I' for Inactive)
REMARK    1  A    between atoms: C2_2  and  N1_3 
REMARK    2  A    between atoms: N4_15  and  C9_17 
REMARK    3  A    between atoms: N5_22  and  C14_24 
REMARK    4  A    between atoms: C19_31  and  C20_32 
ROOT
HETATM    1  C1  UNL     1      31.696  -8.766  -9.489  1.00  0.00     0.073 C 
HETATM    2  C2  UNL     1      31.543  -8.503  -8.130  1.00  0.00     0.107 C 
HETATM    3  N3  UNL     1      31.496  -7.266  -7.549  1.00  0.00    -0.326 N 
ATOM      4  H3  UNL     1      31.229  -7.227  -6.566  1.00  0.00     0.169 HD
HETATM    5  C8  UNL     1      31.776  -6.073  -8.166  1.00  0.00     0.147 C 
HETATM    6  N4  UNL     1      31.209  -5.017  -7.706  1.00  0.00    -0.369 N 
ATOM      7  H4  UNL     1      31.388  -4.110  -8.136  1.00  0.00     0.161 HD
HETATM    8  C13 UNL     1      32.599  -5.873  -9.251  1.00  0.00     0.146 C 
HETATM    9  N5  UNL     1      33.386  -4.922  -9.241  1.00  0.00    -0.369 N 
ATOM     10  H5  UNL     1      33.947  -4.864 -10.090  1.00  0.00     0.161 HD
HETATM   11  N6  UNL     1      32.627  -6.691 -10.374  1.00  0.00    -0.343 N 
ATOM     12  H6  UNL     1      32.988  -6.258 -11.225  1.00  0.00     0.167 HD
HETATM   13  C19 UNL     1      32.246  -7.960 -10.494  1.00  0.00     0.018 C 
ENDROOT
BRANCH   2  14
HETATM   14  N1  UNL     1      31.423  -9.614  -7.256  1.00  0.00    -0.359 N 
HETATM   15  C3  UNL     1      30.208  -9.926  -6.523  1.00  0.00     0.158 C 
HETATM   16  C4  UNL     1      30.605 -11.146  -5.728  1.00  0.00     0.205 C 
HETATM   17  C5  UNL     1      31.509 -11.837  -6.768  1.00  0.00     0.061 C 
HETATM   18  N2  UNL     1      31.588 -10.743  -4.757  1.00  0.00    -0.067 N 
HETATM   19  C6  UNL     1      32.418 -10.604  -6.935  1.00  0.00     0.113 C 
HETATM   20  C7  UNL     1      32.808 -10.413  -5.498  1.00  0.00     0.257 C 
ATOM     21  H22 UNL     1      31.268  -9.986  -4.152  1.00  0.00     0.277 HD
ATOM     22  H21 UNL     1      31.738 -11.438  -4.025  1.00  0.00     0.277 HD
ENDBRANCH   2  14
BRANCH  13  23
HETATM   23  C20 UNL     1      32.390  -8.653 -11.782  1.00  0.00     0.036 A 
HETATM   24  C21 UNL     1      32.049  -7.988 -13.062  1.00  0.00     0.011 A 
HETATM   25  C22 UNL     1      31.025  -8.929 -12.463  1.00  0.00     0.011 A 
ENDBRANCH  13  23
BRANCH   6  26
HETATM   26  C9  UNL     1      30.326  -5.121  -6.594  1.00  0.00     0.083 C 
HETATM   27  C10 UNL     1      30.749  -4.441  -5.308  1.00  0.00     0.025 C 
HETATM   28  C11 UNL     1      29.269  -4.082  -5.114  1.00  0.00     0.004 C 
HETATM   29  C12 UNL     1      29.144  -4.145  -6.632  1.00  0.00     0.025 C 
ENDBRANCH   6  26
BRANCH   9  30
HETATM   30  C14 UNL     1      33.677  -3.916  -8.334  1.00  0.00     0.083 C 
HETATM   31  C15 UNL     1      34.330  -2.687  -8.932  1.00  0.00     0.025 C 
HETATM   32  C16 UNL     1      35.425  -2.241  -7.981  1.00  0.00     0.002 C 
HETATM   33  C17 UNL     1      35.131  -3.040  -6.704  1.00  0.00     0.002 C 
HETATM   34  C18 UNL     1      34.781  -4.373  -7.329  1.00  0.00     0.025 C 
ENDBRANCH   9  30
TORSDOF 4
ENDMDL
MODEL 5
REMARK VINA RESULT: -7.517809571      1.407      5.573
REMARK  4 active torsions:
REMARK  status: ('A' for Active; 'I' for Inactive)
REMARK    1  A    between atoms: C2_2  and  N1_3 
REMARK    2  A    between atoms: N4_15  and  C9_17 
REMARK    3  A    between atoms: N5_22  and  C14_24 
REMARK    4  A    between atoms: C19_31  and  C20_32 
ROOT
HETATM    1  C1  UNL     1      31.765  -9.331  -8.703  1.00  0.00     0.073 C 
HETATM    2  C2  UNL     1      31.731  -8.134  -9.414  1.00  0.00     0.107 C 
HETATM    3  N3  UNL     1      31.714  -6.877  -8.876  1.00  0.00    -0.326 N 
ATOM      4  H3  UNL     1      31.843  -6.097  -9.520  1.00  0.00     0.169 HD
HETATM    5  C8  UNL     1      31.541  -6.568  -7.550  1.00  0.00     0.147 C 
HETATM    6  N4  UNL     1      32.054  -5.473  -7.122  1.00  0.00    -0.369 N 
ATOM      7  H4  UNL     1      31.950  -5.206  -6.144  1.00  0.00     0.161 HD
HETATM    8  C13 UNL     1      30.880  -7.318  -6.604  1.00  0.00     0.146 C 
HETATM    9  N5  UNL     1      30.114  -6.752  -5.818  1.00  0.00    -0.369 N 
ATOM     10  H5  UNL     1      29.678  -7.397  -5.159  1.00  0.00     0.161 HD
HETATM   11  N6  UNL     1      30.997  -8.697  -6.475  1.00  0.00    -0.343 N 
ATOM     12  H6  UNL     1      30.764  -9.074  -5.556  1.00  0.00     0.167 HD
HETATM   13  C19 UNL     1      31.372  -9.593  -7.384  1.00  0.00     0.018 C 
ENDROOT
BRANCH   2  14
HETATM   14  N1  UNL     1      31.710  -8.213 -10.830  1.00  0.00    -0.359 N 
HETATM   15  C3  UNL     1      32.875  -7.957 -11.661  1.00  0.00     0.158 C 
HETATM   16  C4  UNL     1      32.329  -8.128 -13.058  1.00  0.00     0.205 C 
HETATM   17  C5  UNL     1      31.356  -9.295 -12.803  1.00  0.00     0.061 C 
HETATM   18  N2  UNL     1      31.396  -7.060 -13.305  1.00  0.00    -0.067 N 
HETATM   19  C6  UNL     1      30.602  -8.545 -11.687  1.00  0.00     0.113 C 
HETATM   20  C7  UNL     1      30.229  -7.310 -12.454  1.00  0.00     0.257 C 
ATOM     21  H22 UNL     1      31.801  -6.133 -13.168  1.00  0.00     0.277 HD
ATOM     22  H21 UNL     1      31.159  -6.953 -14.291  1.00  0.00     0.277 HD
ENDBRANCH   2  14
BRANCH  13  23
HETATM   23  C20 UNL     1      31.398 -11.022  -7.041  1.00  0.00     0.036 A 
HETATM   24  C21 UNL     1      31.001 -11.503  -5.698  1.00  0.00     0.011 A 
HETATM   25  C22 UNL     1      32.480 -11.358  -5.984  1.00  0.00     0.011 A 
ENDBRANCH  13  23
BRANCH   6  26
HETATM   26  C9  UNL     1      32.772  -4.634  -8.022  1.00  0.00     0.083 C 
HETATM   27  C10 UNL     1      32.920  -3.176  -7.641  1.00  0.00     0.025 C 
HETATM   28  C11 UNL     1      34.332  -3.253  -8.237  1.00  0.00     0.004 C 
HETATM   29  C12 UNL     1      34.297  -4.741  -7.905  1.00  0.00     0.025 C 
ENDBRANCH   6  26
BRANCH   9  30
HETATM   30  C14 UNL     1      29.715  -5.439  -5.631  1.00  0.00     0.083 C 
HETATM   31  C15 UNL     1      29.248  -5.107  -4.229  1.00  0.00     0.025 C 
HETATM   32  C16 UNL     1      28.021  -4.222  -4.352  1.00  0.00     0.002 C 
HETATM   33  C17 UNL     1      28.034  -3.804  -5.828  1.00  0.00     0.002 C 
HETATM   34  C18 UNL     1      28.422  -5.127  -6.451  1.00  0.00     0.025 C 
ENDBRANCH   9  30
TORSDOF 4
ENDMDL
