MODEL 1
REMARK VINA RESULT: -9.025172100      0.000      0.000
REMARK  17 active torsions:
REMARK  status: ('A' for Active; 'I' for Inactive)
REMARK    1  A    between atoms: C2_2  and  C4_5 
REMARK    2  A    between atoms: C4_5  and  O1_6 
REMARK    3  A    between atoms: O1_6  and  C5_7 
REMARK    4  A    between atoms: C8_10  and  C9_11 
REMARK    5  A    between atoms: C9_11  and  C10_12 
REMARK    6  A    between atoms: C10_12  and  C11_13 
REMARK    7  A    between atoms: C10_12  and  C20_25 
REMARK    8  A    between atoms: C11_13  and  O2_14 
REMARK    9  A    between atoms: O2_14  and  C12_15 
REMARK   10  A    between atoms: C12_15  and  C13_17 
REMARK   11  A    between atoms: C13_17  and  C14_19 
REMARK   12  A    between atoms: C20_25  and  O4_26 
REMARK   13  A    between atoms: C20_25  and  N2_28 
REMARK   14  A    between atoms: N2_28  and  C21_30 
REMARK   15  A    between atoms: C21_30  and  C22_31 
REMARK   16  A    between atoms: C22_31  and  O6_33 
REMARK   17  A    between atoms: C25_36  and  O7_37 
ROOT
HETATM    1  C1  UNL     1       5.077 -12.391   9.279  1.00  0.00     0.033 C 
HETATM    2  C2  UNL     1       5.991 -11.969   8.427  1.00  0.00     0.037 C 
HETATM    3  C3  UNL     1       5.702 -10.926   7.481  1.00  0.00     0.096 C 
HETATM    4  N1  UNL     1       5.482 -10.081   6.722  1.00  0.00    -0.192 NA
ENDROOT
BRANCH   2   5
HETATM    5  C4  UNL     1       7.340 -12.579   8.446  1.00  0.00     0.224 C 
BRANCH   5   6
HETATM    6  O1  UNL     1       7.313 -13.755   9.198  1.00  0.00    -0.343 OA
BRANCH   6   7
HETATM    7  C5  UNL     1       8.066 -13.879  10.353  1.00  0.00     0.102 A 
HETATM    8  C6  UNL     1       7.572 -13.392  11.540  1.00  0.00     0.040 A 
HETATM    9  C7  UNL     1       8.292 -13.499  12.709  1.00  0.00     0.014 A 
HETATM   10  C8  UNL     1       9.527 -14.107  12.664  1.00  0.00    -0.033 A 
HETATM   11  C24 UNL     1      10.026 -14.597  11.468  1.00  0.00     0.051 A 
HETATM   12  C25 UNL     1       9.295 -14.481  10.320  1.00  0.00     0.102 A 
BRANCH  10  13
HETATM   13  C9  UNL     1      10.336 -14.148  13.855  1.00  0.00     0.025 C 
BRANCH  13  14
HETATM   14  C10 UNL     1      10.455 -14.998  14.799  1.00  0.00     0.017 C 
BRANCH  14  15
HETATM   15  C11 UNL     1      10.487 -14.404  16.226  1.00  0.00     0.222 C 
BRANCH  15  16
HETATM   16  O2  UNL     1      10.404 -15.546  17.056  1.00  0.00    -0.315 OA
BRANCH  16  17
HETATM   17  C12 UNL     1      10.025 -15.536  18.368  1.00  0.00     0.282 C 
HETATM   18  O3  UNL     1      10.108 -16.585  19.048  1.00  0.00    -0.263 OA
BRANCH  17  19
HETATM   19  C13 UNL     1       9.512 -14.310  19.028  1.00  0.00     0.214 C 
HETATM   20 CL1  UNL     1      10.719 -13.012  19.107  1.00  0.00    -0.109 Cl
BRANCH  19  21
HETATM   21  C14 UNL     1       9.085 -14.609  20.430  1.00  0.00    -0.030 A 
HETATM   22  C15 UNL     1      10.014 -14.572  21.443  1.00  0.00     0.009 A 
HETATM   23  C16 UNL     1       9.637 -14.848  22.729  1.00  0.00     0.001 A 
HETATM   24  C17 UNL     1       8.313 -15.167  23.016  1.00  0.00     0.000 A 
HETATM   25  C18 UNL     1       7.396 -15.203  22.009  1.00  0.00     0.001 A 
HETATM   26  C19 UNL     1       7.778 -14.922  20.699  1.00  0.00     0.009 A 
ENDBRANCH  19  21
ENDBRANCH  17  19
ENDBRANCH  16  17
ENDBRANCH  15  16
ENDBRANCH  14  15
BRANCH  14  27
HETATM   27  C20 UNL     1      10.436 -16.424  14.749  1.00  0.00     0.144 C 
BRANCH  27  28
HETATM   28  O4  UNL     1      11.527 -17.063  15.075  1.00  0.00    -0.346 OA
ATOM     29  H4  UNL     1      12.014 -16.755  15.830  1.00  0.00     0.219 HD
ENDBRANCH  27  28
BRANCH  27  30
HETATM   30  N2  UNL     1       9.370 -17.239  14.394  1.00  0.00    -0.361 N 
ATOM     31  H2  UNL     1       9.487 -17.966  13.688  1.00  0.00     0.162 HD
BRANCH  30  32
HETATM   32  C21 UNL     1       8.066 -17.036  15.052  1.00  0.00     0.232 C 
BRANCH  32  33
HETATM   33  C22 UNL     1       7.928 -18.061  16.104  1.00  0.00     0.276 C 
HETATM   34  O5  UNL     1       8.891 -18.539  16.744  1.00  0.00    -0.263 OA
BRANCH  33  35
HETATM   35  O6  UNL     1       6.654 -18.535  16.414  1.00  0.00    -0.325 OA
HETATM   36  C23 UNL     1       6.549 -19.598  17.338  1.00  0.00     0.213 C 
ENDBRANCH  33  35
ENDBRANCH  32  33
ENDBRANCH  30  32
ENDBRANCH  27  30
ENDBRANCH  14  27
ENDBRANCH  13  14
ENDBRANCH  10  13
BRANCH  12  37
HETATM   37  O7  UNL     1       9.814 -14.977   9.139  1.00  0.00    -0.353 OA
HETATM   38  C26 UNL     1      10.544 -14.186   8.228  1.00  0.00     0.210 C 
ENDBRANCH  12  37
ENDBRANCH   6   7
ENDBRANCH   5   6
ENDBRANCH   2   5
TORSDOF 17
ENDMDL
MODEL 2
REMARK VINA RESULT: -9.001296862      2.538      5.252
REMARK  17 active torsions:
REMARK  status: ('A' for Active; 'I' for Inactive)
REMARK    1  A    between atoms: C2_2  and  C4_5 
REMARK    2  A    between atoms: C4_5  and  O1_6 
REMARK    3  A    between atoms: O1_6  and  C5_7 
REMARK    4  A    between atoms: C8_10  and  C9_11 
REMARK    5  A    between atoms: C9_11  and  C10_12 
REMARK    6  A    between atoms: C10_12  and  C11_13 
REMARK    7  A    between atoms: C10_12  and  C20_25 
REMARK    8  A    between atoms: C11_13  and  O2_14 
REMARK    9  A    between atoms: O2_14  and  C12_15 
REMARK   10  A    between atoms: C12_15  and  C13_17 
REMARK   11  A    between atoms: C13_17  and  C14_19 
REMARK   12  A    between atoms: C20_25  and  O4_26 
REMARK   13  A    between atoms: C20_25  and  N2_28 
REMARK   14  A    between atoms: N2_28  and  C21_30 
REMARK   15  A    between atoms: C21_30  and  C22_31 
REMARK   16  A    between atoms: C22_31  and  O6_33 
REMARK   17  A    between atoms: C25_36  and  O7_37 
ROOT
HETATM    1  C1  UNL     1       7.208 -11.448   6.328  1.00  0.00     0.033 C 
HETATM    2  C2  UNL     1       5.944 -11.147   6.553  1.00  0.00     0.037 C 
HETATM    3  C3  UNL     1       5.432  -9.832   6.283  1.00  0.00     0.096 C 
HETATM    4  N1  UNL     1       5.008  -8.778   6.059  1.00  0.00    -0.192 NA
ENDROOT
BRANCH   2   5
HETATM    5  C4  UNL     1       5.034 -12.183   7.093  1.00  0.00     0.224 C 
BRANCH   5   6
HETATM    6  O1  UNL     1       4.730 -11.893   8.424  1.00  0.00    -0.343 OA
BRANCH   6   7
HETATM    7  C5  UNL     1       5.549 -12.325   9.453  1.00  0.00     0.102 A 
HETATM    8  C6  UNL     1       6.412 -13.373   9.237  1.00  0.00     0.040 A 
HETATM    9  C7  UNL     1       7.243 -13.830  10.235  1.00  0.00     0.014 A 
HETATM   10  C8  UNL     1       7.191 -13.211  11.465  1.00  0.00    -0.033 A 
HETATM   11  C24 UNL     1       6.320 -12.155  11.684  1.00  0.00     0.051 A 
HETATM   12  C25 UNL     1       5.504 -11.718  10.679  1.00  0.00     0.102 A 
BRANCH  10  13
HETATM   13  C9  UNL     1       7.983 -13.729  12.550  1.00  0.00     0.025 C 
BRANCH  13  14
HETATM   14  C10 UNL     1       9.166 -14.202  12.617  1.00  0.00     0.017 C 
BRANCH  14  15
HETATM   15  C11 UNL     1       9.265 -15.685  13.043  1.00  0.00     0.222 C 
BRANCH  15  16
HETATM   16  O2  UNL     1       9.316 -15.615  14.454  1.00  0.00    -0.315 OA
BRANCH  16  17
HETATM   17  C12 UNL     1      10.423 -15.873  15.212  1.00  0.00     0.282 C 
HETATM   18  O3  UNL     1      11.516 -15.336  14.918  1.00  0.00    -0.263 OA
BRANCH  17  19
HETATM   19  C13 UNL     1      10.377 -16.777  16.388  1.00  0.00     0.214 C 
HETATM   20 CL1  UNL     1       9.085 -17.988  16.277  1.00  0.00    -0.109 Cl
BRANCH  19  21
HETATM   21  C14 UNL     1      10.149 -15.994  17.642  1.00  0.00    -0.030 A 
HETATM   22  C15 UNL     1       9.900 -16.657  18.820  1.00  0.00     0.009 A 
HETATM   23  C16 UNL     1       9.687 -15.953  19.973  1.00  0.00     0.001 A 
HETATM   24  C17 UNL     1       9.719 -14.561  19.957  1.00  0.00     0.000 A 
HETATM   25  C18 UNL     1       9.966 -13.907  18.788  1.00  0.00     0.001 A 
HETATM   26  C19 UNL     1      10.184 -14.624  17.613  1.00  0.00     0.009 A 
ENDBRANCH  19  21
ENDBRANCH  17  19
ENDBRANCH  16  17
ENDBRANCH  15  16
ENDBRANCH  14  15
BRANCH  14  27
HETATM   27  C20 UNL     1      10.407 -13.609  12.236  1.00  0.00     0.144 C 
BRANCH  27  28
HETATM   28  O4  UNL     1      11.056 -12.918  13.134  1.00  0.00    -0.346 OA
ATOM     29  H4  UNL     1      11.813 -12.419  12.850  1.00  0.00     0.219 HD
ENDBRANCH  27  28
BRANCH  27  30
HETATM   30  N2  UNL     1      11.031 -13.683  10.998  1.00  0.00    -0.361 N 
ATOM     31  H2  UNL     1      11.834 -14.295  10.859  1.00  0.00     0.162 HD
BRANCH  30  32
HETATM   32  C21 UNL     1      10.513 -12.860   9.888  1.00  0.00     0.232 C 
BRANCH  32  33
HETATM   33  C22 UNL     1      10.381 -13.732   8.705  1.00  0.00     0.276 C 
HETATM   34  O5  UNL     1      10.266 -14.976   8.764  1.00  0.00    -0.263 OA
BRANCH  33  35
HETATM   35  O6  UNL     1      10.384 -13.146   7.439  1.00  0.00    -0.325 OA
HETATM   36  C23 UNL     1      11.034 -13.836   6.393  1.00  0.00     0.213 C 
ENDBRANCH  33  35
ENDBRANCH  32  33
ENDBRANCH  30  32
ENDBRANCH  27  30
ENDBRANCH  14  27
ENDBRANCH  13  14
ENDBRANCH  10  13
BRANCH  12  37
HETATM   37  O7  UNL     1       4.645 -10.663  10.921  1.00  0.00    -0.353 OA
HETATM   38  C26 UNL     1       4.288 -10.247  12.221  1.00  0.00     0.210 C 
ENDBRANCH  12  37
ENDBRANCH   6   7
ENDBRANCH   5   6
ENDBRANCH   2   5
TORSDOF 17
ENDMDL
MODEL 3
REMARK VINA RESULT: -8.949453643      1.347      2.089
REMARK  17 active torsions:
REMARK  status: ('A' for Active; 'I' for Inactive)
REMARK    1  A    between atoms: C2_2  and  C4_5 
REMARK    2  A    between atoms: C4_5  and  O1_6 
REMARK    3  A    between atoms: O1_6  and  C5_7 
REMARK    4  A    between atoms: C8_10  and  C9_11 
REMARK    5  A    between atoms: C9_11  and  C10_12 
REMARK    6  A    between atoms: C10_12  and  C11_13 
REMARK    7  A    between atoms: C10_12  and  C20_25 
REMARK    8  A    between atoms: C11_13  and  O2_14 
REMARK    9  A    between atoms: O2_14  and  C12_15 
REMARK   10  A    between atoms: C12_15  and  C13_17 
REMARK   11  A    between atoms: C13_17  and  C14_19 
REMARK   12  A    between atoms: C20_25  and  O4_26 
REMARK   13  A    between atoms: C20_25  and  N2_28 
REMARK   14  A    between atoms: N2_28  and  C21_30 
REMARK   15  A    between atoms: C21_30  and  C22_31 
REMARK   16  A    between atoms: C22_31  and  O6_33 
REMARK   17  A    between atoms: C25_36  and  O7_37 
ROOT
HETATM    1  C1  UNL     1       6.505 -11.457   7.540  1.00  0.00     0.033 C 
HETATM    2  C2  UNL     1       7.720 -11.821   7.177  1.00  0.00     0.037 C 
HETATM    3  C3  UNL     1       8.236 -11.499   5.876  1.00  0.00     0.096 C 
HETATM    4  N1  UNL     1       8.664 -11.236   4.832  1.00  0.00    -0.192 NA
ENDROOT
BRANCH   2   5
HETATM    5  C4  UNL     1       8.568 -12.574   8.129  1.00  0.00     0.224 C 
BRANCH   5   6
HETATM    6  O1  UNL     1       8.194 -12.264   9.438  1.00  0.00    -0.343 OA
BRANCH   6   7
HETATM    7  C5  UNL     1       8.903 -12.759  10.519  1.00  0.00     0.102 A 
HETATM    8  C6  UNL     1      10.277 -12.786  10.472  1.00  0.00     0.040 A 
HETATM    9  C7  UNL     1      11.016 -13.270  11.528  1.00  0.00     0.014 A 
HETATM   10  C8  UNL     1      10.346 -13.731  12.640  1.00  0.00    -0.033 A 
HETATM   11  C24 UNL     1       8.961 -13.705  12.687  1.00  0.00     0.051 A 
HETATM   12  C25 UNL     1       8.247 -13.220  11.628  1.00  0.00     0.102 A 
BRANCH  10  13
HETATM   13  C9  UNL     1      11.094 -14.326  13.718  1.00  0.00     0.025 C 
BRANCH  13  14
HETATM   14  C10 UNL     1      10.769 -15.084  14.691  1.00  0.00     0.017 C 
BRANCH  14  15
HETATM   15  C11 UNL     1      10.597 -14.378  16.055  1.00  0.00     0.222 C 
BRANCH  15  16
HETATM   16  O2  UNL     1      10.007 -15.375  16.866  1.00  0.00    -0.315 OA
BRANCH  16  17
HETATM   17  C12 UNL     1       9.951 -15.344  18.230  1.00  0.00     0.282 C 
HETATM   18  O3  UNL     1      10.268 -16.362  18.889  1.00  0.00    -0.263 OA
BRANCH  17  19
HETATM   19  C13 UNL     1       9.524 -14.132  18.972  1.00  0.00     0.214 C 
HETATM   20 CL1  UNL     1      10.685 -12.797  18.839  1.00  0.00    -0.109 Cl
BRANCH  19  21
HETATM   21  C14 UNL     1       9.360 -14.439  20.426  1.00  0.00    -0.030 A 
HETATM   22  C15 UNL     1       8.273 -15.169  20.847  1.00  0.00     0.009 A 
HETATM   23  C16 UNL     1       8.109 -15.453  22.175  1.00  0.00     0.001 A 
HETATM   24  C17 UNL     1       9.042 -15.003  23.105  1.00  0.00     0.000 A 
HETATM   25  C18 UNL     1      10.117 -14.280  22.685  1.00  0.00     0.001 A 
HETATM   26  C19 UNL     1      10.285 -13.990  21.332  1.00  0.00     0.009 A 
ENDBRANCH  19  21
ENDBRANCH  17  19
ENDBRANCH  16  17
ENDBRANCH  15  16
ENDBRANCH  14  15
BRANCH  14  27
HETATM   27  C20 UNL     1      10.414 -16.467  14.688  1.00  0.00     0.144 C 
BRANCH  27  28
HETATM   28  O4  UNL     1      11.315 -17.330  15.073  1.00  0.00    -0.346 OA
ATOM     29  H4  UNL     1      11.024 -18.206  15.298  1.00  0.00     0.219 HD
ENDBRANCH  27  28
BRANCH  27  30
HETATM   30  N2  UNL     1       9.196 -17.023  14.323  1.00  0.00    -0.361 N 
ATOM     31  H2  UNL     1       8.672 -16.649  13.532  1.00  0.00     0.162 HD
BRANCH  30  32
HETATM   32  C21 UNL     1       8.670 -18.161  15.100  1.00  0.00     0.232 C 
BRANCH  32  33
HETATM   33  C22 UNL     1       7.490 -17.690  15.848  1.00  0.00     0.276 C 
HETATM   34  O5  UNL     1       7.312 -16.501  16.195  1.00  0.00    -0.263 OA
BRANCH  33  35
HETATM   35  O6  UNL     1       6.506 -18.615  16.198  1.00  0.00    -0.325 OA
HETATM   36  C23 UNL     1       6.748 -19.448  17.312  1.00  0.00     0.213 C 
ENDBRANCH  33  35
ENDBRANCH  32  33
ENDBRANCH  30  32
ENDBRANCH  27  30
ENDBRANCH  14  27
ENDBRANCH  13  14
ENDBRANCH  10  13
BRANCH  12  37
HETATM   37  O7  UNL     1       6.868 -13.204  11.699  1.00  0.00    -0.353 OA
HETATM   38  C26 UNL     1       6.113 -12.012  11.716  1.00  0.00     0.210 C 
ENDBRANCH  12  37
ENDBRANCH   6   7
ENDBRANCH   5   6
ENDBRANCH   2   5
TORSDOF 17
ENDMDL
MODEL 4
REMARK VINA RESULT: -8.800518891      3.770      9.789
REMARK  17 active torsions:
REMARK  status: ('A' for Active; 'I' for Inactive)
REMARK    1  A    between atoms: C2_2  and  C4_5 
REMARK    2  A    between atoms: C4_5  and  O1_6 
REMARK    3  A    between atoms: O1_6  and  C5_7 
REMARK    4  A    between atoms: C8_10  and  C9_11 
REMARK    5  A    between atoms: C9_11  and  C10_12 
REMARK    6  A    between atoms: C10_12  and  C11_13 
REMARK    7  A    between atoms: C10_12  and  C20_25 
REMARK    8  A    between atoms: C11_13  and  O2_14 
REMARK    9  A    between atoms: O2_14  and  C12_15 
REMARK   10  A    between atoms: C12_15  and  C13_17 
REMARK   11  A    between atoms: C13_17  and  C14_19 
REMARK   12  A    between atoms: C20_25  and  O4_26 
REMARK   13  A    between atoms: C20_25  and  N2_28 
REMARK   14  A    between atoms: N2_28  and  C21_30 
REMARK   15  A    between atoms: C21_30  and  C22_31 
REMARK   16  A    between atoms: C22_31  and  O6_33 
REMARK   17  A    between atoms: C25_36  and  O7_37 
ROOT
HETATM    1  C1  UNL     1       9.390 -17.444  17.408  1.00  0.00     0.033 C 
HETATM    2  C2  UNL     1       8.283 -17.602  16.706  1.00  0.00     0.037 C 
HETATM    3  C3  UNL     1       7.316 -18.604  17.058  1.00  0.00     0.096 C 
HETATM    4  N1  UNL     1       6.525 -19.402  17.338  1.00  0.00    -0.192 NA
ENDROOT
BRANCH   2   5
HETATM    5  C4  UNL     1       8.034 -16.729  15.536  1.00  0.00     0.224 C 
BRANCH   5   6
HETATM    6  O1  UNL     1       8.973 -17.001  14.539  1.00  0.00    -0.343 OA
BRANCH   6   7
HETATM    7  C5  UNL     1       9.306 -16.045  13.595  1.00  0.00     0.102 A 
HETATM    8  C6  UNL     1       8.533 -15.911  12.465  1.00  0.00     0.040 A 
HETATM    9  C7  UNL     1       8.832 -14.971  11.505  1.00  0.00     0.014 A 
HETATM   10  C8  UNL     1       9.930 -14.162  11.699  1.00  0.00    -0.033 A 
HETATM   11  C24 UNL     1      10.710 -14.297  12.837  1.00  0.00     0.051 A 
HETATM   12  C25 UNL     1      10.395 -15.236  13.778  1.00  0.00     0.102 A 
BRANCH  10  13
HETATM   13  C9  UNL     1      10.315 -13.235  10.667  1.00  0.00     0.025 C 
BRANCH  13  14
HETATM   14  C10 UNL     1      10.164 -13.229   9.400  1.00  0.00     0.017 C 
BRANCH  14  15
HETATM   15  C11 UNL     1       9.592 -11.921   8.806  1.00  0.00     0.222 C 
BRANCH  15  16
HETATM   16  O2  UNL     1       8.786 -12.376   7.736  1.00  0.00    -0.315 OA
BRANCH  16  17
HETATM   17  C12 UNL     1       7.437 -12.186   7.636  1.00  0.00     0.282 C 
HETATM   18  O3  UNL     1       6.991 -11.241   6.944  1.00  0.00    -0.263 OA
BRANCH  17  19
HETATM   19  C13 UNL     1       6.466 -13.071   8.326  1.00  0.00     0.214 C 
HETATM   20 CL1  UNL     1       5.096 -13.529   7.296  1.00  0.00    -0.109 Cl
BRANCH  19  21
HETATM   21  C14 UNL     1       5.908 -12.392   9.536  1.00  0.00    -0.030 A 
HETATM   22  C15 UNL     1       4.666 -11.805   9.472  1.00  0.00     0.009 A 
HETATM   23  C16 UNL     1       4.146 -11.177  10.570  1.00  0.00     0.001 A 
HETATM   24  C17 UNL     1       4.872 -11.130  11.757  1.00  0.00     0.000 A 
HETATM   25  C18 UNL     1       6.102 -11.713  11.817  1.00  0.00     0.001 A 
HETATM   26  C19 UNL     1       6.633 -12.353  10.698  1.00  0.00     0.009 A 
ENDBRANCH  19  21
ENDBRANCH  17  19
ENDBRANCH  16  17
ENDBRANCH  15  16
ENDBRANCH  14  15
BRANCH  14  27
HETATM   27  C20 UNL     1      10.563 -14.198   8.431  1.00  0.00     0.144 C 
BRANCH  27  28
HETATM   28  O4  UNL     1       9.822 -15.265   8.293  1.00  0.00    -0.346 OA
ATOM     29  H4  UNL     1      10.076 -16.048   8.767  1.00  0.00     0.219 HD
ENDBRANCH  27  28
BRANCH  27  30
HETATM   30  N2  UNL     1      11.665 -14.144   7.590  1.00  0.00    -0.361 N 
ATOM     31  H2  UNL     1      12.591 -14.397   7.933  1.00  0.00     0.162 HD
BRANCH  30  32
HETATM   32  C21 UNL     1      11.475 -13.714   6.192  1.00  0.00     0.232 C 
BRANCH  32  33
HETATM   33  C22 UNL     1      11.150 -14.911   5.393  1.00  0.00     0.276 C 
HETATM   34  O5  UNL     1      11.469 -16.076   5.719  1.00  0.00    -0.263 OA
BRANCH  33  35
HETATM   35  O6  UNL     1      10.446 -14.749   4.200  1.00  0.00    -0.325 OA
HETATM   36  C23 UNL     1      10.018 -15.910   3.521  1.00  0.00     0.213 C 
ENDBRANCH  33  35
ENDBRANCH  32  33
ENDBRANCH  30  32
ENDBRANCH  27  30
ENDBRANCH  14  27
ENDBRANCH  13  14
ENDBRANCH  10  13
BRANCH  12  37
HETATM   37  O7  UNL     1      11.187 -15.352  14.904  1.00  0.00    -0.353 OA
HETATM   38  C26 UNL     1      11.062 -14.501  16.022  1.00  0.00     0.210 C 
ENDBRANCH  12  37
ENDBRANCH   6   7
ENDBRANCH   5   6
ENDBRANCH   2   5
TORSDOF 17
ENDMDL
MODEL 5
REMARK VINA RESULT: -8.742207544      3.549      9.827
REMARK  17 active torsions:
REMARK  status: ('A' for Active; 'I' for Inactive)
REMARK    1  A    between atoms: C2_2  and  C4_5 
REMARK    2  A    between atoms: C4_5  and  O1_6 
REMARK    3  A    between atoms: O1_6  and  C5_7 
REMARK    4  A    between atoms: C8_10  and  C9_11 
REMARK    5  A    between atoms: C9_11  and  C10_12 
REMARK    6  A    between atoms: C10_12  and  C11_13 
REMARK    7  A    between atoms: C10_12  and  C20_25 
REMARK    8  A    between atoms: C11_13  and  O2_14 
REMARK    9  A    between atoms: O2_14  and  C12_15 
REMARK   10  A    between atoms: C12_15  and  C13_17 
REMARK   11  A    between atoms: C13_17  and  C14_19 
REMARK   12  A    between atoms: C20_25  and  O4_26 
REMARK   13  A    between atoms: C20_25  and  N2_28 
REMARK   14  A    between atoms: N2_28  and  C21_30 
REMARK   15  A    between atoms: C21_30  and  C22_31 
REMARK   16  A    between atoms: C22_31  and  O6_33 
REMARK   17  A    between atoms: C25_36  and  O7_37 
ROOT
HETATM    1  C1  UNL     1      10.371 -17.628  17.090  1.00  0.00     0.033 C 
HETATM    2  C2  UNL     1      10.259 -16.377  17.493  1.00  0.00     0.037 C 
HETATM    3  C3  UNL     1       9.906 -16.061  18.849  1.00  0.00     0.096 C 
HETATM    4  N1  UNL     1       9.630 -15.795  19.942  1.00  0.00    -0.192 NA
ENDROOT
BRANCH   2   5
HETATM    5  C4  UNL     1      10.505 -15.278  16.531  1.00  0.00     0.224 C 
BRANCH   5   6
HETATM    6  O1  UNL     1      10.830 -15.811  15.282  1.00  0.00    -0.343 OA
BRANCH   6   7
HETATM    7  C5  UNL     1      10.570 -15.109  14.118  1.00  0.00     0.102 A 
HETATM    8  C6  UNL     1      11.533 -14.277  13.599  1.00  0.00     0.040 A 
HETATM    9  C7  UNL     1      11.310 -13.563  12.442  1.00  0.00     0.014 A 
HETATM   10  C8  UNL     1      10.093 -13.702  11.811  1.00  0.00    -0.033 A 
HETATM   11  C24 UNL     1       9.122 -14.541  12.335  1.00  0.00     0.051 A 
HETATM   12  C25 UNL     1       9.364 -15.239  13.484  1.00  0.00     0.102 A 
BRANCH  10  13
HETATM   13  C9  UNL     1       9.805 -12.898  10.652  1.00  0.00     0.025 C 
BRANCH  13  14
HETATM   14  C10 UNL     1       9.814 -13.138   9.399  1.00  0.00     0.017 C 
BRANCH  14  15
HETATM   15  C11 UNL     1       9.297 -11.993   8.499  1.00  0.00     0.222 C 
BRANCH  15  16
HETATM   16  O2  UNL     1       8.276 -12.612   7.740  1.00  0.00    -0.315 OA
BRANCH  16  17
HETATM   17  C12 UNL     1       6.981 -12.183   7.672  1.00  0.00     0.282 C 
HETATM   18  O3  UNL     1       6.709 -11.119   7.069  1.00  0.00    -0.263 OA
BRANCH  17  19
HETATM   19  C13 UNL     1       5.868 -12.942   8.294  1.00  0.00     0.214 C 
HETATM   20 CL1  UNL     1       4.433 -13.038   7.256  1.00  0.00    -0.109 Cl
BRANCH  19  21
HETATM   21  C14 UNL     1       5.449 -12.299   9.578  1.00  0.00    -0.030 A 
HETATM   22  C15 UNL     1       6.302 -12.319  10.656  1.00  0.00     0.009 A 
HETATM   23  C16 UNL     1       5.930 -11.738  11.837  1.00  0.00     0.001 A 
HETATM   24  C17 UNL     1       4.685 -11.125  11.952  1.00  0.00     0.000 A 
HETATM   25  C18 UNL     1       3.842 -11.107  10.881  1.00  0.00     0.001 A 
HETATM   26  C19 UNL     1       4.222 -11.699   9.677  1.00  0.00     0.009 A 
ENDBRANCH  19  21
ENDBRANCH  17  19
ENDBRANCH  16  17
ENDBRANCH  15  16
ENDBRANCH  14  15
BRANCH  14  27
HETATM   27  C20 UNL     1      10.350 -14.256   8.691  1.00  0.00     0.144 C 
BRANCH  27  28
HETATM   28  O4  UNL     1       9.672 -15.372   8.708  1.00  0.00    -0.346 OA
ATOM     29  H4  UNL     1      10.068 -16.140   8.313  1.00  0.00     0.219 HD
ENDBRANCH  27  28
BRANCH  27  30
HETATM   30  N2  UNL     1      11.529 -14.304   7.961  1.00  0.00    -0.361 N 
ATOM     31  H2  UNL     1      12.404 -14.574   8.409  1.00  0.00     0.162 HD
BRANCH  30  32
HETATM   32  C21 UNL     1      11.495 -13.958   6.528  1.00  0.00     0.232 C 
BRANCH  32  33
HETATM   33  C22 UNL     1      10.795 -15.046   5.818  1.00  0.00     0.276 C 
HETATM   34  O5  UNL     1       9.588 -15.004   5.494  1.00  0.00    -0.263 OA
BRANCH  33  35
HETATM   35  O6  UNL     1      11.511 -16.195   5.483  1.00  0.00    -0.325 OA
HETATM   36  C23 UNL     1      11.848 -16.392   4.126  1.00  0.00     0.213 C 
ENDBRANCH  33  35
ENDBRANCH  32  33
ENDBRANCH  30  32
ENDBRANCH  27  30
ENDBRANCH  14  27
ENDBRANCH  13  14
ENDBRANCH  10  13
BRANCH  12  37
HETATM   37  O7  UNL     1       8.380 -16.069  13.985  1.00  0.00    -0.353 OA
HETATM   38  C26 UNL     1       8.477 -17.476  13.964  1.00  0.00     0.210 C 
ENDBRANCH  12  37
ENDBRANCH   6   7
ENDBRANCH   5   6
ENDBRANCH   2   5
TORSDOF 17
ENDMDL
