MODEL 1
REMARK VINA RESULT: -9.067453652      0.000      0.000
REMARK  17 active torsions:
REMARK  status: ('A' for Active; 'I' for Inactive)
REMARK    1  A    between atoms: C2_2  and  C4_4 
REMARK    2  A    between atoms: C2_2  and  O2_6 
REMARK    3  A    between atoms: O2_6  and  N1_7 
REMARK       I    between atoms: N1_7  and  C5_8 
REMARK    4  A    between atoms: C5_8  and  C6_10 
REMARK    5  A    between atoms: C7_14  and  N4_15 
REMARK    6  A    between atoms: C8_20  and  C9_21 
REMARK    7  A    between atoms: C9_21  and  N7_22 
REMARK    8  A    between atoms: C9_21  and  N8_26 
REMARK    9  A    between atoms: C10_30  and  O4_31 
REMARK   10  A    between atoms: C11_33  and  O5_34 
REMARK   11  A    between atoms: C12_36  and  N9_37 
REMARK       I    between atoms: N9_37  and  C13_39 
REMARK   12  A    between atoms: C13_39  and  C14_41 
REMARK   13  A    between atoms: C14_41  and  O7_42 
REMARK   14  A    between atoms: C14_41  and  C15_44 
REMARK   15  A    between atoms: C17_48  and  N11_49 
REMARK   16  A    between atoms: C18_52  and  O8_53 
REMARK   17  A    between atoms: C19_55  and  O9_56 
ROOT
HETATM    1  C6  UNL     1     -25.573  13.808 -21.939  1.00  0.00     0.132 C 
HETATM    2  N2  UNL     1     -26.398  14.733 -21.505  1.00  0.00    -0.298 N 
ATOM      3  H2  UNL     1     -27.118  14.544 -20.807  1.00  0.00     0.182 HD
HETATM    4  N3  UNL     1     -26.211  16.016 -22.081  1.00  0.00    -0.110 NA
HETATM    5  C7  UNL     1     -26.324  15.948 -23.548  1.00  0.00     0.255 C 
HETATM    6  C11 UNL     1     -25.363  14.937 -24.101  1.00  0.00     0.189 C 
HETATM    7  C12 UNL     1     -24.586  14.313 -22.939  1.00  0.00     0.174 C 
ENDROOT
BRANCH   7   8
HETATM    8  N9  UNL     1     -23.592  13.385 -23.321  1.00  0.00    -0.346 N 
HETATM    9  C13 UNL     1     -22.374  13.185 -22.629  1.00  0.00     0.254 C 
HETATM   10  O6  UNL     1     -22.153  13.931 -21.627  1.00  0.00    -0.270 OA
ATOM     11  H9  UNL     1     -23.764  12.820 -24.153  1.00  0.00     0.163 HD
BRANCH   9  12
HETATM   12  C14 UNL     1     -21.347  12.198 -22.960  1.00  0.00     0.277 C 
BRANCH  12  13
HETATM   13  O7  UNL     1     -20.133  12.938 -23.127  1.00  0.00    -0.378 OA
ATOM     14  H7  UNL     1     -19.616  12.768 -22.347  1.00  0.00     0.211 HD
ENDBRANCH  12  13
BRANCH  12  15
HETATM   15  C15 UNL     1     -21.011  11.201 -21.933  1.00  0.00     0.121 C 
HETATM   16  N10 UNL     1     -20.640   9.974 -22.341  1.00  0.00    -0.351 N 
HETATM   17  C16 UNL     1     -19.889   9.021 -21.723  1.00  0.00     0.121 C 
ATOM     18  H10 UNL     1     -20.977   9.714 -23.268  1.00  0.00     0.166 HD
HETATM   19  C17 UNL     1     -19.264   9.106 -20.490  1.00  0.00     0.079 C 
HETATM   20  C18 UNL     1     -19.183  10.239 -19.707  1.00  0.00     0.144 C 
HETATM   21  C19 UNL     1     -20.062  11.291 -19.685  1.00  0.00     0.177 C 
HETATM   22  N12 UNL     1     -21.053  11.549 -20.609  1.00  0.00    -0.322 N 
ATOM     23  H12 UNL     1     -21.885  12.038 -20.280  1.00  0.00     0.169 HD
BRANCH  19  24
HETATM   24  N11 UNL     1     -18.723   8.031 -20.052  1.00  0.00    -0.396 N 
ATOM     25 2H11 UNL     1     -17.734   7.877 -20.248  1.00  0.00     0.156 HD
ATOM     26 1H11 UNL     1     -19.330   7.399 -19.529  1.00  0.00     0.156 HD
ENDBRANCH  19  24
BRANCH  20  27
HETATM   27  O8  UNL     1     -18.093  10.307 -18.857  1.00  0.00    -0.355 OA
ATOM     28  H8  UNL     1     -17.728  11.173 -18.721  1.00  0.00     0.218 HD
ENDBRANCH  20  27
BRANCH  21  29
HETATM   29  O9  UNL     1     -19.900  12.149 -18.627  1.00  0.00    -0.344 OA
ATOM     30  H9  UNL     1     -20.700  12.564 -18.328  1.00  0.00     0.219 HD
ENDBRANCH  21  29
ENDBRANCH  12  15
ENDBRANCH   9  12
ENDBRANCH   7   8
BRANCH   1  31
HETATM   31  C5  UNL     1     -25.623  12.427 -21.461  1.00  0.00     0.369 C 
HETATM   32  N1  UNL     1     -26.276  11.417 -22.147  1.00  0.00    -0.234 NA
HETATM   33  O3  UNL     1     -25.012  12.235 -20.377  1.00  0.00    -0.247 OA
BRANCH  32  34
HETATM   34  O2  UNL     1     -26.858  10.488 -22.750  1.00  0.00    -0.188 OA
BRANCH  34  35
HETATM   35  C2  UNL     1     -26.164   9.338 -23.051  1.00  0.00     0.148 C 
HETATM   36  C1  UNL     1     -24.998   9.579 -23.975  1.00  0.00     0.057 C 
HETATM   37  C3  UNL     1     -27.039   8.269 -23.688  1.00  0.00     0.057 C 
BRANCH  35  38
HETATM   38  C4  UNL     1     -25.602   8.801 -21.744  1.00  0.00     0.272 C 
HETATM   39  O1  UNL     1     -26.357   8.348 -20.918  1.00  0.00    -0.303 OA
ENDBRANCH  35  38
ENDBRANCH  34  35
ENDBRANCH  32  34
ENDBRANCH   1  31
BRANCH   6  40
HETATM   40  O5  UNL     1     -24.510  15.413 -25.078  1.00  0.00    -0.390 OA
ATOM     41  H5  UNL     1     -24.549  14.951 -25.907  1.00  0.00     0.210 HD
ENDBRANCH   6  40
BRANCH   5  42
HETATM   42  N4  UNL     1     -26.329  17.218 -24.192  1.00  0.00    -0.230 N 
HETATM   43  N5  UNL     1     -26.641  17.402 -25.496  1.00  0.00    -0.236 N 
HETATM   44  N6  UNL     1     -26.558  18.665 -25.835  1.00  0.00    -0.282 N 
ATOM     45  H5  UNL     1     -26.907  16.653 -26.136  1.00  0.00     0.208 HD
HETATM   46  C8  UNL     1     -26.180  19.364 -24.734  1.00  0.00     0.137 A 
ATOM     47  H6  UNL     1     -26.743  19.054 -26.759  1.00  0.00     0.188 HD
HETATM   48  C10 UNL     1     -26.045  18.432 -23.723  1.00  0.00     0.188 A 
BRANCH  46  49
HETATM   49  C9  UNL     1     -25.918  20.845 -24.649  1.00  0.00     0.433 C 
BRANCH  49  50
HETATM   50  N7  UNL     1     -27.113  21.612 -24.980  1.00  0.00    -0.045 N 
ATOM     51  H73 UNL     1     -27.402  21.458 -25.946  1.00  0.00     0.277 HD
ATOM     52  H72 UNL     1     -27.938  21.241 -24.509  1.00  0.00     0.277 HD
ATOM     53  H71 UNL     1     -26.982  22.603 -24.781  1.00  0.00     0.277 HD
ENDBRANCH  49  50
BRANCH  49  54
HETATM   54  N8  UNL     1     -24.791  21.225 -25.452  1.00  0.00    -0.045 N 
ATOM     55  H83 UNL     1     -24.376  22.097 -25.123  1.00  0.00     0.277 HD
ATOM     56  H82 UNL     1     -23.997  20.605 -25.297  1.00  0.00     0.277 HD
ATOM     57  H81 UNL     1     -25.037  21.278 -26.440  1.00  0.00     0.277 HD
ENDBRANCH  49  54
ENDBRANCH  46  49
BRANCH  48  58
HETATM   58  O4  UNL     1     -25.667  18.749 -22.416  1.00  0.00    -0.343 OA
ATOM     59  H4  UNL     1     -26.143  19.303 -21.809  1.00  0.00     0.219 HD
ENDBRANCH  48  58
ENDBRANCH   5  42
TORSDOF 17
ENDMDL
MODEL 2
REMARK VINA RESULT: -9.053028504      2.372      8.692
REMARK  17 active torsions:
REMARK  status: ('A' for Active; 'I' for Inactive)
REMARK    1  A    between atoms: C2_2  and  C4_4 
REMARK    2  A    between atoms: C2_2  and  O2_6 
REMARK    3  A    between atoms: O2_6  and  N1_7 
REMARK       I    between atoms: N1_7  and  C5_8 
REMARK    4  A    between atoms: C5_8  and  C6_10 
REMARK    5  A    between atoms: C7_14  and  N4_15 
REMARK    6  A    between atoms: C8_20  and  C9_21 
REMARK    7  A    between atoms: C9_21  and  N7_22 
REMARK    8  A    between atoms: C9_21  and  N8_26 
REMARK    9  A    between atoms: C10_30  and  O4_31 
REMARK   10  A    between atoms: C11_33  and  O5_34 
REMARK   11  A    between atoms: C12_36  and  N9_37 
REMARK       I    between atoms: N9_37  and  C13_39 
REMARK   12  A    between atoms: C13_39  and  C14_41 
REMARK   13  A    between atoms: C14_41  and  O7_42 
REMARK   14  A    between atoms: C14_41  and  C15_44 
REMARK   15  A    between atoms: C17_48  and  N11_49 
REMARK   16  A    between atoms: C18_52  and  O8_53 
REMARK   17  A    between atoms: C19_55  and  O9_56 
ROOT
HETATM    1  C6  UNL     1     -22.550  11.997 -23.123  1.00  0.00     0.132 C 
HETATM    2  N2  UNL     1     -21.266  11.738 -23.213  1.00  0.00    -0.298 N 
ATOM      3  H2  UNL     1     -20.881  11.106 -23.916  1.00  0.00     0.182 HD
HETATM    4  N3  UNL     1     -20.455  12.405 -22.260  1.00  0.00    -0.110 NA
HETATM    5  C7  UNL     1     -20.895  12.087 -20.891  1.00  0.00     0.255 C 
HETATM    6  C11 UNL     1     -22.349  12.412 -20.719  1.00  0.00     0.189 C 
HETATM    7  C12 UNL     1     -22.886  12.969 -22.040  1.00  0.00     0.174 C 
ENDROOT
BRANCH   7   8
HETATM    8  N9  UNL     1     -24.236  13.382 -22.004  1.00  0.00    -0.346 N 
HETATM    9  C13 UNL     1     -24.745  14.516 -22.681  1.00  0.00     0.254 C 
HETATM   10  O6  UNL     1     -23.910  15.227 -23.320  1.00  0.00    -0.270 OA
ATOM     11  H9  UNL     1     -24.890  12.825 -21.453  1.00  0.00     0.163 HD
BRANCH   9  12
HETATM   12  C14 UNL     1     -26.143  14.945 -22.713  1.00  0.00     0.277 C 
BRANCH  12  13
HETATM   13  O7  UNL     1     -26.517  15.161 -21.348  1.00  0.00    -0.378 OA
ATOM     14  H7  UNL     1     -27.377  14.767 -21.249  1.00  0.00     0.211 HD
ENDBRANCH  12  13
BRANCH  12  15
HETATM   15  C15 UNL     1     -26.442  16.229 -23.364  1.00  0.00     0.121 C 
HETATM   16  N10 UNL     1     -26.405  17.343 -22.611  1.00  0.00    -0.351 N 
HETATM   17  C16 UNL     1     -26.206  18.645 -22.958  1.00  0.00     0.121 C 
ATOM     18  H10 UNL     1     -26.552  17.187 -21.614  1.00  0.00     0.166 HD
HETATM   19  C17 UNL     1     -25.939  19.151 -24.220  1.00  0.00     0.079 C 
HETATM   20  C18 UNL     1     -25.695  18.400 -25.352  1.00  0.00     0.144 C 
HETATM   21  C19 UNL     1     -26.147  17.133 -25.614  1.00  0.00     0.177 C 
HETATM   22  N12 UNL     1     -26.714  16.263 -24.706  1.00  0.00    -0.322 N 
ATOM     23  H12 UNL     1     -27.393  15.589 -25.063  1.00  0.00     0.169 HD
BRANCH  19  24
HETATM   24  N11 UNL     1     -25.921  20.427 -24.327  1.00  0.00    -0.396 N 
ATOM     25 2H11 UNL     1     -25.042  20.912 -24.150  1.00  0.00     0.156 HD
ATOM     26 1H11 UNL     1     -26.802  20.871 -24.589  1.00  0.00     0.156 HD
ENDBRANCH  19  24
BRANCH  20  27
HETATM   27  O8  UNL     1     -24.911  19.006 -26.318  1.00  0.00    -0.355 OA
ATOM     28  H8  UNL     1     -25.349  19.216 -27.134  1.00  0.00     0.218 HD
ENDBRANCH  20  27
BRANCH  21  29
HETATM   29  O9  UNL     1     -25.996  16.730 -26.916  1.00  0.00    -0.344 OA
ATOM     30  H9  UNL     1     -26.670  17.042 -27.507  1.00  0.00     0.219 HD
ENDBRANCH  21  29
ENDBRANCH  12  15
ENDBRANCH   9  12
ENDBRANCH   7   8
BRANCH   1  31
HETATM   31  C5  UNL     1     -23.536  11.395 -24.020  1.00  0.00     0.369 C 
HETATM   32  N1  UNL     1     -24.512  10.516 -23.581  1.00  0.00    -0.234 NA
HETATM   33  O3  UNL     1     -23.426  11.753 -25.221  1.00  0.00    -0.247 OA
BRANCH  32  34
HETATM   34  O2  UNL     1     -25.403   9.720 -23.209  1.00  0.00    -0.188 OA
BRANCH  34  35
HETATM   35  C2  UNL     1     -26.291  10.109 -22.232  1.00  0.00     0.148 C 
HETATM   36  C1  UNL     1     -27.260   9.020 -21.849  1.00  0.00     0.057 C 
HETATM   37  C3  UNL     1     -27.109  11.330 -22.630  1.00  0.00     0.057 C 
BRANCH  35  38
HETATM   38  C4  UNL     1     -25.475  10.445 -20.994  1.00  0.00     0.272 C 
HETATM   39  O1  UNL     1     -25.724  11.453 -20.377  1.00  0.00    -0.303 OA
ENDBRANCH  35  38
ENDBRANCH  34  35
ENDBRANCH  32  34
ENDBRANCH   1  31
BRANCH   6  40
HETATM   40  O5  UNL     1     -22.640  13.256 -19.663  1.00  0.00    -0.390 OA
ATOM     41  H5  UNL     1     -23.464  13.721 -19.735  1.00  0.00     0.210 HD
ENDBRANCH   6  40
BRANCH   5  42
HETATM   42  N4  UNL     1     -20.024  12.570 -19.872  1.00  0.00    -0.230 N 
HETATM   43  N5  UNL     1     -19.629  13.859 -19.765  1.00  0.00    -0.236 N 
HETATM   44  N6  UNL     1     -18.821  14.030 -18.747  1.00  0.00    -0.282 N 
ATOM     45  H5  UNL     1     -19.921  14.605 -20.397  1.00  0.00     0.208 HD
HETATM   46  C8  UNL     1     -18.661  12.826 -18.141  1.00  0.00     0.137 A 
ATOM     47  H6  UNL     1     -18.391  14.909 -18.461  1.00  0.00     0.188 HD
HETATM   48  C10 UNL     1     -19.425  11.932 -18.867  1.00  0.00     0.188 A 
BRANCH  46  49
HETATM   49  C9  UNL     1     -17.791  12.523 -16.950  1.00  0.00     0.433 C 
BRANCH  49  50
HETATM   50  N7  UNL     1     -17.785  11.097 -16.649  1.00  0.00    -0.045 N 
ATOM     51  H73 UNL     1     -18.624  10.636 -17.002  1.00  0.00     0.277 HD
ATOM     52  H72 UNL     1     -17.089  10.600 -17.205  1.00  0.00     0.277 HD
ATOM     53  H71 UNL     1     -17.657  10.930 -15.651  1.00  0.00     0.277 HD
ENDBRANCH  49  50
BRANCH  49  54
HETATM   54  N8  UNL     1     -18.164  13.314 -15.812  1.00  0.00    -0.045 N 
ATOM     55  H83 UNL     1     -18.674  14.153 -16.092  1.00  0.00     0.277 HD
ATOM     56  H82 UNL     1     -18.896  12.860 -15.266  1.00  0.00     0.277 HD
ATOM     57  H81 UNL     1     -17.355  13.544 -15.235  1.00  0.00     0.277 HD
ENDBRANCH  49  54
ENDBRANCH  46  49
BRANCH  48  58
HETATM   58  O4  UNL     1     -19.533  10.573 -18.564  1.00  0.00    -0.343 OA
ATOM     59  H4  UNL     1     -18.861   9.913 -18.685  1.00  0.00     0.219 HD
ENDBRANCH  48  58
ENDBRANCH   5  42
TORSDOF 17
ENDMDL
MODEL 3
REMARK VINA RESULT: -9.000298162      1.027      1.144
REMARK  17 active torsions:
REMARK  status: ('A' for Active; 'I' for Inactive)
REMARK    1  A    between atoms: C2_2  and  C4_4 
REMARK    2  A    between atoms: C2_2  and  O2_6 
REMARK    3  A    between atoms: O2_6  and  N1_7 
REMARK       I    between atoms: N1_7  and  C5_8 
REMARK    4  A    between atoms: C5_8  and  C6_10 
REMARK    5  A    between atoms: C7_14  and  N4_15 
REMARK    6  A    between atoms: C8_20  and  C9_21 
REMARK    7  A    between atoms: C9_21  and  N7_22 
REMARK    8  A    between atoms: C9_21  and  N8_26 
REMARK    9  A    between atoms: C10_30  and  O4_31 
REMARK   10  A    between atoms: C11_33  and  O5_34 
REMARK   11  A    between atoms: C12_36  and  N9_37 
REMARK       I    between atoms: N9_37  and  C13_39 
REMARK   12  A    between atoms: C13_39  and  C14_41 
REMARK   13  A    between atoms: C14_41  and  O7_42 
REMARK   14  A    between atoms: C14_41  and  C15_44 
REMARK   15  A    between atoms: C17_48  and  N11_49 
REMARK   16  A    between atoms: C18_52  and  O8_53 
REMARK   17  A    between atoms: C19_55  and  O9_56 
ROOT
HETATM    1  C6  UNL     1     -25.655  13.682 -21.850  1.00  0.00     0.132 C 
HETATM    2  N2  UNL     1     -26.426  14.628 -21.366  1.00  0.00    -0.298 N 
ATOM      3  H2  UNL     1     -27.169  14.439 -20.692  1.00  0.00     0.182 HD
HETATM    4  N3  UNL     1     -26.148  15.931 -21.851  1.00  0.00    -0.110 NA
HETATM    5  C7  UNL     1     -26.239  15.968 -23.321  1.00  0.00     0.255 C 
HETATM    6  C11 UNL     1     -25.335  14.937 -23.928  1.00  0.00     0.189 C 
HETATM    7  C12 UNL     1     -24.620  14.188 -22.800  1.00  0.00     0.174 C 
ENDROOT
BRANCH   7   8
HETATM    8  N9  UNL     1     -23.680  13.225 -23.231  1.00  0.00    -0.346 N 
HETATM    9  C13 UNL     1     -22.411  13.023 -22.639  1.00  0.00     0.254 C 
HETATM   10  O6  UNL     1     -22.090  13.800 -21.688  1.00  0.00    -0.270 OA
ATOM     11  H9  UNL     1     -23.934  12.634 -24.023  1.00  0.00     0.163 HD
BRANCH   9  12
HETATM   12  C14 UNL     1     -21.435  12.003 -23.020  1.00  0.00     0.277 C 
BRANCH  12  13
HETATM   13  O7  UNL     1     -20.217  12.706 -23.287  1.00  0.00    -0.378 OA
ATOM     14  H7  UNL     1     -20.388  13.238 -24.056  1.00  0.00     0.211 HD
ENDBRANCH  12  13
BRANCH  12  15
HETATM   15  C15 UNL     1     -21.052  11.018 -21.997  1.00  0.00     0.121 C 
HETATM   16  N10 UNL     1     -20.633   9.808 -22.411  1.00  0.00    -0.351 N 
HETATM   17  C16 UNL     1     -19.840   8.885 -21.799  1.00  0.00     0.121 C 
ATOM     18  H10 UNL     1     -20.963   9.537 -23.337  1.00  0.00     0.166 HD
HETATM   19  C17 UNL     1     -19.214   8.993 -20.568  1.00  0.00     0.079 C 
HETATM   20  C18 UNL     1     -19.176  10.127 -19.783  1.00  0.00     0.144 C 
HETATM   21  C19 UNL     1     -20.097  11.141 -19.753  1.00  0.00     0.177 C 
HETATM   22  N12 UNL     1     -21.103  11.359 -20.672  1.00  0.00    -0.322 N 
ATOM     23  H12 UNL     1     -21.954  11.813 -20.337  1.00  0.00     0.169 HD
BRANCH  19  24
HETATM   24  N11 UNL     1     -18.626   7.940 -20.136  1.00  0.00    -0.396 N 
ATOM     25 2H11 UNL     1     -19.195   7.115 -19.948  1.00  0.00     0.156 HD
ATOM     26 1H11 UNL     1     -17.615   8.005 -20.011  1.00  0.00     0.156 HD
ENDBRANCH  19  24
BRANCH  20  27
HETATM   27  O8  UNL     1     -18.085  10.237 -18.938  1.00  0.00    -0.355 OA
ATOM     28  H8  UNL     1     -18.253  10.054 -18.021  1.00  0.00     0.218 HD
ENDBRANCH  20  27
BRANCH  21  29
HETATM   29  O9  UNL     1     -19.967  12.001 -18.693  1.00  0.00    -0.344 OA
ATOM     30  H9  UNL     1     -20.094  11.602 -17.841  1.00  0.00     0.219 HD
ENDBRANCH  21  29
ENDBRANCH  12  15
ENDBRANCH   9  12
ENDBRANCH   7   8
BRANCH   1  31
HETATM   31  C5  UNL     1     -25.800  12.278 -21.467  1.00  0.00     0.369 C 
HETATM   32  N1  UNL     1     -26.362  11.326 -22.302  1.00  0.00    -0.234 NA
HETATM   33  O3  UNL     1     -25.362  12.010 -20.319  1.00  0.00    -0.247 OA
BRANCH  32  34
HETATM   34  O2  UNL     1     -26.864  10.448 -23.038  1.00  0.00    -0.188 OA
BRANCH  34  35
HETATM   35  C2  UNL     1     -26.173   9.280 -23.264  1.00  0.00     0.148 C 
HETATM   36  C1  UNL     1     -25.015   9.454 -24.212  1.00  0.00     0.057 C 
HETATM   37  C3  UNL     1     -27.056   8.170 -23.817  1.00  0.00     0.057 C 
BRANCH  35  38
HETATM   38  C4  UNL     1     -25.602   8.834 -21.927  1.00  0.00     0.272 C 
HETATM   39  O1  UNL     1     -26.332   8.325 -21.112  1.00  0.00    -0.303 OA
ENDBRANCH  35  38
ENDBRANCH  34  35
ENDBRANCH  32  34
ENDBRANCH   1  31
BRANCH   6  40
HETATM   40  O5  UNL     1     -24.435  15.421 -24.859  1.00  0.00    -0.390 OA
ATOM     41  H5  UNL     1     -23.683  14.864 -25.020  1.00  0.00     0.210 HD
ENDBRANCH   6  40
BRANCH   5  42
HETATM   42  N4  UNL     1     -26.152  17.277 -23.877  1.00  0.00    -0.230 N 
HETATM   43  N5  UNL     1     -25.750  18.367 -23.184  1.00  0.00    -0.236 N 
HETATM   44  N6  UNL     1     -25.772  19.444 -23.930  1.00  0.00    -0.282 N 
ATOM     45  H5  UNL     1     -25.465  18.353 -22.204  1.00  0.00     0.208 HD
HETATM   46  C8  UNL     1     -26.201  19.082 -25.165  1.00  0.00     0.137 A 
ATOM     47  H6  UNL     1     -25.514  20.386 -23.635  1.00  0.00     0.188 HD
HETATM   48  C10 UNL     1     -26.430  17.721 -25.102  1.00  0.00     0.188 A 
BRANCH  46  49
HETATM   49  C9  UNL     1     -26.422  19.989 -26.347  1.00  0.00     0.433 C 
BRANCH  49  50
HETATM   50  N7  UNL     1     -27.718  20.652 -26.268  1.00  0.00    -0.045 N 
ATOM     51  H73 UNL     1     -28.463  20.065 -26.644  1.00  0.00     0.277 HD
ATOM     52  H72 UNL     1     -28.046  20.721 -25.304  1.00  0.00     0.277 HD
ATOM     53  H71 UNL     1     -27.695  21.565 -26.722  1.00  0.00     0.277 HD
ENDBRANCH  49  50
BRANCH  49  54
HETATM   54  N8  UNL     1     -26.248  19.289 -27.587  1.00  0.00    -0.045 N 
ATOM     55  H83 UNL     1     -26.142  19.934 -28.369  1.00  0.00     0.277 HD
ATOM     56  H82 UNL     1     -25.335  18.835 -27.634  1.00  0.00     0.277 HD
ATOM     57  H81 UNL     1     -27.004  18.624 -27.750  1.00  0.00     0.277 HD
ENDBRANCH  49  54
ENDBRANCH  46  49
BRANCH  48  58
HETATM   58  O4  UNL     1     -26.884  16.955 -26.179  1.00  0.00    -0.343 OA
ATOM     59  H4  UNL     1     -27.353  17.275 -26.941  1.00  0.00     0.219 HD
ENDBRANCH  48  58
ENDBRANCH   5  42
TORSDOF 17
ENDMDL
MODEL 4
REMARK VINA RESULT: -8.866510139      2.320      3.172
REMARK  17 active torsions:
REMARK  status: ('A' for Active; 'I' for Inactive)
REMARK    1  A    between atoms: C2_2  and  C4_4 
REMARK    2  A    between atoms: C2_2  and  O2_6 
REMARK    3  A    between atoms: O2_6  and  N1_7 
REMARK       I    between atoms: N1_7  and  C5_8 
REMARK    4  A    between atoms: C5_8  and  C6_10 
REMARK    5  A    between atoms: C7_14  and  N4_15 
REMARK    6  A    between atoms: C8_20  and  C9_21 
REMARK    7  A    between atoms: C9_21  and  N7_22 
REMARK    8  A    between atoms: C9_21  and  N8_26 
REMARK    9  A    between atoms: C10_30  and  O4_31 
REMARK   10  A    between atoms: C11_33  and  O5_34 
REMARK   11  A    between atoms: C12_36  and  N9_37 
REMARK       I    between atoms: N9_37  and  C13_39 
REMARK   12  A    between atoms: C13_39  and  C14_41 
REMARK   13  A    between atoms: C14_41  and  O7_42 
REMARK   14  A    between atoms: C14_41  and  C15_44 
REMARK   15  A    between atoms: C17_48  and  N11_49 
REMARK   16  A    between atoms: C18_52  and  O8_53 
REMARK   17  A    between atoms: C19_55  and  O9_56 
ROOT
HETATM    1  C6  UNL     1     -26.054  13.016 -22.386  1.00  0.00     0.132 C 
HETATM    2  N2  UNL     1     -27.180  13.682 -22.501  1.00  0.00    -0.298 N 
ATOM      3  H2  UNL     1     -28.087  13.220 -22.572  1.00  0.00     0.182 HD
HETATM    4  N3  UNL     1     -27.039  15.093 -22.520  1.00  0.00    -0.110 NA
HETATM    5  C7  UNL     1     -26.141  15.511 -23.610  1.00  0.00     0.255 C 
HETATM    6  C11 UNL     1     -24.818  14.814 -23.495  1.00  0.00     0.189 C 
HETATM    7  C12 UNL     1     -24.853  13.896 -22.271  1.00  0.00     0.174 C 
ENDROOT
BRANCH   7   8
HETATM    8  N9  UNL     1     -23.641  13.222 -22.002  1.00  0.00    -0.346 N 
HETATM    9  C13 UNL     1     -23.224  12.807 -20.714  1.00  0.00     0.254 C 
HETATM   10  O6  UNL     1     -23.979  13.110 -19.740  1.00  0.00    -0.270 OA
ATOM     11  H9  UNL     1     -23.023  13.020 -22.788  1.00  0.00     0.163 HD
BRANCH   9  12
HETATM   12  C14 UNL     1     -22.006  12.061 -20.402  1.00  0.00     0.277 C 
BRANCH  12  13
HETATM   13  O7  UNL     1     -22.165  10.778 -21.017  1.00  0.00    -0.378 OA
ATOM     14  H7  UNL     1     -21.359  10.618 -21.496  1.00  0.00     0.211 HD
ENDBRANCH  12  13
BRANCH  12  15
HETATM   15  C15 UNL     1     -20.743  12.563 -20.961  1.00  0.00     0.121 C 
HETATM   16  N10 UNL     1     -20.202  11.899 -21.998  1.00  0.00    -0.351 N 
HETATM   17  C16 UNL     1     -19.343  12.314 -22.970  1.00  0.00     0.121 C 
ATOM     18  H10 UNL     1     -20.482  10.920 -22.068  1.00  0.00     0.166 HD
HETATM   19  C17 UNL     1     -18.831  13.587 -23.156  1.00  0.00     0.079 C 
HETATM   20  C18 UNL     1     -19.205  14.715 -22.454  1.00  0.00     0.144 C 
HETATM   21  C19 UNL     1     -19.706  14.764 -21.179  1.00  0.00     0.177 C 
HETATM   22  N12 UNL     1     -20.173  13.695 -20.442  1.00  0.00    -0.322 N 
ATOM     23  H12 UNL     1     -20.086  13.753 -19.427  1.00  0.00     0.169 HD
BRANCH  19  24
HETATM   24  N11 UNL     1     -17.932  13.711 -24.060  1.00  0.00    -0.396 N 
ATOM     25 2H11 UNL     1     -17.853  12.976 -24.763  1.00  0.00     0.156 HD
ATOM     26 1H11 UNL     1     -17.353  14.550 -24.011  1.00  0.00     0.156 HD
ENDBRANCH  19  24
BRANCH  20  27
HETATM   27  O8  UNL     1     -19.052  15.918 -23.121  1.00  0.00    -0.355 OA
ATOM     28  H8  UNL     1     -18.916  16.680 -22.571  1.00  0.00     0.218 HD
ENDBRANCH  20  27
BRANCH  21  29
HETATM   29  O9  UNL     1     -19.733  16.017 -20.624  1.00  0.00    -0.344 OA
ATOM     30  H9  UNL     1     -20.502  16.530 -20.842  1.00  0.00     0.219 HD
ENDBRANCH  21  29
ENDBRANCH  12  15
ENDBRANCH   9  12
ENDBRANCH   7   8
BRANCH   1  31
HETATM   31  C5  UNL     1     -26.007  11.555 -22.355  1.00  0.00     0.369 C 
HETATM   32  N1  UNL     1     -24.885  10.832 -22.724  1.00  0.00    -0.234 NA
HETATM   33  O3  UNL     1     -27.070  11.014 -21.955  1.00  0.00    -0.247 OA
BRANCH  32  34
HETATM   34  O2  UNL     1     -23.883  10.156 -23.051  1.00  0.00    -0.188 OA
BRANCH  34  35
HETATM   35  C2  UNL     1     -23.420  10.218 -24.345  1.00  0.00     0.148 C 
HETATM   36  C1  UNL     1     -23.259  11.630 -24.846  1.00  0.00     0.057 C 
HETATM   37  C3  UNL     1     -24.318   9.483 -25.329  1.00  0.00     0.057 C 
BRANCH  35  38
HETATM   38  C4  UNL     1     -22.043   9.574 -24.358  1.00  0.00     0.272 C 
HETATM   39  O1  UNL     1     -21.462   9.399 -23.314  1.00  0.00    -0.303 OA
ENDBRANCH  35  38
ENDBRANCH  34  35
ENDBRANCH  32  34
ENDBRANCH   1  31
BRANCH   6  40
HETATM   40  O5  UNL     1     -23.717  15.650 -23.466  1.00  0.00    -0.390 OA
ATOM     41  H5  UNL     1     -23.351  15.802 -22.603  1.00  0.00     0.210 HD
ENDBRANCH   6  40
BRANCH   5  42
HETATM   42  N4  UNL     1     -26.088  16.920 -23.813  1.00  0.00    -0.230 N 
HETATM   43  N5  UNL     1     -25.765  17.811 -22.847  1.00  0.00    -0.236 N 
HETATM   44  N6  UNL     1     -25.802  19.041 -23.297  1.00  0.00    -0.282 N 
ATOM     45  H5  UNL     1     -25.524  17.557 -21.888  1.00  0.00     0.208 HD
HETATM   46  C8  UNL     1     -26.158  18.990 -24.606  1.00  0.00     0.137 A 
ATOM     47  H6  UNL     1     -25.599  19.884 -22.761  1.00  0.00     0.188 HD
HETATM   48  C10 UNL     1     -26.330  17.651 -24.900  1.00  0.00     0.188 A 
BRANCH  46  49
HETATM   49  C9  UNL     1     -26.366  20.160 -25.531  1.00  0.00     0.433 C 
BRANCH  49  50
HETATM   50  N7  UNL     1     -27.759  20.260 -25.951  1.00  0.00    -0.045 N 
ATOM     51  H73 UNL     1     -27.835  20.465 -26.948  1.00  0.00     0.277 HD
ATOM     52  H72 UNL     1     -28.219  19.350 -25.943  1.00  0.00     0.277 HD
ATOM     53  H71 UNL     1     -28.266  20.942 -25.389  1.00  0.00     0.277 HD
ENDBRANCH  49  50
BRANCH  49  54
HETATM   54  N8  UNL     1     -25.466  20.114 -26.647  1.00  0.00    -0.045 N 
ATOM     55  H83 UNL     1     -24.619  19.591 -26.423  1.00  0.00     0.277 HD
ATOM     56  H82 UNL     1     -25.826  19.518 -27.392  1.00  0.00     0.277 HD
ATOM     57  H81 UNL     1     -25.247  21.049 -26.990  1.00  0.00     0.277 HD
ENDBRANCH  49  54
ENDBRANCH  46  49
BRANCH  48  58
HETATM   58  O4  UNL     1     -26.700  17.171 -26.158  1.00  0.00    -0.343 OA
ATOM     59  H4  UNL     1     -26.873  17.692 -26.934  1.00  0.00     0.219 HD
ENDBRANCH  48  58
ENDBRANCH   5  42
TORSDOF 17
ENDMDL
MODEL 5
REMARK VINA RESULT: -8.853542330      1.888      2.835
REMARK  17 active torsions:
REMARK  status: ('A' for Active; 'I' for Inactive)
REMARK    1  A    between atoms: C2_2  and  C4_4 
REMARK    2  A    between atoms: C2_2  and  O2_6 
REMARK    3  A    between atoms: O2_6  and  N1_7 
REMARK       I    between atoms: N1_7  and  C5_8 
REMARK    4  A    between atoms: C5_8  and  C6_10 
REMARK    5  A    between atoms: C7_14  and  N4_15 
REMARK    6  A    between atoms: C8_20  and  C9_21 
REMARK    7  A    between atoms: C9_21  and  N7_22 
REMARK    8  A    between atoms: C9_21  and  N8_26 
REMARK    9  A    between atoms: C10_30  and  O4_31 
REMARK   10  A    between atoms: C11_33  and  O5_34 
REMARK   11  A    between atoms: C12_36  and  N9_37 
REMARK       I    between atoms: N9_37  and  C13_39 
REMARK   12  A    between atoms: C13_39  and  C14_41 
REMARK   13  A    between atoms: C14_41  and  O7_42 
REMARK   14  A    between atoms: C14_41  and  C15_44 
REMARK   15  A    between atoms: C17_48  and  N11_49 
REMARK   16  A    between atoms: C18_52  and  O8_53 
REMARK   17  A    between atoms: C19_55  and  O9_56 
ROOT
HETATM    1  C6  UNL     1     -25.677  13.940 -21.992  1.00  0.00     0.132 C 
HETATM    2  N2  UNL     1     -26.562  14.839 -21.627  1.00  0.00    -0.298 N 
ATOM      3  H2  UNL     1     -27.330  14.627 -20.990  1.00  0.00     0.182 HD
HETATM    4  N3  UNL     1     -26.368  16.127 -22.187  1.00  0.00    -0.110 NA
HETATM    5  C7  UNL     1     -26.359  16.058 -23.659  1.00  0.00     0.255 C 
HETATM    6  C11 UNL     1     -25.327  15.078 -24.131  1.00  0.00     0.189 C 
HETATM    7  C12 UNL     1     -24.628  14.476 -22.909  1.00  0.00     0.174 C 
ENDROOT
BRANCH   7   8
HETATM    8  N9  UNL     1     -23.579  13.579 -23.208  1.00  0.00    -0.346 N 
HETATM    9  C13 UNL     1     -22.459  13.350 -22.374  1.00  0.00     0.254 C 
HETATM   10  O6  UNL     1     -22.382  14.039 -21.312  1.00  0.00    -0.270 OA
ATOM     11  H9  UNL     1     -23.632  13.061 -24.085  1.00  0.00     0.163 HD
BRANCH   9  12
HETATM   12  C14 UNL     1     -21.382  12.391 -22.622  1.00  0.00     0.277 C 
BRANCH  12  13
HETATM   13  O7  UNL     1     -21.087  11.797 -21.353  1.00  0.00    -0.378 OA
ATOM     14  H7  UNL     1     -20.155  11.614 -21.362  1.00  0.00     0.211 HD
ENDBRANCH  12  13
BRANCH  12  15
HETATM   15  C15 UNL     1     -21.686  11.240 -23.485  1.00  0.00     0.121 C 
HETATM   16  N10 UNL     1     -22.456  11.449 -24.569  1.00  0.00    -0.351 N 
HETATM   17  C16 UNL     1     -22.556  10.754 -25.735  1.00  0.00     0.121 C 
ATOM     18  H10 UNL     1     -23.066  12.265 -24.506  1.00  0.00     0.166 HD
HETATM   19  C17 UNL     1     -21.828   9.640 -26.120  1.00  0.00     0.079 C 
HETATM   20  C18 UNL     1     -20.761   9.101 -25.431  1.00  0.00     0.144 C 
HETATM   21  C19 UNL     1     -20.526   9.176 -24.082  1.00  0.00     0.177 C 
HETATM   22  N12 UNL     1     -21.163  10.010 -23.187  1.00  0.00    -0.322 N 
ATOM     23  H12 UNL     1     -21.251   9.685 -22.224  1.00  0.00     0.169 HD
BRANCH  19  24
HETATM   24  N11 UNL     1     -22.191   9.073 -27.209  1.00  0.00    -0.396 N 
ATOM     25 2H11 UNL     1     -22.404   8.076 -27.184  1.00  0.00     0.156 HD
ATOM     26 1H11 UNL     1     -22.242   9.670 -28.035  1.00  0.00     0.156 HD
ENDBRANCH  19  24
BRANCH  20  27
HETATM   27  O8  UNL     1     -19.837   8.412 -26.197  1.00  0.00    -0.355 OA
ATOM     28  H8  UNL     1     -19.866   8.583 -27.132  1.00  0.00     0.218 HD
ENDBRANCH  20  27
BRANCH  21  29
HETATM   29  O9  UNL     1     -19.554   8.326 -23.623  1.00  0.00    -0.344 OA
ATOM     30  H9  UNL     1     -19.772   7.404 -23.688  1.00  0.00     0.219 HD
ENDBRANCH  21  29
ENDBRANCH  12  15
ENDBRANCH   9  12
ENDBRANCH   7   8
BRANCH   1  31
HETATM   31  C5  UNL     1     -25.724  12.557 -21.518  1.00  0.00     0.369 C 
HETATM   32  N1  UNL     1     -26.345  11.541 -22.225  1.00  0.00    -0.234 NA
HETATM   33  O3  UNL     1     -25.142  12.371 -20.418  1.00  0.00    -0.247 OA
BRANCH  32  34
HETATM   34  O2  UNL     1     -26.898  10.606 -22.845  1.00  0.00    -0.188 OA
BRANCH  34  35
HETATM   35  C2  UNL     1     -26.392   9.331 -22.738  1.00  0.00     0.148 C 
HETATM   36  C1  UNL     1     -24.904   9.267 -22.969  1.00  0.00     0.057 C 
HETATM   37  C3  UNL     1     -27.048   8.353 -23.701  1.00  0.00     0.057 C 
BRANCH  35  38
HETATM   38  C4  UNL     1     -26.649   8.867 -21.313  1.00  0.00     0.272 C 
HETATM   39  O1  UNL     1     -25.830   8.171 -20.761  1.00  0.00    -0.303 OA
ENDBRANCH  35  38
ENDBRANCH  34  35
ENDBRANCH  32  34
ENDBRANCH   1  31
BRANCH   6  40
HETATM   40  O5  UNL     1     -24.412  15.581 -25.036  1.00  0.00    -0.390 OA
ATOM     41  H5  UNL     1     -24.412  16.527 -25.125  1.00  0.00     0.210 HD
ENDBRANCH   6  40
BRANCH   5  42
HETATM   42  N4  UNL     1     -26.351  17.329 -24.303  1.00  0.00    -0.230 N 
HETATM   43  N5  UNL     1     -26.668  17.518 -25.605  1.00  0.00    -0.236 N 
HETATM   44  N6  UNL     1     -26.569  18.780 -25.944  1.00  0.00    -0.282 N 
ATOM     45  H5  UNL     1     -26.948  16.772 -26.243  1.00  0.00     0.208 HD
HETATM   46  C8  UNL     1     -26.175  19.472 -24.845  1.00  0.00     0.137 A 
ATOM     47  H6  UNL     1     -26.755  19.171 -26.867  1.00  0.00     0.188 HD
HETATM   48  C10 UNL     1     -26.048  18.539 -23.835  1.00  0.00     0.188 A 
BRANCH  46  49
HETATM   49  C9  UNL     1     -25.893  20.949 -24.761  1.00  0.00     0.433 C 
BRANCH  49  50
HETATM   50  N7  UNL     1     -27.087  21.733 -25.054  1.00  0.00    -0.045 N 
ATOM     51  H73 UNL     1     -27.454  22.185 -24.216  1.00  0.00     0.277 HD
ATOM     52  H72 UNL     1     -26.865  22.567 -25.597  1.00  0.00     0.277 HD
ATOM     53  H71 UNL     1     -27.798  21.164 -25.515  1.00  0.00     0.277 HD
ENDBRANCH  49  50
BRANCH  49  54
HETATM   54  N8  UNL     1     -24.785  21.320 -25.594  1.00  0.00    -0.045 N 
ATOM     55  H83 UNL     1     -23.904  20.962 -25.225  1.00  0.00     0.277 HD
ATOM     56  H82 UNL     1     -24.800  20.816 -26.481  1.00  0.00     0.277 HD
ATOM     57  H81 UNL     1     -24.747  22.329 -25.738  1.00  0.00     0.277 HD
ENDBRANCH  49  54
ENDBRANCH  46  49
BRANCH  48  58
HETATM   58  O4  UNL     1     -25.658  18.850 -22.530  1.00  0.00    -0.343 OA
ATOM     59  H4  UNL     1     -24.815  18.662 -22.133  1.00  0.00     0.219 HD
ENDBRANCH  48  58
ENDBRANCH   5  42
TORSDOF 17
ENDMDL
