MODEL 1
REMARK VINA RESULT: -6.966325130      0.000      0.000
REMARK  2 active torsions:
REMARK  status: ('A' for Active; 'I' for Inactive)
REMARK    1  A    between atoms: C9_10  and  C10_11 
REMARK       I    between atoms: C10_11  and  N2_13 
REMARK    2  A    between atoms: N2_13  and  C11_15 
ROOT
HETATM    1  C1  UNL     1      39.065  51.693  12.867  1.00  0.00     0.309 C 
HETATM    2  N1  UNL     1      38.009  50.726  13.057  1.00  0.00     0.085 N 
HETATM    3  C2  UNL     1      38.059  49.641  12.123  1.00  0.00     0.272 C 
HETATM    4  C3  UNL     1      36.674  49.332  11.647  1.00  0.00     0.031 C 
HETATM    5  C4  UNL     1      35.739  49.081  12.824  1.00  0.00     0.013 C 
HETATM    6  C5  UNL     1      35.815  50.234  13.819  1.00  0.00    -0.013 C 
HETATM    7  C6  UNL     1      36.465  49.723  15.059  1.00  0.00     0.011 C 
HETATM    8  C7  UNL     1      36.249  50.584  16.269  1.00  0.00     0.002 C 
HETATM    9  C8  UNL     1      34.739  50.723  16.456  1.00  0.00     0.014 C 
HETATM   10  C9  UNL     1      34.260  51.568  15.271  1.00  0.00     0.078 C 
HETATM   11  C16 UNL     1      34.423  50.745  14.017  1.00  0.00     0.025 C 
HETATM   12  C17 UNL     1      36.722  51.312  13.230  1.00  0.00     0.281 C 
ENDROOT
BRANCH  10  13
HETATM   13  C10 UNL     1      32.809  51.849  15.425  1.00  0.00     0.222 C 
HETATM   14  O1  UNL     1      32.435  52.416  16.487  1.00  0.00    -0.273 OA
HETATM   15  N2  UNL     1      31.871  51.497  14.428  1.00  0.00    -0.356 N 
ATOM     16  H2  UNL     1      32.183  51.037  13.573  1.00  0.00     0.162 HD
BRANCH  15  17
HETATM   17  C11 UNL     1      30.460  51.791  14.622  1.00  0.00     0.088 C 
HETATM   18  C12 UNL     1      29.766  50.521  15.066  1.00  0.00     0.051 C 
HETATM   19  C13 UNL     1      29.192  49.845  13.838  1.00  0.00     0.169 C 
HETATM   20  O2  UNL     1      28.092  50.575  13.393  1.00  0.00    -0.391 OA
HETATM   21  C14 UNL     1      28.354  51.931  13.328  1.00  0.00     0.169 C 
HETATM   22  C15 UNL     1      29.837  52.239  13.319  1.00  0.00     0.051 C 
ENDBRANCH  15  17
ENDBRANCH  10  13
TORSDOF 2
ENDMDL
MODEL 2
REMARK VINA RESULT: -6.956498777      2.387      3.707
REMARK  2 active torsions:
REMARK  status: ('A' for Active; 'I' for Inactive)
REMARK    1  A    between atoms: C9_10  and  C10_11 
REMARK       I    between atoms: C10_11  and  N2_13 
REMARK    2  A    between atoms: N2_13  and  C11_15 
ROOT
HETATM    1  C1  UNL     1      41.154  53.698  11.707  1.00  0.00     0.309 C 
HETATM    2  N1  UNL     1      40.979  52.523  12.530  1.00  0.00     0.085 N 
HETATM    3  C2  UNL     1      41.874  51.457  12.193  1.00  0.00     0.272 C 
HETATM    4  C3  UNL     1      41.130  50.159  12.212  1.00  0.00     0.031 C 
HETATM    5  C4  UNL     1      40.420  49.961  13.546  1.00  0.00     0.013 C 
HETATM    6  C5  UNL     1      39.563  51.178  13.879  1.00  0.00    -0.013 C 
HETATM    7  C6  UNL     1      40.182  51.866  15.046  1.00  0.00     0.011 C 
HETATM    8  C7  UNL     1      39.268  52.819  15.758  1.00  0.00     0.002 C 
HETATM    9  C8  UNL     1      38.033  52.025  16.179  1.00  0.00     0.014 C 
HETATM   10  C9  UNL     1      37.311  51.675  14.874  1.00  0.00     0.078 C 
HETATM   11  C16 UNL     1      38.169  50.690  14.118  1.00  0.00     0.025 C 
HETATM   12  C17 UNL     1      39.617  52.137  12.692  1.00  0.00     0.281 C 
ENDROOT
BRANCH  10  13
HETATM   13  C10 UNL     1      36.032  50.989  15.191  1.00  0.00     0.222 C 
HETATM   14  O1  UNL     1      36.099  49.841  15.707  1.00  0.00    -0.273 OA
HETATM   15  N2  UNL     1      34.779  51.587  14.927  1.00  0.00    -0.356 N 
ATOM     16  H2  UNL     1      34.734  52.516  14.508  1.00  0.00     0.162 HD
BRANCH  15  17
HETATM   17  C11 UNL     1      33.552  50.878  15.254  1.00  0.00     0.088 C 
HETATM   18  C12 UNL     1      32.867  50.490  13.961  1.00  0.00     0.051 C 
HETATM   19  C13 UNL     1      31.853  51.564  13.626  1.00  0.00     0.169 C 
HETATM   20  O2  UNL     1      30.778  51.461  14.506  1.00  0.00    -0.391 OA
HETATM   21  C14 UNL     1      31.186  51.337  15.821  1.00  0.00     0.169 C 
HETATM   22  C15 UNL     1      32.619  51.780  16.031  1.00  0.00     0.051 C 
ENDBRANCH  15  17
ENDBRANCH  10  13
TORSDOF 2
ENDMDL
MODEL 3
REMARK VINA RESULT: -6.898830679      2.633      7.362
REMARK  2 active torsions:
REMARK  status: ('A' for Active; 'I' for Inactive)
REMARK    1  A    between atoms: C9_10  and  C10_11 
REMARK       I    between atoms: C10_11  and  N2_13 
REMARK    2  A    between atoms: N2_13  and  C11_15 
ROOT
HETATM    1  C1  UNL     1      29.366  49.496  16.324  1.00  0.00     0.309 C 
HETATM    2  N1  UNL     1      30.076  50.407  15.456  1.00  0.00     0.085 N 
HETATM    3  C2  UNL     1      29.240  51.007  14.459  1.00  0.00     0.272 C 
HETATM    4  C3  UNL     1      29.966  51.030  13.151  1.00  0.00     0.031 C 
HETATM    5  C4  UNL     1      31.325  51.705  13.295  1.00  0.00     0.013 C 
HETATM    6  C5  UNL     1      32.114  51.073  14.436  1.00  0.00    -0.013 C 
HETATM    7  C6  UNL     1      32.219  52.080  15.530  1.00  0.00     0.011 C 
HETATM    8  C7  UNL     1      33.295  51.789  16.535  1.00  0.00     0.002 C 
HETATM    9  C8  UNL     1      34.609  51.674  15.765  1.00  0.00     0.014 C 
HETATM   10  C9  UNL     1      34.480  50.393  14.934  1.00  0.00     0.078 C 
HETATM   11  C16 UNL     1      33.429  50.629  13.877  1.00  0.00     0.025 C 
HETATM   12  C17 UNL     1      31.312  49.889  14.972  1.00  0.00     0.281 C 
ENDROOT
BRANCH  10  13
HETATM   13  C10 UNL     1      35.761  50.138  14.227  1.00  0.00     0.222 C 
HETATM   14  O1  UNL     1      35.764  49.259  13.323  1.00  0.00    -0.273 OA
HETATM   15  N2  UNL     1      36.943  50.845  14.546  1.00  0.00    -0.356 N 
ATOM     16  H2  UNL     1      36.933  51.553  15.279  1.00  0.00     0.162 HD
BRANCH  15  17
HETATM   17  C11 UNL     1      38.175  50.561  13.827  1.00  0.00     0.088 C 
HETATM   18  C12 UNL     1      39.331  50.678  14.798  1.00  0.00     0.051 C 
HETATM   19  C13 UNL     1      39.894  52.080  14.691  1.00  0.00     0.169 C 
HETATM   20  O2  UNL     1      40.582  52.200  13.486  1.00  0.00    -0.391 OA
HETATM   21  C14 UNL     1      39.858  51.705  12.416  1.00  0.00     0.169 C 
HETATM   22  C15 UNL     1      38.381  51.575  12.723  1.00  0.00     0.051 C 
ENDBRANCH  15  17
ENDBRANCH  10  13
TORSDOF 2
ENDMDL
MODEL 4
REMARK VINA RESULT: -6.628449699      5.073      7.003
REMARK  2 active torsions:
REMARK  status: ('A' for Active; 'I' for Inactive)
REMARK    1  A    between atoms: C9_10  and  C10_11 
REMARK       I    between atoms: C10_11  and  N2_13 
REMARK    2  A    between atoms: N2_13  and  C11_15 
ROOT
HETATM    1  C1  UNL     1      41.804  49.387  11.659  1.00  0.00     0.309 C 
HETATM    2  N1  UNL     1      41.421  50.588  12.366  1.00  0.00     0.085 N 
HETATM    3  C2  UNL     1      42.459  51.573  12.411  1.00  0.00     0.272 C 
HETATM    4  C3  UNL     1      42.513  52.177  13.779  1.00  0.00     0.031 C 
HETATM    5  C4  UNL     1      41.146  52.711  14.190  1.00  0.00     0.013 C 
HETATM    6  C5  UNL     1      40.081  51.632  14.024  1.00  0.00    -0.013 C 
HETATM    7  C6  UNL     1      39.187  52.043  12.904  1.00  0.00     0.011 C 
HETATM    8  C7  UNL     1      37.868  51.329  12.874  1.00  0.00     0.002 C 
HETATM    9  C8  UNL     1      37.199  51.565  14.227  1.00  0.00     0.014 C 
HETATM   10  C9  UNL     1      38.050  50.793  15.240  1.00  0.00     0.078 C 
HETATM   11  C16 UNL     1      39.390  51.481  15.342  1.00  0.00     0.025 C 
HETATM   12  C17 UNL     1      40.776  50.336  13.611  1.00  0.00     0.281 C 
ENDROOT
BRANCH  10  13
HETATM   13  C10 UNL     1      37.412  50.876  16.579  1.00  0.00     0.222 C 
HETATM   14  O1  UNL     1      36.349  50.223  16.760  1.00  0.00    -0.273 OA
HETATM   15  N2  UNL     1      37.963  51.656  17.621  1.00  0.00    -0.356 N 
ATOM     16  H2  UNL     1      38.823  52.182  17.465  1.00  0.00     0.162 HD
BRANCH  15  17
HETATM   17  C11 UNL     1      37.304  51.708  18.916  1.00  0.00     0.088 C 
HETATM   18  C12 UNL     1      36.500  52.988  18.990  1.00  0.00     0.051 C 
HETATM   19  C13 UNL     1      37.351  54.040  19.669  1.00  0.00     0.169 C 
HETATM   20  O2  UNL     1      37.445  53.739  21.026  1.00  0.00    -0.391 OA
HETATM   21  C14 UNL     1      37.752  52.409  21.248  1.00  0.00     0.169 C 
HETATM   22  C15 UNL     1      38.333  51.732  20.024  1.00  0.00     0.051 C 
ENDBRANCH  15  17
ENDBRANCH  10  13
TORSDOF 2
ENDMDL
MODEL 5
REMARK VINA RESULT: -6.575224712      6.112     10.029
REMARK  2 active torsions:
REMARK  status: ('A' for Active; 'I' for Inactive)
REMARK    1  A    between atoms: C9_10  and  C10_11 
REMARK       I    between atoms: C10_11  and  N2_13 
REMARK    2  A    between atoms: N2_13  and  C11_15 
ROOT
HETATM    1  C1  UNL     1      38.308  50.294  12.650  1.00  0.00     0.309 C 
HETATM    2  N1  UNL     1      37.924  50.769  13.961  1.00  0.00     0.085 N 
HETATM    3  C2  UNL     1      36.522  51.035  14.078  1.00  0.00     0.272 C 
HETATM    4  C3  UNL     1      36.321  52.312  14.832  1.00  0.00     0.031 C 
HETATM    5  C4  UNL     1      37.048  52.272  16.171  1.00  0.00     0.013 C 
HETATM    6  C5  UNL     1      38.510  51.888  15.970  1.00  0.00    -0.013 C 
HETATM    7  C6  UNL     1      38.709  50.531  16.554  1.00  0.00     0.011 C 
HETATM    8  C7  UNL     1      40.144  50.177  16.817  1.00  0.00     0.002 C 
HETATM    9  C8  UNL     1      40.712  51.259  17.733  1.00  0.00     0.014 C 
HETATM   10  C9  UNL     1      40.763  52.529  16.878  1.00  0.00     0.078 C 
HETATM   11  C16 UNL     1      39.343  52.960  16.600  1.00  0.00     0.025 C 
HETATM   12  C17 UNL     1      38.776  51.791  14.469  1.00  0.00     0.281 C 
ENDROOT
BRANCH  10  13
HETATM   13  C10 UNL     1      41.406  53.618  17.657  1.00  0.00     0.222 C 
HETATM   14  O1  UNL     1      40.741  54.134  18.596  1.00  0.00    -0.273 OA
HETATM   15  N2  UNL     1      42.713  54.072  17.367  1.00  0.00    -0.356 N 
ATOM     16  H2  UNL     1      43.243  53.649  16.605  1.00  0.00     0.162 HD
BRANCH  15  17
HETATM   17  C11 UNL     1      43.302  55.141  18.156  1.00  0.00     0.088 C 
HETATM   18  C12 UNL     1      42.766  56.461  17.646  1.00  0.00     0.051 C 
HETATM   19  C13 UNL     1      43.752  57.011  16.637  1.00  0.00     0.169 C 
HETATM   20  O2  UNL     1      44.886  57.459  17.311  1.00  0.00    -0.391 OA
HETATM   21  C14 UNL     1      45.344  56.540  18.236  1.00  0.00     0.169 C 
HETATM   22  C15 UNL     1      44.806  55.146  17.988  1.00  0.00     0.051 C 
ENDBRANCH  15  17
ENDBRANCH  10  13
TORSDOF 2
ENDMDL
