MODEL 1
REMARK VINA RESULT: -11.120789924      0.000      0.000
REMARK  8 active torsions:
REMARK  status: ('A' for Active; 'I' for Inactive)
REMARK       I    between atoms: C1_4  and  N3_6 
REMARK    1  A    between atoms: N3_6  and  C2_8 
REMARK    2  A    between atoms: C5_11  and  C6_12 
REMARK    3  A    between atoms: C9_16  and  C10_17 
REMARK    4  A    between atoms: C13_20  and  C14_21 
REMARK    5  A    between atoms: C14_21  and  N5_23 
REMARK    6  A    between atoms: N5_23  and  O1_25 
REMARK    7  A    between atoms: N6_32  and  C20_34 
REMARK    8  A    between atoms: C20_34  and  C21_35 
ROOT
HETATM    1  C6  UNL     1      -7.715 -26.455 -16.857  1.00  0.00     0.045 A 
HETATM    2  C7  UNL     1      -8.239 -25.310 -17.430  1.00  0.00     0.050 A 
HETATM    3  C8  UNL     1      -8.920 -24.370 -16.658  1.00  0.00     0.021 A 
HETATM    4  S1  UNL     1      -9.679 -22.883 -17.010  1.00  0.00    -0.089 SA
HETATM    5  C9  UNL     1     -10.222 -22.474 -15.447  1.00  0.00     0.017 A 
HETATM    6  C17 UNL     1      -9.785 -23.532 -14.689  1.00  0.00     0.036 A 
HETATM    7  C18 UNL     1      -9.111 -24.512 -15.315  1.00  0.00     0.026 A 
HETATM    8  C19 UNL     1      -8.574 -25.679 -14.745  1.00  0.00     0.117 A 
HETATM    9  N6  UNL     1      -8.636 -26.003 -13.538  1.00  0.00    -0.351 N 
ATOM     10  H6  UNL     1      -8.162 -26.897 -13.411  1.00  0.00     0.166 HD
HETATM   11  N8  UNL     1      -7.915 -26.571 -15.548  1.00  0.00    -0.341 N 
ATOM     12  H8  UNL     1      -7.541 -27.406 -15.098  1.00  0.00     0.167 HD
ENDROOT
BRANCH   1  13
HETATM   13  C5  UNL     1      -6.996 -27.455 -17.658  1.00  0.00    -0.009 A 
HETATM   14  C4  UNL     1      -7.676 -28.456 -18.284  1.00  0.00     0.016 A 
HETATM   15  C3  UNL     1      -7.005 -29.407 -19.044  1.00  0.00     0.030 A 
HETATM   16  C2  UNL     1      -5.637 -29.368 -19.189  1.00  0.00     0.034 A 
HETATM   17  C28 UNL     1      -4.956 -28.352 -18.553  1.00  0.00     0.030 A 
HETATM   18  C27 UNL     1      -5.636 -27.405 -17.794  1.00  0.00     0.016 A 
BRANCH  16  19
HETATM   19  N3  UNL     1      -4.962 -30.345 -19.969  1.00  0.00    -0.331 N 
HETATM   20  C1  UNL     1      -4.785 -30.142 -21.342  1.00  0.00     0.186 C 
HETATM   21  N1  UNL     1      -3.634 -29.804 -21.798  1.00  0.00    -0.373 N 
HETATM   22  N2  UNL     1      -5.880 -30.310 -22.227  1.00  0.00    -0.064 NA
ATOM     23  H12 UNL     1      -3.506 -29.656 -22.799  1.00  0.00     0.158 HD
ATOM     24  H11 UNL     1      -2.846 -29.683 -21.162  1.00  0.00     0.158 HD
ATOM     25  H3  UNL     1      -4.606 -31.194 -19.529  1.00  0.00     0.168 HD
ENDBRANCH  16  19
ENDBRANCH   1  13
BRANCH   9  26
HETATM   26  C20 UNL     1      -9.120 -25.577 -12.325  1.00  0.00     0.101 C 
BRANCH  26  27
HETATM   27  C21 UNL     1      -8.388 -24.401 -11.745  1.00  0.00    -0.021 A 
HETATM   28  C22 UNL     1      -7.029 -24.251 -11.847  1.00  0.00     0.014 A 
HETATM   29  C23 UNL     1      -6.381 -23.148 -11.299  1.00  0.00     0.027 A 
HETATM   30  C24 UNL     1      -7.110 -22.187 -10.643  1.00  0.00     0.046 A 
HETATM   31  N7  UNL     1      -6.441 -21.044 -10.075  1.00  0.00    -0.102 NA
HETATM   32  C25 UNL     1      -8.467 -22.325 -10.535  1.00  0.00     0.027 A 
HETATM   33  C26 UNL     1      -9.099 -23.430 -11.085  1.00  0.00     0.014 A 
ENDBRANCH  26  27
ENDBRANCH   9  26
BRANCH   5  34
HETATM   34  C10 UNL     1     -10.977 -21.286 -14.995  1.00  0.00    -0.019 A 
HETATM   35  C11 UNL     1     -11.211 -21.178 -13.665  1.00  0.00     0.014 A 
HETATM   36  C12 UNL     1     -11.919 -20.080 -13.166  1.00  0.00     0.016 A 
HETATM   37  C13 UNL     1     -12.397 -19.089 -13.986  1.00  0.00     0.007 A 
HETATM   38  C15 UNL     1     -12.113 -19.276 -15.350  1.00  0.00     0.016 A 
HETATM   39  C16 UNL     1     -11.426 -20.334 -15.860  1.00  0.00     0.014 A 
BRANCH  37  40
HETATM   40  C14 UNL     1     -13.138 -17.922 -13.558  1.00  0.00     0.146 C 
HETATM   41  N4  UNL     1     -13.757 -17.135 -14.602  1.00  0.00    -0.080 NA
BRANCH  40  42
HETATM   42  N5  UNL     1     -13.305 -17.513 -12.392  1.00  0.00    -0.255 N 
ATOM     43  H5  UNL     1     -12.507 -17.027 -11.981  1.00  0.00     0.195 HD
BRANCH  42  44
HETATM   44  O1  UNL     1     -14.361 -17.620 -11.614  1.00  0.00    -0.288 OA
ATOM     45  H1  UNL     1     -14.522 -17.233 -10.762  1.00  0.00     0.244 HD
ENDBRANCH  42  44
ENDBRANCH  40  42
ENDBRANCH  37  40
ENDBRANCH   5  34
TORSDOF 8
ENDMDL
MODEL 2
REMARK VINA RESULT: -10.908103207      0.339      1.133
REMARK  8 active torsions:
REMARK  status: ('A' for Active; 'I' for Inactive)
REMARK       I    between atoms: C1_4  and  N3_6 
REMARK    1  A    between atoms: N3_6  and  C2_8 
REMARK    2  A    between atoms: C5_11  and  C6_12 
REMARK    3  A    between atoms: C9_16  and  C10_17 
REMARK    4  A    between atoms: C13_20  and  C14_21 
REMARK    5  A    between atoms: C14_21  and  N5_23 
REMARK    6  A    between atoms: N5_23  and  O1_25 
REMARK    7  A    between atoms: N6_32  and  C20_34 
REMARK    8  A    between atoms: C20_34  and  C21_35 
ROOT
HETATM    1  C6  UNL     1      -7.729 -26.494 -16.869  1.00  0.00     0.045 A 
HETATM    2  C7  UNL     1      -8.251 -25.347 -17.436  1.00  0.00     0.050 A 
HETATM    3  C8  UNL     1      -8.922 -24.404 -16.659  1.00  0.00     0.021 A 
HETATM    4  S1  UNL     1      -9.676 -22.913 -17.004  1.00  0.00    -0.089 SA
HETATM    5  C9  UNL     1     -10.206 -22.503 -15.436  1.00  0.00     0.017 A 
HETATM    6  C17 UNL     1      -9.768 -23.564 -14.682  1.00  0.00     0.036 A 
HETATM    7  C18 UNL     1      -9.104 -24.546 -15.314  1.00  0.00     0.026 A 
HETATM    8  C19 UNL     1      -8.567 -25.716 -14.750  1.00  0.00     0.117 A 
HETATM    9  N6  UNL     1      -8.622 -26.041 -13.543  1.00  0.00    -0.351 N 
ATOM     10  H6  UNL     1      -8.151 -26.938 -13.420  1.00  0.00     0.166 HD
HETATM   11  N8  UNL     1      -7.919 -26.611 -15.558  1.00  0.00    -0.341 N 
ATOM     12  H8  UNL     1      -7.545 -27.448 -15.112  1.00  0.00     0.167 HD
ENDROOT
BRANCH   1  13
HETATM   13  C5  UNL     1      -7.020 -27.497 -17.676  1.00  0.00    -0.009 A 
HETATM   14  C4  UNL     1      -5.664 -27.450 -17.800  1.00  0.00     0.016 A 
HETATM   15  C3  UNL     1      -4.983 -28.393 -18.561  1.00  0.00     0.030 A 
HETATM   16  C2  UNL     1      -5.656 -29.402 -19.212  1.00  0.00     0.034 A 
HETATM   17  C28 UNL     1      -7.027 -29.444 -19.082  1.00  0.00     0.030 A 
HETATM   18  C27 UNL     1      -7.699 -28.495 -18.318  1.00  0.00     0.016 A 
BRANCH  16  19
HETATM   19  N3  UNL     1      -4.950 -30.362 -19.987  1.00  0.00    -0.331 N 
HETATM   20  C1  UNL     1      -4.783 -30.162 -21.362  1.00  0.00     0.186 C 
HETATM   21  N1  UNL     1      -3.644 -29.790 -21.823  1.00  0.00    -0.373 N 
HETATM   22  N2  UNL     1      -5.873 -30.372 -22.243  1.00  0.00    -0.064 NA
ATOM     23  H12 UNL     1      -3.523 -29.644 -22.825  1.00  0.00     0.158 HD
ATOM     24  H11 UNL     1      -2.860 -29.638 -21.189  1.00  0.00     0.158 HD
ATOM     25  H3  UNL     1      -4.565 -31.195 -19.542  1.00  0.00     0.168 HD
ENDBRANCH  16  19
ENDBRANCH   1  13
BRANCH   9  26
HETATM   26  C20 UNL     1      -9.094 -25.614 -12.325  1.00  0.00     0.101 C 
BRANCH  26  27
HETATM   27  C21 UNL     1      -8.428 -24.372 -11.804  1.00  0.00    -0.021 A 
HETATM   28  C22 UNL     1      -9.125 -23.354 -11.209  1.00  0.00     0.014 A 
HETATM   29  C23 UNL     1      -8.477 -22.216 -10.736  1.00  0.00     0.027 A 
HETATM   30  C24 UNL     1      -7.115 -22.105 -10.866  1.00  0.00     0.046 A 
HETATM   31  N7  UNL     1      -6.442 -20.928 -10.377  1.00  0.00    -0.102 NA
HETATM   32  C25 UNL     1      -6.409 -23.115 -11.459  1.00  0.00     0.027 A 
HETATM   33  C26 UNL     1      -7.067 -24.243 -11.926  1.00  0.00     0.014 A 
ENDBRANCH  26  27
ENDBRANCH   9  26
BRANCH   5  34
HETATM   34  C10 UNL     1     -10.952 -21.312 -14.977  1.00  0.00    -0.019 A 
HETATM   35  C11 UNL     1     -11.139 -21.183 -13.642  1.00  0.00     0.014 A 
HETATM   36  C12 UNL     1     -11.836 -20.081 -13.136  1.00  0.00     0.016 A 
HETATM   37  C13 UNL     1     -12.348 -19.106 -13.955  1.00  0.00     0.007 A 
HETATM   38  C15 UNL     1     -12.111 -19.314 -15.325  1.00  0.00     0.016 A 
HETATM   39  C16 UNL     1     -11.437 -20.376 -15.841  1.00  0.00     0.014 A 
BRANCH  37  40
HETATM   40  C14 UNL     1     -13.081 -17.936 -13.520  1.00  0.00     0.146 C 
HETATM   41  N4  UNL     1     -13.848 -17.245 -14.534  1.00  0.00    -0.080 NA
BRANCH  40  42
HETATM   42  N5  UNL     1     -13.128 -17.453 -12.372  1.00  0.00    -0.255 N 
ATOM     43  H5  UNL     1     -13.270 -18.127 -11.620  1.00  0.00     0.195 HD
BRANCH  42  44
HETATM   44  O1  UNL     1     -13.020 -16.198 -11.990  1.00  0.00    -0.288 OA
ATOM     45  H1  UNL     1     -12.240 -15.668 -11.875  1.00  0.00     0.244 HD
ENDBRANCH  42  44
ENDBRANCH  40  42
ENDBRANCH  37  40
ENDBRANCH   5  34
TORSDOF 8
ENDMDL
MODEL 3
REMARK VINA RESULT: -10.837280402      0.638      1.199
REMARK  8 active torsions:
REMARK  status: ('A' for Active; 'I' for Inactive)
REMARK       I    between atoms: C1_4  and  N3_6 
REMARK    1  A    between atoms: N3_6  and  C2_8 
REMARK    2  A    between atoms: C5_11  and  C6_12 
REMARK    3  A    between atoms: C9_16  and  C10_17 
REMARK    4  A    between atoms: C13_20  and  C14_21 
REMARK    5  A    between atoms: C14_21  and  N5_23 
REMARK    6  A    between atoms: N5_23  and  O1_25 
REMARK    7  A    between atoms: N6_32  and  C20_34 
REMARK    8  A    between atoms: C20_34  and  C21_35 
ROOT
HETATM    1  C6  UNL     1      -7.733 -26.378 -16.724  1.00  0.00     0.045 A 
HETATM    2  C7  UNL     1      -8.290 -25.250 -17.298  1.00  0.00     0.050 A 
HETATM    3  C8  UNL     1      -8.976 -24.316 -16.523  1.00  0.00     0.021 A 
HETATM    4  S1  UNL     1      -9.771 -22.849 -16.875  1.00  0.00    -0.089 SA
HETATM    5  C9  UNL     1     -10.294 -22.435 -15.306  1.00  0.00     0.017 A 
HETATM    6  C17 UNL     1      -9.821 -23.476 -14.546  1.00  0.00     0.036 A 
HETATM    7  C18 UNL     1      -9.140 -24.448 -15.175  1.00  0.00     0.026 A 
HETATM    8  C19 UNL     1      -8.568 -25.599 -14.605  1.00  0.00     0.117 A 
HETATM    9  N6  UNL     1      -8.602 -25.912 -13.393  1.00  0.00    -0.351 N 
ATOM     10  H6  UNL     1      -8.107 -26.795 -13.266  1.00  0.00     0.166 HD
HETATM   11  N8  UNL     1      -7.906 -26.485 -15.411  1.00  0.00    -0.341 N 
ATOM     12  H8  UNL     1      -7.507 -27.309 -14.960  1.00  0.00     0.167 HD
ENDROOT
BRANCH   1  13
HETATM   13  C5  UNL     1      -7.009 -27.372 -17.529  1.00  0.00    -0.009 A 
HETATM   14  C4  UNL     1      -5.653 -27.307 -17.647  1.00  0.00     0.016 A 
HETATM   15  C3  UNL     1      -4.957 -28.241 -18.406  1.00  0.00     0.030 A 
HETATM   16  C2  UNL     1      -5.614 -29.259 -19.059  1.00  0.00     0.034 A 
HETATM   17  C28 UNL     1      -6.985 -29.319 -18.935  1.00  0.00     0.030 A 
HETATM   18  C27 UNL     1      -7.672 -28.379 -18.173  1.00  0.00     0.016 A 
BRANCH  16  19
HETATM   19  N3  UNL     1      -4.893 -30.210 -19.832  1.00  0.00    -0.331 N 
HETATM   20  C1  UNL     1      -5.355 -31.527 -19.926  1.00  0.00     0.186 C 
HETATM   21  N1  UNL     1      -5.926 -31.931 -21.002  1.00  0.00    -0.373 N 
HETATM   22  N2  UNL     1      -5.191 -32.413 -18.832  1.00  0.00    -0.064 NA
ATOM     23  H12 UNL     1      -6.263 -32.891 -21.071  1.00  0.00     0.158 HD
ATOM     24  H11 UNL     1      -6.044 -31.294 -21.790  1.00  0.00     0.158 HD
ATOM     25  H3  UNL     1      -4.039 -29.932 -20.317  1.00  0.00     0.168 HD
ENDBRANCH  16  19
ENDBRANCH   1  13
BRANCH   9  26
HETATM   26  C20 UNL     1      -9.071 -25.483 -12.175  1.00  0.00     0.101 C 
BRANCH  26  27
HETATM   27  C21 UNL     1      -8.367 -24.273 -11.632  1.00  0.00    -0.021 A 
HETATM   28  C22 UNL     1      -7.011 -24.100 -11.729  1.00  0.00     0.014 A 
HETATM   29  C23 UNL     1      -6.390 -22.966 -11.214  1.00  0.00     0.027 A 
HETATM   30  C24 UNL     1      -7.142 -21.998 -10.597  1.00  0.00     0.046 A 
HETATM   31  N7  UNL     1      -6.501 -20.823 -10.063  1.00  0.00    -0.102 NA
HETATM   32  C25 UNL     1      -8.497 -22.160 -10.494  1.00  0.00     0.027 A 
HETATM   33  C26 UNL     1      -9.103 -23.295 -11.010  1.00  0.00     0.014 A 
ENDBRANCH  26  27
ENDBRANCH   9  26
BRANCH   5  34
HETATM   34  C10 UNL     1     -11.064 -21.257 -14.852  1.00  0.00    -0.019 A 
HETATM   35  C11 UNL     1     -11.260 -21.131 -13.517  1.00  0.00     0.014 A 
HETATM   36  C12 UNL     1     -11.980 -20.042 -13.016  1.00  0.00     0.016 A 
HETATM   37  C13 UNL     1     -12.507 -19.078 -13.838  1.00  0.00     0.007 A 
HETATM   38  C15 UNL     1     -12.259 -19.283 -15.207  1.00  0.00     0.016 A 
HETATM   39  C16 UNL     1     -11.562 -20.332 -15.719  1.00  0.00     0.014 A 
BRANCH  37  40
HETATM   40  C14 UNL     1     -13.263 -17.921 -13.407  1.00  0.00     0.146 C 
HETATM   41  N4  UNL     1     -13.622 -16.969 -14.435  1.00  0.00    -0.080 NA
BRANCH  40  42
HETATM   42  N5  UNL     1     -13.642 -17.649 -12.251  1.00  0.00    -0.255 N 
ATOM     43  H5  UNL     1     -12.927 -17.256 -11.638  1.00  0.00     0.195 HD
BRANCH  42  44
HETATM   44  O1  UNL     1     -14.831 -17.795 -11.707  1.00  0.00    -0.288 OA
ATOM     45  H1  UNL     1     -15.683 -17.839 -12.125  1.00  0.00     0.244 HD
ENDBRANCH  42  44
ENDBRANCH  40  42
ENDBRANCH  37  40
ENDBRANCH   5  34
TORSDOF 8
ENDMDL
MODEL 4
REMARK VINA RESULT: -10.778986940      0.581      1.144
REMARK  8 active torsions:
REMARK  status: ('A' for Active; 'I' for Inactive)
REMARK       I    between atoms: C1_4  and  N3_6 
REMARK    1  A    between atoms: N3_6  and  C2_8 
REMARK    2  A    between atoms: C5_11  and  C6_12 
REMARK    3  A    between atoms: C9_16  and  C10_17 
REMARK    4  A    between atoms: C13_20  and  C14_21 
REMARK    5  A    between atoms: C14_21  and  N5_23 
REMARK    6  A    between atoms: N5_23  and  O1_25 
REMARK    7  A    between atoms: N6_32  and  C20_34 
REMARK    8  A    between atoms: C20_34  and  C21_35 
ROOT
HETATM    1  C6  UNL     1      -7.700 -26.409 -16.738  1.00  0.00     0.045 A 
HETATM    2  C7  UNL     1      -8.254 -25.279 -17.310  1.00  0.00     0.050 A 
HETATM    3  C8  UNL     1      -8.941 -24.346 -16.534  1.00  0.00     0.021 A 
HETATM    4  S1  UNL     1      -9.734 -22.877 -16.884  1.00  0.00    -0.089 SA
HETATM    5  C9  UNL     1     -10.261 -22.467 -15.315  1.00  0.00     0.017 A 
HETATM    6  C17 UNL     1      -9.791 -23.511 -14.557  1.00  0.00     0.036 A 
HETATM    7  C18 UNL     1      -9.109 -24.482 -15.187  1.00  0.00     0.026 A 
HETATM    8  C19 UNL     1      -8.541 -25.636 -14.618  1.00  0.00     0.117 A 
HETATM    9  N6  UNL     1      -8.578 -25.953 -13.408  1.00  0.00    -0.351 N 
ATOM     10  H6  UNL     1      -8.085 -26.836 -13.282  1.00  0.00     0.166 HD
HETATM   11  N8  UNL     1      -7.877 -26.520 -15.425  1.00  0.00    -0.341 N 
ATOM     12  H8  UNL     1      -7.480 -27.345 -14.976  1.00  0.00     0.167 HD
ENDROOT
BRANCH   1  13
HETATM   13  C5  UNL     1      -6.974 -27.400 -17.543  1.00  0.00    -0.009 A 
HETATM   14  C4  UNL     1      -7.649 -28.390 -18.193  1.00  0.00     0.016 A 
HETATM   15  C3  UNL     1      -6.973 -29.333 -18.958  1.00  0.00     0.030 A 
HETATM   16  C2  UNL     1      -5.602 -29.297 -19.083  1.00  0.00     0.034 A 
HETATM   17  C28 UNL     1      -4.926 -28.294 -18.424  1.00  0.00     0.030 A 
HETATM   18  C27 UNL     1      -5.612 -27.355 -17.661  1.00  0.00     0.016 A 
BRANCH  16  19
HETATM   19  N3  UNL     1      -4.921 -30.266 -19.869  1.00  0.00    -0.331 N 
HETATM   20  C1  UNL     1      -5.552 -31.473 -20.190  1.00  0.00     0.186 C 
HETATM   21  N1  UNL     1      -6.007 -31.663 -21.374  1.00  0.00    -0.373 N 
HETATM   22  N2  UNL     1      -5.684 -32.484 -19.205  1.00  0.00    -0.064 NA
ATOM     23  H12 UNL     1      -6.467 -32.543 -21.609  1.00  0.00     0.158 HD
ATOM     24  H11 UNL     1      -5.912 -30.937 -22.083  1.00  0.00     0.158 HD
ATOM     25  H3  UNL     1      -3.973 -30.082 -20.198  1.00  0.00     0.168 HD
ENDBRANCH  16  19
ENDBRANCH   1  13
BRANCH   9  26
HETATM   26  C20 UNL     1      -9.051 -25.527 -12.190  1.00  0.00     0.101 C 
BRANCH  26  27
HETATM   27  C21 UNL     1      -8.351 -24.317 -11.643  1.00  0.00    -0.021 A 
HETATM   28  C22 UNL     1      -6.999 -24.128 -11.761  1.00  0.00     0.014 A 
HETATM   29  C23 UNL     1      -6.380 -22.994 -11.242  1.00  0.00     0.027 A 
HETATM   30  C24 UNL     1      -7.133 -22.042 -10.599  1.00  0.00     0.046 A 
HETATM   31  N7  UNL     1      -6.495 -20.867 -10.061  1.00  0.00    -0.102 NA
HETATM   32  C25 UNL     1      -8.483 -22.220 -10.475  1.00  0.00     0.027 A 
HETATM   33  C26 UNL     1      -9.087 -23.355 -10.996  1.00  0.00     0.014 A 
ENDBRANCH  26  27
ENDBRANCH   9  26
BRANCH   5  34
HETATM   34  C10 UNL     1     -11.031 -21.291 -14.859  1.00  0.00    -0.019 A 
HETATM   35  C11 UNL     1     -11.460 -20.432 -15.815  1.00  0.00     0.014 A 
HETATM   36  C12 UNL     1     -12.195 -19.297 -15.457  1.00  0.00     0.016 A 
HETATM   37  C13 UNL     1     -12.504 -19.013 -14.150  1.00  0.00     0.007 A 
HETATM   38  C15 UNL     1     -12.023 -19.953 -13.222  1.00  0.00     0.016 A 
HETATM   39  C16 UNL     1     -11.307 -21.063 -13.544  1.00  0.00     0.014 A 
BRANCH  37  40
HETATM   40  C14 UNL     1     -13.256 -17.865 -13.690  1.00  0.00     0.146 C 
HETATM   41  N4  UNL     1     -13.792 -16.996 -14.714  1.00  0.00    -0.080 NA
BRANCH  40  42
HETATM   42  N5  UNL     1     -13.497 -17.537 -12.511  1.00  0.00    -0.255 N 
ATOM     43  H5  UNL     1     -12.752 -17.022 -12.041  1.00  0.00     0.195 HD
BRANCH  42  44
HETATM   44  O1  UNL     1     -14.572 -17.761 -11.786  1.00  0.00    -0.288 OA
ATOM     45  H1  UNL     1     -14.653 -17.859 -10.845  1.00  0.00     0.244 HD
ENDBRANCH  42  44
ENDBRANCH  40  42
ENDBRANCH  37  40
ENDBRANCH   5  34
TORSDOF 8
ENDMDL
MODEL 5
REMARK VINA RESULT: -10.721706884      4.306     11.970
REMARK  8 active torsions:
REMARK  status: ('A' for Active; 'I' for Inactive)
REMARK       I    between atoms: C1_4  and  N3_6 
REMARK    1  A    between atoms: N3_6  and  C2_8 
REMARK    2  A    between atoms: C5_11  and  C6_12 
REMARK    3  A    between atoms: C9_16  and  C10_17 
REMARK    4  A    between atoms: C13_20  and  C14_21 
REMARK    5  A    between atoms: C14_21  and  N5_23 
REMARK    6  A    between atoms: N5_23  and  O1_25 
REMARK    7  A    between atoms: N6_32  and  C20_34 
REMARK    8  A    between atoms: C20_34  and  C21_35 
ROOT
HETATM    1  C6  UNL     1     -11.655 -18.686 -11.641  1.00  0.00     0.045 A 
HETATM    2  C7  UNL     1     -10.825 -19.631 -11.066  1.00  0.00     0.050 A 
HETATM    3  C8  UNL     1     -10.493 -20.801 -11.746  1.00  0.00     0.021 A 
HETATM    4  S1  UNL     1      -9.524 -22.152 -11.364  1.00  0.00    -0.089 SA
HETATM    5  C9  UNL     1      -9.724 -23.050 -12.800  1.00  0.00     0.017 A 
HETATM    6  C17 UNL     1     -10.556 -22.249 -13.543  1.00  0.00     0.036 A 
HETATM    7  C18 UNL     1     -10.953 -21.087 -12.999  1.00  0.00     0.026 A 
HETATM    8  C19 UNL     1     -11.795 -20.118 -13.571  1.00  0.00     0.117 A 
HETATM    9  N6  UNL     1     -12.323 -20.181 -14.704  1.00  0.00    -0.351 N 
ATOM     10  H6  UNL     1     -12.881 -19.341 -14.856  1.00  0.00     0.166 HD
HETATM   11  N8  UNL     1     -12.091 -18.987 -12.860  1.00  0.00    -0.341 N 
ATOM     12  H8  UNL     1     -12.707 -18.308 -13.308  1.00  0.00     0.167 HD
ENDROOT
BRANCH   1  13
HETATM   13  C5  UNL     1     -12.015 -17.448 -10.935  1.00  0.00    -0.009 A 
HETATM   14  C4  UNL     1     -12.422 -17.489  -9.635  1.00  0.00     0.016 A 
HETATM   15  C3  UNL     1     -12.765 -16.325  -8.957  1.00  0.00     0.030 A 
HETATM   16  C2  UNL     1     -12.704 -15.097  -9.576  1.00  0.00     0.034 A 
HETATM   17  C28 UNL     1     -12.291 -15.063 -10.890  1.00  0.00     0.030 A 
HETATM   18  C27 UNL     1     -11.950 -16.234 -11.560  1.00  0.00     0.016 A 
BRANCH  16  19
HETATM   19  N3  UNL     1     -13.056 -13.912  -8.873  1.00  0.00    -0.331 N 
HETATM   20  C1  UNL     1     -14.055 -13.073  -9.378  1.00  0.00     0.186 C 
HETATM   21  N1  UNL     1     -15.218 -13.062  -8.835  1.00  0.00    -0.373 N 
HETATM   22  N2  UNL     1     -13.779 -12.235 -10.487  1.00  0.00    -0.064 NA
ATOM     23  H12 UNL     1     -15.947 -12.450  -9.203  1.00  0.00     0.158 HD
ATOM     24  H11 UNL     1     -15.417 -13.664  -8.037  1.00  0.00     0.158 HD
ATOM     25  H3  UNL     1     -12.581 -13.675  -8.002  1.00  0.00     0.168 HD
ENDBRANCH  16  19
ENDBRANCH   1  13
BRANCH   9  26
HETATM   26  C20 UNL     1     -12.415 -20.986 -15.814  1.00  0.00     0.101 C 
BRANCH  26  27
HETATM   27  C21 UNL     1     -11.103 -21.258 -16.491  1.00  0.00    -0.021 A 
HETATM   28  C22 UNL     1     -10.152 -20.289 -16.679  1.00  0.00     0.014 A 
HETATM   29  C23 UNL     1      -8.945 -20.576 -17.311  1.00  0.00     0.027 A 
HETATM   30  C24 UNL     1      -8.695 -21.850 -17.756  1.00  0.00     0.046 A 
HETATM   31  N7  UNL     1      -7.446 -22.149 -18.410  1.00  0.00    -0.102 NA
HETATM   32  C25 UNL     1      -9.637 -22.825 -17.574  1.00  0.00     0.027 A 
HETATM   33  C26 UNL     1     -10.835 -22.526 -16.944  1.00  0.00     0.014 A 
ENDBRANCH  26  27
ENDBRANCH   9  26
BRANCH   5  34
HETATM   34  C10 UNL     1      -9.156 -24.363 -13.174  1.00  0.00    -0.019 A 
HETATM   35  C11 UNL     1      -9.344 -24.769 -14.453  1.00  0.00     0.014 A 
HETATM   36  C12 UNL     1      -8.835 -26.000 -14.877  1.00  0.00     0.016 A 
HETATM   37  C13 UNL     1      -8.140 -26.830 -14.034  1.00  0.00     0.007 A 
HETATM   38  C15 UNL     1      -7.989 -26.335 -12.726  1.00  0.00     0.016 A 
HETATM   39  C16 UNL     1      -8.474 -25.142 -12.289  1.00  0.00     0.014 A 
BRANCH  37  40
HETATM   40  C14 UNL     1      -7.580 -28.117 -14.386  1.00  0.00     0.146 C 
HETATM   41  N4  UNL     1      -7.654 -28.490 -15.782  1.00  0.00    -0.080 NA
BRANCH  40  42
HETATM   42  N5  UNL     1      -7.039 -28.944 -13.626  1.00  0.00    -0.255 N 
ATOM     43  H5  UNL     1      -6.443 -28.546 -12.900  1.00  0.00     0.195 HD
BRANCH  42  44
HETATM   44  O1  UNL     1      -7.126 -30.258 -13.624  1.00  0.00    -0.288 OA
ATOM     45  H1  UNL     1      -6.582 -30.896 -13.179  1.00  0.00     0.244 HD
ENDBRANCH  42  44
ENDBRANCH  40  42
ENDBRANCH  37  40
ENDBRANCH   5  34
TORSDOF 8
ENDMDL
