MODEL 1
REMARK VINA RESULT: -5.383323283      0.000      0.000
REMARK  2 active torsions:
REMARK  status: ('A' for Active; 'I' for Inactive)
REMARK    1  A    between atoms: C2_2  and  O1_6 
REMARK    2  A    between atoms: O1_6  and  N2_7 
ROOT
HETATM    1  N2  UNL     1       3.993  10.349  11.996  1.00  0.00    -0.255 N 
ATOM      2  H2  UNL     1       3.353  11.141  12.065  1.00  0.00     0.195 HD
HETATM    3  C3  UNL     1       3.547   9.140  12.001  1.00  0.00     0.097 C 
HETATM    4  C4  UNL     1       2.099   8.818  12.104  1.00  0.00     0.338 C 
HETATM    5  N3  UNL     1       1.837   7.661  12.906  1.00  0.00     0.091 N 
HETATM    6  C5  UNL     1       0.527   7.631  13.476  1.00  0.00     0.310 C 
HETATM    7  C6  UNL     1       2.878   7.320  13.820  1.00  0.00     0.283 C 
HETATM    8  C7  UNL     1       3.920   6.503  13.047  1.00  0.00     0.111 C 
HETATM    9  S1  UNL     1       4.640   7.719  11.880  1.00  0.00    -0.111 SA
ENDROOT
BRANCH   1  10
HETATM   10  O1  UNL     1       5.338  10.550  11.898  1.00  0.00    -0.225 OA
BRANCH  10  11
HETATM   11  C2  UNL     1       5.867  11.819  12.030  1.00  0.00     0.136 C 
HETATM   12  C1  UNL     1       5.017  12.878  12.612  1.00  0.00     0.099 C 
HETATM   13  N1  UNL     1       7.078  12.013  11.636  1.00  0.00    -0.382 N 
ATOM     14  H12 UNL     1       7.468  12.950  11.734  1.00  0.00     0.158 HD
ATOM     15  H11 UNL     1       7.665  11.282  11.234  1.00  0.00     0.158 HD
ENDBRANCH  10  11
ENDBRANCH   1  10
TORSDOF 2
ENDMDL
MODEL 2
REMARK VINA RESULT: -5.150267694      2.853      5.477
REMARK  2 active torsions:
REMARK  status: ('A' for Active; 'I' for Inactive)
REMARK    1  A    between atoms: C2_2  and  O1_6 
REMARK    2  A    between atoms: O1_6  and  N2_7 
ROOT
HETATM    1  N2  UNL     1       0.584   9.235  12.351  1.00  0.00    -0.255 N 
ATOM      2  H2  UNL     1       0.318  10.083  11.851  1.00  0.00     0.195 HD
HETATM    3  C3  UNL     1       1.787   9.078  12.786  1.00  0.00     0.097 C 
HETATM    4  C4  UNL     1       2.851  10.099  12.594  1.00  0.00     0.338 C 
HETATM    5  N3  UNL     1       4.137   9.527  12.326  1.00  0.00     0.091 N 
HETATM    6  C5  UNL     1       5.024  10.394  11.617  1.00  0.00     0.310 C 
HETATM    7  C6  UNL     1       4.103   8.191  11.825  1.00  0.00     0.283 C 
HETATM    8  C7  UNL     1       3.976   7.251  13.030  1.00  0.00     0.111 C 
HETATM    9  S1  UNL     1       2.296   7.600  13.673  1.00  0.00    -0.111 SA
ENDROOT
BRANCH   1  10
HETATM   10  O1  UNL     1      -0.326   8.244  12.573  1.00  0.00    -0.225 OA
BRANCH  10  11
HETATM   11  C2  UNL     1      -1.612   8.352  12.078  1.00  0.00     0.136 C 
HETATM   12  C1  UNL     1      -2.290   7.125  11.609  1.00  0.00     0.099 C 
HETATM   13  N1  UNL     1      -2.153   9.520  12.053  1.00  0.00    -0.382 N 
ATOM     14  H12 UNL     1      -3.102   9.600  11.688  1.00  0.00     0.158 HD
ATOM     15  H11 UNL     1      -1.685  10.367  12.377  1.00  0.00     0.158 HD
ENDBRANCH  10  11
ENDBRANCH   1  10
TORSDOF 2
ENDMDL
MODEL 3
REMARK VINA RESULT: -5.008783602      2.297      2.468
REMARK  2 active torsions:
REMARK  status: ('A' for Active; 'I' for Inactive)
REMARK    1  A    between atoms: C2_2  and  O1_6 
REMARK    2  A    between atoms: O1_6  and  N2_7 
ROOT
HETATM    1  N2  UNL     1       2.077  10.936  13.005  1.00  0.00    -0.255 N 
ATOM      2  H2  UNL     1       1.113  11.117  13.285  1.00  0.00     0.195 HD
HETATM    3  C3  UNL     1       2.429   9.774  12.572  1.00  0.00     0.097 C 
HETATM    4  C4  UNL     1       1.476   8.639  12.451  1.00  0.00     0.338 C 
HETATM    5  N3  UNL     1       2.059   7.377  12.799  1.00  0.00     0.091 N 
HETATM    6  C5  UNL     1       1.112   6.395  13.225  1.00  0.00     0.310 C 
HETATM    7  C6  UNL     1       3.221   7.463  13.623  1.00  0.00     0.283 C 
HETATM    8  C7  UNL     1       4.419   7.722  12.703  1.00  0.00     0.111 C 
HETATM    9  S1  UNL     1       4.116   9.414  12.067  1.00  0.00    -0.111 SA
ENDROOT
BRANCH   1  10
HETATM   10  O1  UNL     1       3.020  11.918  13.083  1.00  0.00    -0.225 OA
BRANCH  10  11
HETATM   11  C2  UNL     1       2.892  12.939  14.005  1.00  0.00     0.136 C 
HETATM   12  C1  UNL     1       1.603  13.090  14.712  1.00  0.00     0.099 C 
HETATM   13  N1  UNL     1       3.907  13.708  14.200  1.00  0.00    -0.382 N 
ATOM     14  H12 UNL     1       3.812  14.461  14.880  1.00  0.00     0.158 HD
ATOM     15  H11 UNL     1       4.796  13.603  13.711  1.00  0.00     0.158 HD
ENDBRANCH  10  11
ENDBRANCH   1  10
TORSDOF 2
ENDMDL
MODEL 4
REMARK VINA RESULT: -5.007785705      3.610      6.201
REMARK  2 active torsions:
REMARK  status: ('A' for Active; 'I' for Inactive)
REMARK    1  A    between atoms: C2_2  and  O1_6 
REMARK    2  A    between atoms: O1_6  and  N2_7 
ROOT
HETATM    1  N2  UNL     1      -0.878   8.772  12.220  1.00  0.00    -0.255 N 
ATOM      2  H2  UNL     1      -1.221   9.620  11.768  1.00  0.00     0.195 HD
HETATM    3  C3  UNL     1       0.301   8.734  12.738  1.00  0.00     0.097 C 
HETATM    4  C4  UNL     1       1.228   9.896  12.715  1.00  0.00     0.338 C 
HETATM    5  N3  UNL     1       2.595   9.520  12.509  1.00  0.00     0.091 N 
HETATM    6  C5  UNL     1       3.405  10.554  11.945  1.00  0.00     0.310 C 
HETATM    7  C6  UNL     1       2.778   8.241  11.904  1.00  0.00     0.283 C 
HETATM    8  C7  UNL     1       2.694   7.190  13.017  1.00  0.00     0.111 C 
HETATM    9  S1  UNL     1       0.941   7.261  13.546  1.00  0.00    -0.111 SA
ENDROOT
BRANCH   1  10
HETATM   10  O1  UNL     1      -1.660   7.657  12.289  1.00  0.00    -0.225 OA
BRANCH  10  11
HETATM   11  C2  UNL     1      -2.465   7.301  11.224  1.00  0.00     0.136 C 
HETATM   12  C1  UNL     1      -2.919   5.897  11.124  1.00  0.00     0.099 C 
HETATM   13  N1  UNL     1      -2.780   8.214  10.373  1.00  0.00    -0.382 N 
ATOM     14  H12 UNL     1      -3.374   7.952   9.587  1.00  0.00     0.158 HD
ATOM     15  H11 UNL     1      -2.466   9.183  10.442  1.00  0.00     0.158 HD
ENDBRANCH  10  11
ENDBRANCH   1  10
TORSDOF 2
ENDMDL
MODEL 5
REMARK VINA RESULT: -4.990758612      2.484      2.694
REMARK  2 active torsions:
REMARK  status: ('A' for Active; 'I' for Inactive)
REMARK    1  A    between atoms: C2_2  and  O1_6 
REMARK    2  A    between atoms: O1_6  and  N2_7 
ROOT
HETATM    1  N2  UNL     1       1.908  10.801  13.018  1.00  0.00    -0.255 N 
ATOM      2  H2  UNL     1       0.932  10.943  13.277  1.00  0.00     0.195 HD
HETATM    3  C3  UNL     1       2.317   9.654  12.595  1.00  0.00     0.097 C 
HETATM    4  C4  UNL     1       1.413   8.481  12.455  1.00  0.00     0.338 C 
HETATM    5  N3  UNL     1       2.039   7.244  12.818  1.00  0.00     0.091 N 
HETATM    6  C5  UNL     1       1.124   6.225  13.225  1.00  0.00     0.310 C 
HETATM    7  C6  UNL     1       3.178   7.378  13.667  1.00  0.00     0.283 C 
HETATM    8  C7  UNL     1       4.385   7.685  12.772  1.00  0.00     0.111 C 
HETATM    9  S1  UNL     1       4.027   9.362  12.127  1.00  0.00    -0.111 SA
ENDROOT
BRANCH   1  10
HETATM   10  O1  UNL     1       2.809  11.821  13.114  1.00  0.00    -0.225 OA
BRANCH  10  11
HETATM   11  C2  UNL     1       2.648  12.809  14.066  1.00  0.00     0.136 C 
HETATM   12  C1  UNL     1       3.775  13.731  14.320  1.00  0.00     0.099 C 
HETATM   13  N1  UNL     1       1.520  12.874  14.684  1.00  0.00    -0.382 N 
ATOM     14  H12 UNL     1       1.401  13.603  15.387  1.00  0.00     0.158 HD
ATOM     15  H11 UNL     1       0.742  12.237  14.508  1.00  0.00     0.158 HD
ENDBRANCH  10  11
ENDBRANCH   1  10
TORSDOF 2
ENDMDL
