MODEL 1
REMARK VINA RESULT: -6.551570997      0.000      0.000
REMARK  8 active torsions:
REMARK  status: ('A' for Active; 'I' for Inactive)
REMARK    1  A    between atoms: C3_3  and  C4_4 
REMARK    2  A    between atoms: C4_4  and  S1_5 
REMARK    3  A    between atoms: S1_5  and  C6_7 
REMARK    4  A    between atoms: C6_7  and  C7_8 
REMARK    5  A    between atoms: C7_8  and  C9_10 
REMARK    6  A    between atoms: C7_8  and  N2_13 
REMARK    7  A    between atoms: C15_19  and  O2_20 
REMARK    8  A    between atoms: C16_22  and  C17_23 
ROOT
HETATM    1  C1  UNL     1      11.316  -9.207  24.270  1.00  0.00     0.012 C 
HETATM    2  C2  UNL     1      11.700  -9.599  23.197  1.00  0.00    -0.117 C 
HETATM    3  C3  UNL     1      12.177 -10.079  21.887  1.00  0.00     0.102 C 
ENDROOT
BRANCH   3   4
HETATM    4  C4  UNL     1      12.513 -11.517  22.050  1.00  0.00     0.075 C 
BRANCH   4   5
HETATM    5  S1  UNL     1      13.793 -11.984  20.831  1.00  0.00    -0.220 SA
HETATM    6  C5  UNL     1      13.759 -10.827  19.548  1.00  0.00     0.078 C 
BRANCH   5   7
HETATM    7  C6  UNL     1      15.284 -12.302  21.670  1.00  0.00     0.111 C 
BRANCH   7   8
HETATM    8  C7  UNL     1      16.502 -12.671  20.881  1.00  0.00     0.211 C 
HETATM    9  C8  UNL     1      15.939 -13.664  19.829  1.00  0.00     0.058 C 
BRANCH   8  10
HETATM   10  C9  UNL     1      16.977 -11.523  20.123  1.00  0.00     0.268 C 
HETATM   11  N1  UNL     1      17.120 -11.543  18.675  1.00  0.00    -0.060 NA
HETATM   12  O1  UNL     1      17.329 -10.391  20.570  1.00  0.00    -0.274 OA
ENDBRANCH   8  10
BRANCH   8  13
HETATM   13  N2  UNL     1      17.541 -13.250  21.690  1.00  0.00    -0.042 N 
HETATM   14  C10 UNL     1      17.006 -13.166  23.074  1.00  0.00     0.240 C 
HETATM   15  C11 UNL     1      17.734 -13.999  24.102  1.00  0.00     0.035 C 
HETATM   16  C12 UNL     1      19.108 -14.265  23.474  1.00  0.00     0.020 C 
HETATM   17  C13 UNL     1      18.754 -15.258  22.433  1.00  0.00     0.035 C 
HETATM   18  C15 UNL     1      19.513 -12.897  22.985  1.00  0.00     0.154 C 
HETATM   19  C14 UNL     1      17.686 -14.678  21.526  1.00  0.00     0.240 C 
HETATM   20  C16 UNL     1      18.845 -12.631  21.641  1.00  0.00     0.230 C 
BRANCH  18  21
HETATM   21  O2  UNL     1      20.874 -12.712  22.995  1.00  0.00    -0.393 OA
ATOM     22  H2  UNL     1      21.123 -11.837  23.272  1.00  0.00     0.210 HD
ENDBRANCH  18  21
BRANCH  20  23
HETATM   23  C17 UNL     1      19.724 -12.981  20.500  1.00  0.00     0.121 C 
HETATM   24 BR1  UNL     1      20.554 -11.444  19.619  1.00  0.00    -0.094 Br
ENDBRANCH  20  23
ENDBRANCH   8  13
ENDBRANCH   7   8
ENDBRANCH   5   7
ENDBRANCH   4   5
ENDBRANCH   3   4
TORSDOF 8
ENDMDL
MODEL 2
REMARK VINA RESULT: -6.549938531      3.223      6.017
REMARK  8 active torsions:
REMARK  status: ('A' for Active; 'I' for Inactive)
REMARK    1  A    between atoms: C3_3  and  C4_4 
REMARK    2  A    between atoms: C4_4  and  S1_5 
REMARK    3  A    between atoms: S1_5  and  C6_7 
REMARK    4  A    between atoms: C6_7  and  C7_8 
REMARK    5  A    between atoms: C7_8  and  C9_10 
REMARK    6  A    between atoms: C7_8  and  N2_13 
REMARK    7  A    between atoms: C15_19  and  O2_20 
REMARK    8  A    between atoms: C16_22  and  C17_23 
ROOT
HETATM    1  C1  UNL     1      19.988 -12.623  25.332  1.00  0.00     0.012 C 
HETATM    2  C2  UNL     1      20.402 -12.748  24.206  1.00  0.00    -0.117 C 
HETATM    3  C3  UNL     1      20.907 -12.907  22.831  1.00  0.00     0.102 C 
ENDROOT
BRANCH   3   4
HETATM    4  C4  UNL     1      19.789 -13.454  22.019  1.00  0.00     0.075 C 
BRANCH   4   5
HETATM    5  S1  UNL     1      19.121 -12.138  20.940  1.00  0.00    -0.220 SA
HETATM    6  C5  UNL     1      20.429 -11.483  20.021  1.00  0.00     0.078 C 
BRANCH   5   7
HETATM    7  C6  UNL     1      17.706 -12.739  20.124  1.00  0.00     0.111 C 
BRANCH   7   8
HETATM    8  C7  UNL     1      16.361 -12.201  20.501  1.00  0.00     0.211 C 
HETATM    9  C8  UNL     1      16.580 -11.723  21.961  1.00  0.00     0.058 C 
BRANCH   8  10
HETATM   10  C9  UNL     1      16.068 -10.998  19.735  1.00  0.00     0.268 C 
HETATM   11  N1  UNL     1      16.568 -10.785  18.384  1.00  0.00    -0.060 NA
HETATM   12  O1  UNL     1      15.380  -9.997  20.096  1.00  0.00    -0.274 OA
ENDBRANCH   8  10
BRANCH   8  13
HETATM   13  N2  UNL     1      15.313 -13.178  20.388  1.00  0.00    -0.042 N 
HETATM   14  C10 UNL     1      15.579 -13.840  19.085  1.00  0.00     0.240 C 
HETATM   15  C11 UNL     1      14.838 -15.136  18.853  1.00  0.00     0.035 C 
HETATM   16  C12 UNL     1      13.658 -15.082  19.831  1.00  0.00     0.020 C 
HETATM   17  C13 UNL     1      14.350 -15.322  21.119  1.00  0.00     0.035 C 
HETATM   18  C15 UNL     1      13.117 -13.691  19.610  1.00  0.00     0.154 C 
HETATM   19  C14 UNL     1      15.443 -14.288  21.305  1.00  0.00     0.240 C 
HETATM   20  C16 UNL     1      13.950 -12.700  20.413  1.00  0.00     0.230 C 
BRANCH  18  21
HETATM   21  O2  UNL     1      11.762 -13.610  19.828  1.00  0.00    -0.393 OA
ATOM     22  H2  UNL     1      11.543 -13.048  20.562  1.00  0.00     0.210 HD
ENDBRANCH  18  21
BRANCH  20  23
HETATM   23  C17 UNL     1      13.353 -12.410  21.738  1.00  0.00     0.121 C 
HETATM   24 BR1  UNL     1      12.413 -10.697  21.843  1.00  0.00    -0.094 Br
ENDBRANCH  20  23
ENDBRANCH   8  13
ENDBRANCH   7   8
ENDBRANCH   5   7
ENDBRANCH   4   5
ENDBRANCH   3   4
TORSDOF 8
ENDMDL
MODEL 3
REMARK VINA RESULT: -6.281090148      1.335      2.247
REMARK  8 active torsions:
REMARK  status: ('A' for Active; 'I' for Inactive)
REMARK    1  A    between atoms: C3_3  and  C4_4 
REMARK    2  A    between atoms: C4_4  and  S1_5 
REMARK    3  A    between atoms: S1_5  and  C6_7 
REMARK    4  A    between atoms: C6_7  and  C7_8 
REMARK    5  A    between atoms: C7_8  and  C9_10 
REMARK    6  A    between atoms: C7_8  and  N2_13 
REMARK    7  A    between atoms: C15_19  and  O2_20 
REMARK    8  A    between atoms: C16_22  and  C17_23 
ROOT
HETATM    1  C1  UNL     1      13.315 -16.007  21.547  1.00  0.00     0.012 C 
HETATM    2  C2  UNL     1      12.919 -14.977  21.060  1.00  0.00    -0.117 C 
HETATM    3  C3  UNL     1      12.430 -13.719  20.468  1.00  0.00     0.102 C 
ENDROOT
BRANCH   3   4
HETATM    4  C4  UNL     1      12.578 -12.667  21.508  1.00  0.00     0.075 C 
BRANCH   4   5
HETATM    5  S1  UNL     1      14.045 -11.643  21.133  1.00  0.00    -0.220 SA
HETATM    6  C5  UNL     1      13.667 -10.002  21.521  1.00  0.00     0.078 C 
BRANCH   5   7
HETATM    7  C6  UNL     1      15.452 -12.394  21.829  1.00  0.00     0.111 C 
BRANCH   7   8
HETATM    8  C7  UNL     1      16.667 -12.601  20.979  1.00  0.00     0.211 C 
HETATM    9  C8  UNL     1      16.129 -13.489  19.825  1.00  0.00     0.058 C 
BRANCH   8  10
HETATM   10  C9  UNL     1      17.064 -11.346  20.356  1.00  0.00     0.268 C 
HETATM   11  N1  UNL     1      17.011 -11.132  18.918  1.00  0.00    -0.060 NA
HETATM   12  O1  UNL     1      17.499 -10.302  20.926  1.00  0.00    -0.274 OA
ENDBRANCH   8  10
BRANCH   8  13
HETATM   13  N2  UNL     1      17.754 -13.216  21.692  1.00  0.00    -0.042 N 
HETATM   14  C10 UNL     1      17.341 -13.131  23.117  1.00  0.00     0.240 C 
HETATM   15  C11 UNL     1      18.130 -13.994  24.072  1.00  0.00     0.035 C 
HETATM   16  C12 UNL     1      19.438 -14.291  23.329  1.00  0.00     0.020 C 
HETATM   17  C13 UNL     1      18.969 -15.263  22.313  1.00  0.00     0.035 C 
HETATM   18  C15 UNL     1      19.837 -12.929  22.818  1.00  0.00     0.154 C 
HETATM   19  C14 UNL     1      17.845 -14.646  21.504  1.00  0.00     0.240 C 
HETATM   20  C16 UNL     1      19.066 -12.632  21.537  1.00  0.00     0.230 C 
BRANCH  18  21
HETATM   21  O2  UNL     1      21.199 -12.781  22.713  1.00  0.00    -0.393 OA
ATOM     22  H2  UNL     1      21.466 -11.870  22.661  1.00  0.00     0.210 HD
ENDBRANCH  18  21
BRANCH  20  23
HETATM   23  C17 UNL     1      19.835 -12.994  20.323  1.00  0.00     0.121 C 
HETATM   24 BR1  UNL     1      20.535 -11.463  19.325  1.00  0.00    -0.094 Br
ENDBRANCH  20  23
ENDBRANCH   8  13
ENDBRANCH   7   8
ENDBRANCH   5   7
ENDBRANCH   4   5
ENDBRANCH   3   4
TORSDOF 8
ENDMDL
MODEL 4
REMARK VINA RESULT: -6.219100244      2.831      5.746
REMARK  8 active torsions:
REMARK  status: ('A' for Active; 'I' for Inactive)
REMARK    1  A    between atoms: C3_3  and  C4_4 
REMARK    2  A    between atoms: C4_4  and  S1_5 
REMARK    3  A    between atoms: S1_5  and  C6_7 
REMARK    4  A    between atoms: C6_7  and  C7_8 
REMARK    5  A    between atoms: C7_8  and  C9_10 
REMARK    6  A    between atoms: C7_8  and  N2_13 
REMARK    7  A    between atoms: C15_19  and  O2_20 
REMARK    8  A    between atoms: C16_22  and  C17_23 
ROOT
HETATM    1  C1  UNL     1      20.724 -11.895  26.591  1.00  0.00     0.012 C 
HETATM    2  C2  UNL     1      20.427 -12.280  25.488  1.00  0.00    -0.117 C 
HETATM    3  C3  UNL     1      20.070 -12.751  24.138  1.00  0.00     0.102 C 
ENDROOT
BRANCH   3   4
HETATM    4  C4  UNL     1      20.228 -14.228  24.139  1.00  0.00     0.075 C 
BRANCH   4   5
HETATM    5  S1  UNL     1      18.589 -15.016  23.954  1.00  0.00    -0.220 SA
HETATM    6  C5  UNL     1      18.112 -15.631  25.497  1.00  0.00     0.078 C 
BRANCH   5   7
HETATM    7  C6  UNL     1      17.535 -13.933  23.092  1.00  0.00     0.111 C 
BRANCH   7   8
HETATM    8  C7  UNL     1      17.206 -14.218  21.659  1.00  0.00     0.211 C 
HETATM    9  C8  UNL     1      18.591 -14.575  21.056  1.00  0.00     0.058 C 
BRANCH   8  10
HETATM   10  C9  UNL     1      16.409 -15.432  21.559  1.00  0.00     0.268 C 
HETATM   11  N1  UNL     1      16.693 -16.479  20.589  1.00  0.00    -0.060 NA
HETATM   12  O1  UNL     1      15.397 -15.754  22.249  1.00  0.00    -0.274 OA
ENDBRANCH   8  10
BRANCH   8  13
HETATM   13  N2  UNL     1      16.581 -13.107  20.994  1.00  0.00    -0.042 N 
HETATM   14  C10 UNL     1      15.432 -13.719  20.279  1.00  0.00     0.240 C 
HETATM   15  C11 UNL     1      14.397 -12.747  19.764  1.00  0.00     0.035 C 
HETATM   16  C12 UNL     1      15.132 -11.403  19.703  1.00  0.00     0.020 C 
HETATM   17  C13 UNL     1      15.218 -11.064  21.143  1.00  0.00     0.035 C 
HETATM   18  C15 UNL     1      16.428 -11.771  19.023  1.00  0.00     0.154 C 
HETATM   19  C14 UNL     1      15.909 -12.190  21.886  1.00  0.00     0.240 C 
HETATM   20  C16 UNL     1      17.383 -12.354  20.057  1.00  0.00     0.230 C 
BRANCH  18  21
HETATM   21  O2  UNL     1      16.948 -10.739  18.280  1.00  0.00    -0.393 OA
ATOM     22  H2  UNL     1      17.222 -11.015  17.413  1.00  0.00     0.210 HD
ENDBRANCH  18  21
BRANCH  20  23
HETATM   23  C17 UNL     1      18.301 -11.332  20.612  1.00  0.00     0.121 C 
HETATM   24 BR1  UNL     1      20.144 -11.467  19.970  1.00  0.00    -0.094 Br
ENDBRANCH  20  23
ENDBRANCH   8  13
ENDBRANCH   7   8
ENDBRANCH   5   7
ENDBRANCH   4   5
ENDBRANCH   3   4
TORSDOF 8
ENDMDL
MODEL 5
REMARK VINA RESULT: -6.190483528      3.445      6.270
REMARK  8 active torsions:
REMARK  status: ('A' for Active; 'I' for Inactive)
REMARK    1  A    between atoms: C3_3  and  C4_4 
REMARK    2  A    between atoms: C4_4  and  S1_5 
REMARK    3  A    between atoms: S1_5  and  C6_7 
REMARK    4  A    between atoms: C6_7  and  C7_8 
REMARK    5  A    between atoms: C7_8  and  C9_10 
REMARK    6  A    between atoms: C7_8  and  N2_13 
REMARK    7  A    between atoms: C15_19  and  O2_20 
REMARK    8  A    between atoms: C16_22  and  C17_23 
ROOT
HETATM    1  C1  UNL     1      20.370 -11.639  19.724  1.00  0.00     0.012 C 
HETATM    2  C2  UNL     1      20.261 -12.246  20.760  1.00  0.00    -0.117 C 
HETATM    3  C3  UNL     1      20.129 -12.982  22.030  1.00  0.00     0.102 C 
ENDROOT
BRANCH   3   4
HETATM    4  C4  UNL     1      18.944 -12.426  22.732  1.00  0.00     0.075 C 
BRANCH   4   5
HETATM    5  S1  UNL     1      17.790 -13.782  23.146  1.00  0.00    -0.220 SA
HETATM    6  C5  UNL     1      17.851 -14.035  24.854  1.00  0.00     0.078 C 
BRANCH   5   7
HETATM    7  C6  UNL     1      16.262 -13.482  22.369  1.00  0.00     0.111 C 
BRANCH   7   8
HETATM    8  C7  UNL     1      15.972 -14.131  21.052  1.00  0.00     0.211 C 
HETATM    9  C8  UNL     1      17.323 -14.809  20.699  1.00  0.00     0.058 C 
BRANCH   8  10
HETATM   10  C9  UNL     1      15.021 -15.220  21.226  1.00  0.00     0.268 C 
HETATM   11  N1  UNL     1      15.171 -16.507  20.564  1.00  0.00    -0.060 NA
HETATM   12  O1  UNL     1      13.969 -15.224  21.932  1.00  0.00    -0.274 OA
ENDBRANCH   8  10
BRANCH   8  13
HETATM   13  N2  UNL     1      15.541 -13.196  20.047  1.00  0.00    -0.042 N 
HETATM   14  C10 UNL     1      16.782 -12.464  19.685  1.00  0.00     0.240 C 
HETATM   15  C11 UNL     1      16.706 -11.648  18.416  1.00  0.00     0.035 C 
HETATM   16  C12 UNL     1      15.205 -11.435  18.188  1.00  0.00     0.020 C 
HETATM   17  C13 UNL     1      14.795 -12.787  17.739  1.00  0.00     0.035 C 
HETATM   18  C15 UNL     1      14.726 -11.009  19.554  1.00  0.00     0.154 C 
HETATM   19  C14 UNL     1      15.191 -13.808  18.786  1.00  0.00     0.240 C 
HETATM   20  C16 UNL     1      14.515 -12.248  20.416  1.00  0.00     0.230 C 
BRANCH  18  21
HETATM   21  O2  UNL     1      13.645 -10.162  19.496  1.00  0.00    -0.393 OA
ATOM     22  H2  UNL     1      13.732  -9.418  20.080  1.00  0.00     0.210 HD
ENDBRANCH  18  21
BRANCH  20  23
HETATM   23  C17 UNL     1      13.110 -12.719  20.388  1.00  0.00     0.121 C 
HETATM   24 BR1  UNL     1      12.047 -12.180  21.940  1.00  0.00    -0.094 Br
ENDBRANCH  20  23
ENDBRANCH   8  13
ENDBRANCH   7   8
ENDBRANCH   5   7
ENDBRANCH   4   5
ENDBRANCH   3   4
TORSDOF 8
ENDMDL
