MODEL 1
REMARK VINA RESULT: -7.371963678      0.000      0.000
REMARK  4 active torsions:
REMARK  status: ('A' for Active; 'I' for Inactive)
REMARK    1  A    between atoms: C2_2  and  C3_3 
REMARK    2  A    between atoms: C3_3  and  N1_4 
REMARK    3  A    between atoms: C7_8  and  C8_9 
REMARK    4  A    between atoms: N3_13  and  C10_15 
ROOT
HETATM    1  C8  UNL     1      16.972   1.377  14.566  1.00  0.00     0.106 A 
HETATM    2  N2  UNL     1      17.798   2.142  13.864  1.00  0.00    -0.329 N 
ATOM      3  H2  UNL     1      18.092   3.032  14.268  1.00  0.00     0.168 HD
HETATM    4  C9  UNL     1      18.283   1.796  12.610  1.00  0.00     0.126 A 
HETATM    5  N3  UNL     1      19.057   2.618  12.064  1.00  0.00    -0.368 N 
ATOM      6  H3  UNL     1      19.225   3.446  12.635  1.00  0.00     0.161 HD
HETATM    7  C14 UNL     1      17.885   0.614  12.082  1.00  0.00     0.093 A 
HETATM    8 CL1  UNL     1      18.370  -0.020  10.520  1.00  0.00    -0.079 Cl
HETATM    9  C15 UNL     1      17.015  -0.196  12.819  1.00  0.00     0.117 A 
HETATM   10  N5  UNL     1      16.599   0.219  14.021  1.00  0.00    -0.352 N 
ATOM     11  H5  UNL     1      15.964  -0.382  14.548  1.00  0.00     0.166 HD
ENDROOT
BRANCH   5  12
HETATM   12  C10 UNL     1      19.728   2.648  10.872  1.00  0.00     0.110 C 
HETATM   13  C11 UNL     1      21.163   3.264  11.027  1.00  0.00     0.054 C 
HETATM   14  C12 UNL     1      21.473   3.417   9.535  1.00  0.00     0.234 C 
HETATM   15  N4  UNL     1      20.207   3.645   8.869  1.00  0.00    -0.073 N 
HETATM   16  C13 UNL     1      19.202   3.718   9.900  1.00  0.00     0.257 C 
ATOM     17  H42 UNL     1      20.215   4.460   8.257  1.00  0.00     0.277 HD
ATOM     18  H41 UNL     1      19.998   2.949   8.153  1.00  0.00     0.277 HD
ENDBRANCH   5  12
BRANCH   1  19
HETATM   19  C7  UNL     1      16.524   1.854  15.903  1.00  0.00     0.156 C 
HETATM   20  N1  UNL     1      15.280   2.520  15.922  1.00  0.00    -0.362 N 
HETATM   21  C4  UNL     1      14.273   1.788  16.575  1.00  0.00     0.064 C 
HETATM   22  C5  UNL     1      14.958   0.642  17.292  1.00  0.00     0.047 C 
HETATM   23  C6  UNL     1      16.364   0.661  16.797  1.00  0.00     0.038 C 
BRANCH  20  24
HETATM   24  C3  UNL     1      14.944   3.371  14.857  1.00  0.00     0.063 C 
BRANCH  24  25
HETATM   25  C2  UNL     1      15.157   4.838  15.044  1.00  0.00     0.040 C 
HETATM   26  C1  UNL     1      16.536   5.321  14.693  1.00  0.00     0.010 C 
ENDBRANCH  24  25
ENDBRANCH  20  24
ENDBRANCH   1  19
TORSDOF 4
ENDMDL
MODEL 2
REMARK VINA RESULT: -6.346112514      2.446      6.023
REMARK  4 active torsions:
REMARK  status: ('A' for Active; 'I' for Inactive)
REMARK    1  A    between atoms: C2_2  and  C3_3 
REMARK    2  A    between atoms: C3_3  and  N1_4 
REMARK    3  A    between atoms: C7_8  and  C8_9 
REMARK    4  A    between atoms: N3_13  and  C10_15 
ROOT
HETATM    1  C8  UNL     1      18.697   3.848  12.325  1.00  0.00     0.106 A 
HETATM    2  N2  UNL     1      17.946   3.675  13.404  1.00  0.00    -0.329 N 
ATOM      3  H2  UNL     1      17.821   4.465  14.037  1.00  0.00     0.168 HD
HETATM    4  C9  UNL     1      17.321   2.475  13.718  1.00  0.00     0.126 A 
HETATM    5  N3  UNL     1      16.640   2.459  14.771  1.00  0.00    -0.368 N 
ATOM      6  H3  UNL     1      16.643   3.354  15.261  1.00  0.00     0.161 HD
HETATM    7  C14 UNL     1      17.494   1.432  12.873  1.00  0.00     0.093 A 
HETATM    8 CL1  UNL     1      16.802  -0.168  13.072  1.00  0.00    -0.079 Cl
HETATM    9  C15 UNL     1      18.286   1.610  11.733  1.00  0.00     0.117 A 
HETATM   10  N5  UNL     1      18.849   2.802  11.511  1.00  0.00    -0.352 N 
ATOM     11  H5  UNL     1      19.425   2.918  10.676  1.00  0.00     0.166 HD
ENDROOT
BRANCH   5  12
HETATM   12  C10 UNL     1      15.894   1.505  15.408  1.00  0.00     0.110 C 
HETATM   13  C11 UNL     1      14.740   2.143  16.262  1.00  0.00     0.054 C 
HETATM   14  C12 UNL     1      14.343   0.879  17.029  1.00  0.00     0.234 C 
HETATM   15  N4  UNL     1      15.543   0.079  17.163  1.00  0.00    -0.073 N 
HETATM   16  C13 UNL     1      16.621   0.849  16.594  1.00  0.00     0.257 C 
ATOM     17  H42 UNL     1      15.723  -0.219  18.121  1.00  0.00     0.277 HD
ATOM     18  H41 UNL     1      15.453  -0.851  16.754  1.00  0.00     0.277 HD
ENDBRANCH   5  12
BRANCH   1  19
HETATM   19  C7  UNL     1      19.313   5.183  12.094  1.00  0.00     0.156 C 
HETATM   20  N1  UNL     1      18.403   6.246  11.913  1.00  0.00    -0.362 N 
HETATM   21  C4  UNL     1      18.405   7.161  12.980  1.00  0.00     0.064 C 
HETATM   22  C5  UNL     1      19.610   6.832  13.839  1.00  0.00     0.047 C 
HETATM   23  C6  UNL     1      20.126   5.540  13.303  1.00  0.00     0.038 C 
BRANCH  20  24
HETATM   24  C3  UNL     1      17.220   6.018  11.192  1.00  0.00     0.063 C 
BRANCH  24  25
HETATM   25  C2  UNL     1      15.925   6.361  11.852  1.00  0.00     0.040 C 
HETATM   26  C1  UNL     1      15.087   7.362  11.106  1.00  0.00     0.010 C 
ENDBRANCH  24  25
ENDBRANCH  20  24
ENDBRANCH   1  19
TORSDOF 4
ENDMDL
MODEL 3
REMARK VINA RESULT: -6.266701112      1.702      6.469
REMARK  4 active torsions:
REMARK  status: ('A' for Active; 'I' for Inactive)
REMARK    1  A    between atoms: C2_2  and  C3_3 
REMARK    2  A    between atoms: C3_3  and  N1_4 
REMARK    3  A    between atoms: C7_8  and  C8_9 
REMARK    4  A    between atoms: N3_13  and  C10_15 
ROOT
HETATM    1  C8  UNL     1      19.658   2.506  10.999  1.00  0.00     0.106 A 
HETATM    2  N2  UNL     1      18.978   2.671  12.126  1.00  0.00    -0.329 N 
ATOM      3  H2  UNL     1      19.098   3.545  12.638  1.00  0.00     0.168 HD
HETATM    4  C9  UNL     1      18.113   1.717  12.645  1.00  0.00     0.126 A 
HETATM    5  N3  UNL     1      17.536   2.012  13.720  1.00  0.00    -0.368 N 
ATOM      6  H3  UNL     1      17.794   2.935  14.069  1.00  0.00     0.161 HD
HETATM    7  C14 UNL     1      17.961   0.560  11.959  1.00  0.00     0.093 A 
HETATM    8 CL1  UNL     1      16.926  -0.776  12.428  1.00  0.00    -0.079 Cl
HETATM    9  C15 UNL     1      18.676   0.382  10.769  1.00  0.00     0.117 A 
HETATM   10  N5  UNL     1      19.488   1.357  10.345  1.00  0.00    -0.352 N 
ATOM     11  H5  UNL     1      20.004   1.213   9.476  1.00  0.00     0.166 HD
ENDROOT
BRANCH   5  12
HETATM   12  C10 UNL     1      16.638   1.367  14.526  1.00  0.00     0.110 C 
HETATM   13  C11 UNL     1      15.751   2.380  15.334  1.00  0.00     0.054 C 
HETATM   14  C12 UNL     1      15.126   1.367  16.298  1.00  0.00     0.234 C 
HETATM   15  N4  UNL     1      16.104   0.316  16.487  1.00  0.00    -0.073 N 
HETATM   16  C13 UNL     1      17.284   0.709  15.758  1.00  0.00     0.257 C 
ATOM     17  H42 UNL     1      16.288   0.109  17.468  1.00  0.00     0.277 HD
ATOM     18  H41 UNL     1      15.758  -0.607  16.224  1.00  0.00     0.277 HD
ENDBRANCH   5  12
BRANCH   1  19
HETATM   19  C7  UNL     1      20.554   3.603  10.542  1.00  0.00     0.156 C 
HETATM   20  N1  UNL     1      19.901   4.739  10.017  1.00  0.00    -0.362 N 
HETATM   21  C4  UNL     1      20.021   5.873  10.838  1.00  0.00     0.064 C 
HETATM   22  C5  UNL     1      21.068   5.549  11.885  1.00  0.00     0.047 C 
HETATM   23  C6  UNL     1      21.338   4.091  11.724  1.00  0.00     0.038 C 
BRANCH  20  24
HETATM   24  C3  UNL     1      18.749   4.563   9.233  1.00  0.00     0.063 C 
BRANCH  24  25
HETATM   25  C2  UNL     1      18.769   5.095   7.837  1.00  0.00     0.040 C 
HETATM   26  C1  UNL     1      17.417   5.209   7.190  1.00  0.00     0.010 C 
ENDBRANCH  24  25
ENDBRANCH  20  24
ENDBRANCH   1  19
TORSDOF 4
ENDMDL
MODEL 4
REMARK VINA RESULT: -6.207210677      2.813      6.592
REMARK  4 active torsions:
REMARK  status: ('A' for Active; 'I' for Inactive)
REMARK    1  A    between atoms: C2_2  and  C3_3 
REMARK    2  A    between atoms: C3_3  and  N1_4 
REMARK    3  A    between atoms: C7_8  and  C8_9 
REMARK    4  A    between atoms: N3_13  and  C10_15 
ROOT
HETATM    1  C8  UNL     1      17.037   5.071  12.549  1.00  0.00     0.106 A 
HETATM    2  N2  UNL     1      16.413   4.605  13.623  1.00  0.00    -0.329 N 
ATOM      3  H2  UNL     1      15.978   5.275  14.257  1.00  0.00     0.168 HD
HETATM    4  C9  UNL     1      16.321   3.254  13.929  1.00  0.00     0.126 A 
HETATM    5  N3  UNL     1      15.698   2.960  14.978  1.00  0.00    -0.368 N 
ATOM      6  H3  UNL     1      15.340   3.778  15.470  1.00  0.00     0.161 HD
HETATM    7  C14 UNL     1      16.903   2.373  13.082  1.00  0.00     0.093 A 
HETATM    8 CL1  UNL     1      16.910   0.628  13.272  1.00  0.00    -0.079 Cl
HETATM    9  C15 UNL     1      17.561   2.859  11.948  1.00  0.00     0.117 A 
HETATM   10  N5  UNL     1      17.600   4.179  11.733  1.00  0.00    -0.352 N 
ATOM     11  H5  UNL     1      18.084   4.521  10.903  1.00  0.00     0.166 HD
ENDROOT
BRANCH   5  12
HETATM   12  C10 UNL     1      15.394   1.783  15.606  1.00  0.00     0.110 C 
HETATM   13  C11 UNL     1      14.190   1.949  16.601  1.00  0.00     0.054 C 
HETATM   14  C12 UNL     1      14.332   0.598  17.307  1.00  0.00     0.234 C 
HETATM   15  N4  UNL     1      15.740   0.259  17.278  1.00  0.00    -0.073 N 
HETATM   16  C13 UNL     1      16.424   1.376  16.675  1.00  0.00     0.257 C 
ATOM     17  H42 UNL     1      16.112   0.006  18.193  1.00  0.00     0.277 HD
ATOM     18  H41 UNL     1      15.931  -0.628  16.812  1.00  0.00     0.277 HD
ENDBRANCH   5  12
BRANCH   1  19
HETATM   19  C7  UNL     1      17.066   6.543  12.326  1.00  0.00     0.156 C 
HETATM   20  N1  UNL     1      18.276   7.183  12.666  1.00  0.00    -0.362 N 
HETATM   21  C4  UNL     1      18.980   7.663  11.548  1.00  0.00     0.064 C 
HETATM   22  C5  UNL     1      18.038   7.572  10.364  1.00  0.00     0.047 C 
HETATM   23  C6  UNL     1      16.865   6.798  10.862  1.00  0.00     0.038 C 
BRANCH  20  24
HETATM   24  C3  UNL     1      18.981   6.753  13.802  1.00  0.00     0.063 C 
BRANCH  24  25
HETATM   25  C2  UNL     1      18.784   7.513  15.073  1.00  0.00     0.040 C 
HETATM   26  C1  UNL     1      19.835   8.550  15.353  1.00  0.00     0.010 C 
ENDBRANCH  24  25
ENDBRANCH  20  24
ENDBRANCH   1  19
TORSDOF 4
ENDMDL
MODEL 5
REMARK VINA RESULT: -6.091049093      3.550      5.056
REMARK  4 active torsions:
REMARK  status: ('A' for Active; 'I' for Inactive)
REMARK    1  A    between atoms: C2_2  and  C3_3 
REMARK    2  A    between atoms: C3_3  and  N1_4 
REMARK    3  A    between atoms: C7_8  and  C8_9 
REMARK    4  A    between atoms: N3_13  and  C10_15 
ROOT
HETATM    1  C8  UNL     1      17.914   3.369  13.855  1.00  0.00     0.106 A 
HETATM    2  N2  UNL     1      18.088   4.602  14.311  1.00  0.00    -0.329 N 
ATOM      3  H2  UNL     1      17.449   4.946  15.028  1.00  0.00     0.168 HD
HETATM    4  C9  UNL     1      19.095   5.449  13.866  1.00  0.00     0.126 A 
HETATM    5  N3  UNL     1      19.140   6.587  14.389  1.00  0.00    -0.368 N 
ATOM      6  H3  UNL     1      18.409   6.734  15.086  1.00  0.00     0.161 HD
HETATM    7  C14 UNL     1      19.938   4.982  12.914  1.00  0.00     0.093 A 
HETATM    8 CL1  UNL     1      21.274   5.875  12.209  1.00  0.00    -0.079 Cl
HETATM    9  C15 UNL     1      19.759   3.682  12.430  1.00  0.00     0.117 A 
HETATM   10  N5  UNL     1      18.760   2.938  12.918  1.00  0.00    -0.352 N 
ATOM     11  H5  UNL     1      18.640   1.991  12.556  1.00  0.00     0.166 HD
ENDROOT
BRANCH   5  12
HETATM   12  C10 UNL     1      19.952   7.677  14.232  1.00  0.00     0.110 C 
HETATM   13  C11 UNL     1      19.947   8.595  15.505  1.00  0.00     0.054 C 
HETATM   14  C12 UNL     1      20.669   9.795  14.884  1.00  0.00     0.234 C 
HETATM   15  N4  UNL     1      20.324   9.805  13.477  1.00  0.00    -0.073 N 
HETATM   16  C13 UNL     1      19.379   8.735  13.273  1.00  0.00     0.257 C 
ATOM     17  H42 UNL     1      19.983  10.709  13.153  1.00  0.00     0.277 HD
ATOM     18  H41 UNL     1      21.136   9.746  12.864  1.00  0.00     0.277 HD
ENDBRANCH   5  12
BRANCH   1  19
HETATM   19  C7  UNL     1      16.800   2.555  14.413  1.00  0.00     0.156 C 
HETATM   20  N1  UNL     1      16.481   1.387  13.688  1.00  0.00    -0.362 N 
HETATM   21  C4  UNL     1      16.812   0.205  14.372  1.00  0.00     0.064 C 
HETATM   22  C5  UNL     1      17.144   0.600  15.797  1.00  0.00     0.047 C 
HETATM   23  C6  UNL     1      17.200   2.091  15.782  1.00  0.00     0.038 C 
BRANCH  20  24
HETATM   24  C3  UNL     1      16.533   1.419  12.285  1.00  0.00     0.063 C 
BRANCH  24  25
HETATM   25  C2  UNL     1      16.746   0.127  11.566  1.00  0.00     0.040 C 
HETATM   26  C1  UNL     1      18.064   0.015  10.853  1.00  0.00     0.010 C 
ENDBRANCH  24  25
ENDBRANCH  20  24
ENDBRANCH   1  19
TORSDOF 4
ENDMDL
