MODEL 1
REMARK VINA RESULT: -7.606169640      0.000      0.000
REMARK  3 active torsions:
REMARK  status: ('A' for Active; 'I' for Inactive)
REMARK    1  A    between atoms: S1_2  and  C2_3 
REMARK    2  A    between atoms: C2_3  and  C3_4 
REMARK    3  A    between atoms: C3_4  and  C4_5 
ROOT
HETATM    1  C4  UNL     1       6.213  -3.116  17.110  1.00  0.00     0.031 C 
HETATM    2  C5  UNL     1       7.308  -3.703  16.246  1.00  0.00     0.010 C 
HETATM    3  C6  UNL     1       7.453  -5.139  16.452  1.00  0.00     0.001 C 
HETATM    4  C7  UNL     1       8.750  -5.778  16.690  1.00  0.00     0.004 C 
HETATM    5  C8  UNL     1       9.949  -4.979  17.019  1.00  0.00     0.027 C 
HETATM    6  C9  UNL     1      10.639  -5.361  18.287  1.00  0.00    -0.031 C 
HETATM    7  C10 UNL     1      10.165  -5.298  19.504  1.00  0.00    -0.031 C 
HETATM    8  C11 UNL     1       8.830  -4.841  19.966  1.00  0.00     0.027 C 
HETATM    9  C12 UNL     1       8.639  -3.379  20.049  1.00  0.00     0.009 C 
HETATM   10  C13 UNL     1       7.857  -2.689  19.006  1.00  0.00     0.052 C 
HETATM   11  C14 UNL     1       6.635  -3.301  18.523  1.00  0.00    -0.016 C 
HETATM   12  N1  UNL     1       5.889  -3.995  19.283  1.00  0.00    -0.405 N 
ATOM     13  H11 UNL     1       6.179  -4.123  20.253  1.00  0.00     0.155 HD
ATOM     14  H12 UNL     1       5.030  -4.427  18.943  1.00  0.00     0.155 HD
ENDROOT
BRANCH   1  15
HETATM   15  C3  UNL     1       4.865  -3.709  16.837  1.00  0.00     0.020 C 
BRANCH  15  16
HETATM   16  C2  UNL     1       4.227  -2.964  15.697  1.00  0.00     0.074 C 
BRANCH  16  17
HETATM   17  S1  UNL     1       3.849  -4.200  14.415  1.00  0.00    -0.173 SA
HETATM   18  C1  UNL     1       4.054  -5.848  15.139  1.00  0.00     0.089 C 
ENDBRANCH  16  17
ENDBRANCH  15  16
ENDBRANCH   1  15
TORSDOF 3
ENDMDL
MODEL 2
REMARK VINA RESULT: -7.442817731      2.819      4.225
REMARK  3 active torsions:
REMARK  status: ('A' for Active; 'I' for Inactive)
REMARK    1  A    between atoms: S1_2  and  C2_3 
REMARK    2  A    between atoms: C2_3  and  C3_4 
REMARK    3  A    between atoms: C3_4  and  C4_5 
ROOT
HETATM    1  C4  UNL     1       4.806  -3.351  19.249  1.00  0.00     0.031 C 
HETATM    2  C5  UNL     1       6.080  -3.892  19.862  1.00  0.00     0.010 C 
HETATM    3  C6  UNL     1       7.231  -3.052  19.553  1.00  0.00     0.001 C 
HETATM    4  C7  UNL     1       8.493  -3.595  19.045  1.00  0.00     0.004 C 
HETATM    5  C8  UNL     1       8.584  -4.984  18.545  1.00  0.00     0.027 C 
HETATM    6  C9  UNL     1       9.104  -5.125  17.152  1.00  0.00    -0.031 C 
HETATM    7  C10 UNL     1       8.562  -4.678  16.049  1.00  0.00    -0.031 C 
HETATM    8  C11 UNL     1       7.302  -3.915  15.868  1.00  0.00     0.027 C 
HETATM    9  C12 UNL     1       6.055  -4.705  15.903  1.00  0.00     0.009 C 
HETATM   10  C13 UNL     1       5.207  -4.669  17.108  1.00  0.00     0.052 C 
HETATM   11  C14 UNL     1       4.985  -3.401  17.773  1.00  0.00    -0.016 C 
HETATM   12  N1  UNL     1       4.923  -2.308  17.127  1.00  0.00    -0.405 N 
ATOM     13  H11 UNL     1       5.045  -2.342  16.115  1.00  0.00     0.155 HD
ATOM     14  H12 UNL     1       4.766  -1.416  17.595  1.00  0.00     0.155 HD
ENDROOT
BRANCH   1  15
HETATM   15  C3  UNL     1       4.456  -1.978  19.732  1.00  0.00     0.020 C 
BRANCH  15  16
HETATM   16  C2  UNL     1       4.037  -2.060  21.174  1.00  0.00     0.074 C 
BRANCH  16  17
HETATM   17  S1  UNL     1       2.598  -3.174  21.235  1.00  0.00    -0.173 SA
HETATM   18  C1  UNL     1       3.019  -4.586  22.289  1.00  0.00     0.089 C 
ENDBRANCH  16  17
ENDBRANCH  15  16
ENDBRANCH   1  15
TORSDOF 3
ENDMDL
MODEL 3
REMARK VINA RESULT: -7.325026616      1.269      1.470
REMARK  3 active torsions:
REMARK  status: ('A' for Active; 'I' for Inactive)
REMARK    1  A    between atoms: S1_2  and  C2_3 
REMARK    2  A    between atoms: C2_3  and  C3_4 
REMARK    3  A    between atoms: C3_4  and  C4_5 
ROOT
HETATM    1  C4  UNL     1       6.317  -4.035  16.104  1.00  0.00     0.031 C 
HETATM    2  C5  UNL     1       7.775  -4.372  15.875  1.00  0.00     0.010 C 
HETATM    3  C6  UNL     1       8.146  -5.634  16.502  1.00  0.00     0.001 C 
HETATM    4  C7  UNL     1       9.336  -5.780  17.344  1.00  0.00     0.004 C 
HETATM    5  C8  UNL     1      10.071  -4.598  17.842  1.00  0.00     0.027 C 
HETATM    6  C9  UNL     1      10.240  -4.533  19.325  1.00  0.00    -0.031 C 
HETATM    7  C10 UNL     1       9.303  -4.433  20.231  1.00  0.00    -0.031 C 
HETATM    8  C11 UNL     1       7.832  -4.358  20.051  1.00  0.00     0.027 C 
HETATM    9  C12 UNL     1       7.293  -3.039  19.660  1.00  0.00     0.009 C 
HETATM   10  C13 UNL     1       6.879  -2.810  18.264  1.00  0.00     0.052 C 
HETATM   11  C14 UNL     1       6.145  -3.849  17.569  1.00  0.00    -0.016 C 
HETATM   12  N1  UNL     1       5.332  -4.615  18.176  1.00  0.00    -0.405 N 
ATOM     13  H11 UNL     1       5.213  -4.487  19.181  1.00  0.00     0.155 HD
ATOM     14  H12 UNL     1       4.815  -5.346  17.687  1.00  0.00     0.155 HD
ENDROOT
BRANCH   1  15
HETATM   15  C3  UNL     1       5.380  -5.062  15.547  1.00  0.00     0.020 C 
BRANCH  15  16
HETATM   16  C2  UNL     1       4.382  -4.379  14.654  1.00  0.00     0.074 C 
BRANCH  16  17
HETATM   17  S1  UNL     1       3.084  -5.603  14.292  1.00  0.00    -0.173 SA
HETATM   18  C1  UNL     1       1.475  -4.827  14.594  1.00  0.00     0.089 C 
ENDBRANCH  16  17
ENDBRANCH  15  16
ENDBRANCH   1  15
TORSDOF 3
ENDMDL
MODEL 4
REMARK VINA RESULT: -7.257697966      1.481      2.791
REMARK  3 active torsions:
REMARK  status: ('A' for Active; 'I' for Inactive)
REMARK    1  A    between atoms: S1_2  and  C2_3 
REMARK    2  A    between atoms: C2_3  and  C3_4 
REMARK    3  A    between atoms: C3_4  and  C4_5 
ROOT
HETATM    1  C4  UNL     1       6.073  -4.563  16.863  1.00  0.00     0.031 C 
HETATM    2  C5  UNL     1       6.026  -4.379  18.365  1.00  0.00     0.010 C 
HETATM    3  C6  UNL     1       6.658  -3.133  18.780  1.00  0.00     0.001 C 
HETATM    4  C7  UNL     1       7.644  -3.067  19.862  1.00  0.00     0.004 C 
HETATM    5  C8  UNL     1       8.268  -4.293  20.405  1.00  0.00     0.027 C 
HETATM    6  C9  UNL     1       9.760  -4.311  20.378  1.00  0.00    -0.031 C 
HETATM    7  C10 UNL     1      10.540  -4.283  19.329  1.00  0.00    -0.031 C 
HETATM    8  C11 UNL     1      10.173  -4.223  17.892  1.00  0.00     0.027 C 
HETATM    9  C12 UNL     1       9.754  -5.498  17.276  1.00  0.00     0.009 C 
HETATM   10  C13 UNL     1       8.323  -5.745  17.021  1.00  0.00     0.052 C 
HETATM   11  C14 UNL     1       7.508  -4.671  16.489  1.00  0.00    -0.016 C 
HETATM   12  N1  UNL     1       7.983  -3.805  15.688  1.00  0.00    -0.405 N 
ATOM     13  H11 UNL     1       8.967  -3.878  15.431  1.00  0.00     0.155 HD
ATOM     14  H12 UNL     1       7.410  -3.049  15.314  1.00  0.00     0.155 HD
ENDROOT
BRANCH   1  15
HETATM   15  C3  UNL     1       5.370  -3.475  16.113  1.00  0.00     0.020 C 
BRANCH  15  16
HETATM   16  C2  UNL     1       3.928  -3.861  15.932  1.00  0.00     0.074 C 
BRANCH  16  17
HETATM   17  S1  UNL     1       3.918  -5.605  15.410  1.00  0.00    -0.173 SA
HETATM   18  C1  UNL     1       3.280  -5.685  13.716  1.00  0.00     0.089 C 
ENDBRANCH  16  17
ENDBRANCH  15  16
ENDBRANCH   1  15
TORSDOF 3
ENDMDL
MODEL 5
REMARK VINA RESULT: -7.118793804      2.589      3.253
REMARK  3 active torsions:
REMARK  status: ('A' for Active; 'I' for Inactive)
REMARK    1  A    between atoms: S1_2  and  C2_3 
REMARK    2  A    between atoms: C2_3  and  C3_4 
REMARK    3  A    between atoms: C3_4  and  C4_5 
ROOT
HETATM    1  C4  UNL     1       5.609  -2.713  18.829  1.00  0.00     0.031 C 
HETATM    2  C5  UNL     1       5.735  -2.980  17.345  1.00  0.00     0.010 C 
HETATM    3  C6  UNL     1       5.753  -4.408  17.049  1.00  0.00     0.001 C 
HETATM    4  C7  UNL     1       6.754  -5.022  16.173  1.00  0.00     0.004 C 
HETATM    5  C8  UNL     1       7.970  -4.286  15.766  1.00  0.00     0.027 C 
HETATM    6  C9  UNL     1       9.261  -4.971  16.076  1.00  0.00    -0.031 C 
HETATM    7  C10 UNL     1       9.741  -5.274  17.254  1.00  0.00    -0.031 C 
HETATM    8  C11 UNL     1       9.152  -5.030  18.594  1.00  0.00     0.027 C 
HETATM    9  C12 UNL     1       9.298  -3.661  19.128  1.00  0.00     0.009 C 
HETATM   10  C13 UNL     1       8.140  -2.748  19.108  1.00  0.00     0.052 C 
HETATM   11  C14 UNL     1       6.834  -3.263  19.469  1.00  0.00    -0.016 C 
HETATM   12  N1  UNL     1       6.692  -4.177  20.341  1.00  0.00    -0.405 N 
ATOM     13  H11 UNL     1       7.532  -4.555  20.780  1.00  0.00     0.155 HD
ATOM     14  H12 UNL     1       5.773  -4.539  20.594  1.00  0.00     0.155 HD
ENDROOT
BRANCH   1  15
HETATM   15  C3  UNL     1       4.356  -3.273  19.426  1.00  0.00     0.020 C 
BRANCH  15  16
HETATM   16  C2  UNL     1       3.814  -2.294  20.431  1.00  0.00     0.074 C 
BRANCH  16  17
HETATM   17  S1  UNL     1       2.640  -3.215  21.474  1.00  0.00    -0.173 SA
HETATM   18  C1  UNL     1       3.353  -4.843  21.826  1.00  0.00     0.089 C 
ENDBRANCH  16  17
ENDBRANCH  15  16
ENDBRANCH   1  15
TORSDOF 3
ENDMDL
