MODEL 1
REMARK VINA RESULT: -6.424636350      0.000      0.000
REMARK  2 active torsions:
REMARK  status: ('A' for Active; 'I' for Inactive)
REMARK    1  A    between atoms: O1_1  and  N1_3 
REMARK    2  A    between atoms: N2_9  and  C4_11 
ROOT
HETATM    1  N1  UNL     1      53.524  31.891  84.878  1.00  0.00    -0.249 N 
ATOM      2  H1  UNL     1      54.054  31.684  84.031  1.00  0.00     0.196 HD
HETATM    3  C1  UNL     1      53.943  32.839  85.679  1.00  0.00     0.162 C 
HETATM    4  O2  UNL     1      53.369  33.262  86.860  1.00  0.00    -0.331 OA
HETATM    5  C2  UNL     1      53.640  34.661  86.960  1.00  0.00     0.231 C 
HETATM    6  C3  UNL     1      54.967  34.821  86.329  1.00  0.00     0.034 C 
HETATM    7  N2  UNL     1      55.790  35.803  86.526  1.00  0.00    -0.388 N 
ATOM      8  H2  UNL     1      56.686  35.819  86.038  1.00  0.00     0.159 HD
HETATM    9  C10 UNL     1      55.147  33.644  85.442  1.00  0.00     0.206 C 
HETATM   10 CL1  UNL     1      55.254  34.113  83.730  1.00  0.00    -0.110 Cl
ENDROOT
BRANCH   7  11
HETATM   11  C4  UNL     1      55.448  36.867  87.427  1.00  0.00     0.081 C 
HETATM   12  C5  UNL     1      56.540  37.108  88.445  1.00  0.00     0.025 C 
HETATM   13  C6  UNL     1      56.221  38.446  89.100  1.00  0.00     0.002 C 
HETATM   14  C7  UNL     1      56.586  39.515  88.115  1.00  0.00     0.000 C 
HETATM   15  C8  UNL     1      56.063  39.212  86.751  1.00  0.00     0.002 C 
HETATM   16  C9  UNL     1      55.038  38.121  86.710  1.00  0.00     0.025 C 
ENDBRANCH   7  11
BRANCH   1  17
HETATM   17  O1  UNL     1      52.389  31.170  85.151  1.00  0.00    -0.288 OA
ATOM     18  H1  UNL     1      51.963  30.643  84.486  1.00  0.00     0.244 HD
ENDBRANCH   1  17
TORSDOF 2
ENDMDL
MODEL 2
REMARK VINA RESULT: -6.220057128      1.796      2.355
REMARK  2 active torsions:
REMARK  status: ('A' for Active; 'I' for Inactive)
REMARK    1  A    between atoms: O1_1  and  N1_3 
REMARK    2  A    between atoms: N2_9  and  C4_11 
ROOT
HETATM    1  N1  UNL     1      52.556  32.054  86.542  1.00  0.00    -0.249 N 
ATOM      2  H1  UNL     1      52.226  31.622  87.405  1.00  0.00     0.196 HD
HETATM    3  C1  UNL     1      53.089  33.250  86.590  1.00  0.00     0.162 C 
HETATM    4  O2  UNL     1      53.589  33.994  85.541  1.00  0.00    -0.331 OA
HETATM    5  C2  UNL     1      54.669  34.763  86.073  1.00  0.00     0.231 C 
HETATM    6  C3  UNL     1      54.255  35.061  87.460  1.00  0.00     0.034 C 
HETATM    7  N2  UNL     1      54.698  36.034  88.193  1.00  0.00    -0.388 N 
ATOM      8  H2  UNL     1      54.346  36.154  89.143  1.00  0.00     0.159 HD
HETATM    9  C10 UNL     1      53.249  34.031  87.821  1.00  0.00     0.206 C 
HETATM   10 CL1  UNL     1      53.813  32.991  89.149  1.00  0.00    -0.110 Cl
ENDROOT
BRANCH   7  11
HETATM   11  C4  UNL     1      55.681  36.944  87.675  1.00  0.00     0.081 C 
HETATM   12  C5  UNL     1      55.048  38.227  87.185  1.00  0.00     0.025 C 
HETATM   13  C6  UNL     1      56.192  39.215  86.990  1.00  0.00     0.002 C 
HETATM   14  C7  UNL     1      56.611  39.675  88.353  1.00  0.00     0.000 C 
HETATM   15  C8  UNL     1      56.772  38.530  89.298  1.00  0.00     0.002 C 
HETATM   16  C9  UNL     1      56.807  37.186  88.638  1.00  0.00     0.025 C 
ENDBRANCH   7  11
BRANCH   1  17
HETATM   17  O1  UNL     1      52.433  31.369  85.360  1.00  0.00    -0.288 OA
ATOM     18  H1  UNL     1      53.015  31.532  84.628  1.00  0.00     0.244 HD
ENDBRANCH   1  17
TORSDOF 2
ENDMDL
MODEL 3
REMARK VINA RESULT: -5.960865113      3.353      4.827
REMARK  2 active torsions:
REMARK  status: ('A' for Active; 'I' for Inactive)
REMARK    1  A    between atoms: O1_1  and  N1_3 
REMARK    2  A    between atoms: N2_9  and  C4_11 
ROOT
HETATM    1  N1  UNL     1      55.958  36.016  83.929  1.00  0.00    -0.249 N 
ATOM      2  H1  UNL     1      55.545  35.443  83.193  1.00  0.00     0.196 HD
HETATM    3  C1  UNL     1      55.501  35.911  85.152  1.00  0.00     0.162 C 
HETATM    4  O2  UNL     1      55.925  36.594  86.274  1.00  0.00    -0.331 OA
HETATM    5  C2  UNL     1      55.754  35.702  87.376  1.00  0.00     0.231 C 
HETATM    6  C3  UNL     1      54.553  34.915  87.025  1.00  0.00     0.034 C 
HETATM    7  N2  UNL     1      53.790  34.278  87.858  1.00  0.00    -0.388 N 
ATOM      8  H2  UNL     1      52.981  33.762  87.512  1.00  0.00     0.159 HD
HETATM    9  C10 UNL     1      54.414  35.010  85.550  1.00  0.00     0.206 C 
HETATM   10 CL1  UNL     1      54.601  33.426  84.764  1.00  0.00    -0.110 Cl
ENDROOT
BRANCH   7  11
HETATM   11  C4  UNL     1      54.078  34.296  89.264  1.00  0.00     0.081 C 
HETATM   12  C5  UNL     1      53.288  35.367  89.981  1.00  0.00     0.025 C 
HETATM   13  C6  UNL     1      53.415  35.063  91.469  1.00  0.00     0.002 C 
HETATM   14  C7  UNL     1      52.523  33.892  91.755  1.00  0.00     0.000 C 
HETATM   15  C8  UNL     1      52.708  32.799  90.755  1.00  0.00     0.002 C 
HETATM   16  C9  UNL     1      53.930  32.944  89.901  1.00  0.00     0.025 C 
ENDBRANCH   7  11
BRANCH   1  17
HETATM   17  O1  UNL     1      56.979  36.877  83.615  1.00  0.00    -0.288 OA
ATOM     18  H1  UNL     1      57.017  37.317  82.774  1.00  0.00     0.244 HD
ENDBRANCH   1  17
TORSDOF 2
ENDMDL
MODEL 4
REMARK VINA RESULT: -5.958915588      3.526      4.759
REMARK  2 active torsions:
REMARK  status: ('A' for Active; 'I' for Inactive)
REMARK    1  A    between atoms: O1_1  and  N1_3 
REMARK    2  A    between atoms: N2_9  and  C4_11 
ROOT
HETATM    1  N1  UNL     1      55.569  34.207  84.592  1.00  0.00    -0.249 N 
ATOM      2  H1  UNL     1      56.408  34.787  84.615  1.00  0.00     0.196 HD
HETATM    3  C1  UNL     1      54.952  33.932  85.715  1.00  0.00     0.162 C 
HETATM    4  O2  UNL     1      53.813  33.172  85.889  1.00  0.00    -0.331 OA
HETATM    5  C2  UNL     1      53.116  33.740  86.998  1.00  0.00     0.231 C 
HETATM    6  C3  UNL     1      54.189  34.232  87.889  1.00  0.00     0.034 C 
HETATM    7  N2  UNL     1      54.078  34.456  89.161  1.00  0.00    -0.388 N 
ATOM      8  H2  UNL     1      54.882  34.797  89.687  1.00  0.00     0.159 HD
HETATM    9  C10 UNL     1      55.388  34.409  87.032  1.00  0.00     0.206 C 
HETATM   10 CL1  UNL     1      55.893  36.111  86.941  1.00  0.00    -0.110 Cl
ENDROOT
BRANCH   7  11
HETATM   11  C4  UNL     1      52.829  34.228  89.832  1.00  0.00     0.081 C 
HETATM   12  C5  UNL     1      52.825  32.905  90.565  1.00  0.00     0.025 C 
HETATM   13  C6  UNL     1      51.617  32.939  91.493  1.00  0.00     0.002 C 
HETATM   14  C7  UNL     1      51.970  33.835  92.641  1.00  0.00     0.000 C 
HETATM   15  C8  UNL     1      52.586  35.113  92.176  1.00  0.00     0.002 C 
HETATM   16  C9  UNL     1      52.428  35.377  90.711  1.00  0.00     0.025 C 
ENDBRANCH   7  11
BRANCH   1  17
HETATM   17  O1  UNL     1      55.114  33.733  83.388  1.00  0.00    -0.288 OA
ATOM     18  H1  UNL     1      54.186  33.632  83.212  1.00  0.00     0.244 HD
ENDBRANCH   1  17
TORSDOF 2
ENDMDL
MODEL 5
REMARK VINA RESULT: -5.943943775      1.304      1.565
REMARK  2 active torsions:
REMARK  status: ('A' for Active; 'I' for Inactive)
REMARK    1  A    between atoms: O1_1  and  N1_3 
REMARK    2  A    between atoms: N2_9  and  C4_11 
ROOT
HETATM    1  N1  UNL     1      53.314  33.085  85.952  1.00  0.00    -0.249 N 
ATOM      2  H1  UNL     1      53.589  32.990  84.974  1.00  0.00     0.196 HD
HETATM    3  C1  UNL     1      53.977  33.908  86.725  1.00  0.00     0.162 C 
HETATM    4  O2  UNL     1      53.759  34.172  88.062  1.00  0.00    -0.331 OA
HETATM    5  C2  UNL     1      54.116  35.540  88.265  1.00  0.00     0.231 C 
HETATM    6  C3  UNL     1      55.233  35.768  87.325  1.00  0.00     0.034 C 
HETATM    7  N2  UNL     1      56.126  36.704  87.418  1.00  0.00    -0.388 N 
ATOM      8  H2  UNL     1      56.860  36.776  86.713  1.00  0.00     0.159 HD
HETATM    9  C10 UNL     1      55.112  34.723  86.278  1.00  0.00     0.206 C 
HETATM   10 CL1  UNL     1      54.784  35.422  84.677  1.00  0.00    -0.110 Cl
ENDROOT
BRANCH   7  11
HETATM   11  C4  UNL     1      56.088  37.638  88.508  1.00  0.00     0.081 C 
HETATM   12  C5  UNL     1      57.370  37.610  89.309  1.00  0.00     0.025 C 
HETATM   13  C6  UNL     1      57.343  38.851  90.194  1.00  0.00     0.002 C 
HETATM   14  C7  UNL     1      57.649  40.025  89.314  1.00  0.00     0.000 C 
HETATM   15  C8  UNL     1      56.851  39.993  88.053  1.00  0.00     0.002 C 
HETATM   16  C9  UNL     1      55.710  39.023  88.068  1.00  0.00     0.025 C 
ENDBRANCH   7  11
BRANCH   1  17
HETATM   17  O1  UNL     1      52.259  32.347  86.425  1.00  0.00    -0.288 OA
ATOM     18  H1  UNL     1      51.360  32.625  86.295  1.00  0.00     0.244 HD
ENDBRANCH   1  17
TORSDOF 2
ENDMDL
