MODEL 1
REMARK VINA RESULT: -5.063019592      0.000      0.000
REMARK  4 active torsions:
REMARK  status: ('A' for Active; 'I' for Inactive)
REMARK    1  A    between atoms: C3_8  and  N3_9 
REMARK    2  A    between atoms: N5_14  and  N6_15 
REMARK    3  A    between atoms: C4_17  and  N7_18 
REMARK    4  A    between atoms: N7_18  and  N8_20 
ROOT
HETATM    1  N1  UNL     1      27.527  70.671  57.001  1.00  0.00    -0.232 N 
ATOM      2  H11 UNL     1      28.219  71.214  56.485  1.00  0.00     0.174 HD
ATOM      3  H12 UNL     1      27.863  70.035  57.725  1.00  0.00     0.174 HD
HETATM    4  C1  UNL     1      26.248  70.766  56.765  1.00  0.00     0.712 A 
HETATM    5  N2  UNL     1      25.285  70.010  57.483  1.00  0.00    -0.195 N 
ATOM      6  H2  UNL     1      25.581  69.363  58.214  1.00  0.00     0.183 HD
HETATM    7  C2  UNL     1      23.912  70.160  57.177  1.00  0.00     0.162 A 
HETATM    8  C3  UNL     1      23.501  70.993  56.232  1.00  0.00     0.206 A 
HETATM    9  N4  UNL     1      24.410  71.781  55.473  1.00  0.00    -0.243 N 
ATOM     10  H4  UNL     1      24.076  72.416  54.749  1.00  0.00     0.191 HD
HETATM   11  N5  UNL     1      25.776  71.660  55.747  1.00  0.00    -0.018 N 
ENDROOT
BRANCH  11  12
HETATM   12  N6  UNL     1      26.711  72.406  55.037  1.00  0.00    -0.259 N 
HETATM   13  C4  UNL     1      26.993  73.628  55.299  1.00  0.00     0.215 C 
ATOM     14  H6  UNL     1      27.200  71.954  54.264  1.00  0.00     0.190 HD
BRANCH  13  15
HETATM   15  N7  UNL     1      27.952  74.340  54.546  1.00  0.00    -0.301 N 
ATOM     16  H7  UNL     1      28.817  74.667  54.976  1.00  0.00     0.187 HD
BRANCH  15  17
HETATM   17  N8  UNL     1      27.687  74.586  53.195  1.00  0.00    -0.344 N 
ATOM     18  H82 UNL     1      27.600  73.804  52.545  1.00  0.00     0.176 HD
ATOM     19  H81 UNL     1      27.586  75.553  52.889  1.00  0.00     0.176 HD
ENDBRANCH  15  17
ENDBRANCH  13  15
ENDBRANCH  11  12
BRANCH   8  20
HETATM   20  N3  UNL     1      22.102  71.116  55.953  1.00  0.00    -0.095 N 
HETATM   21  O1  UNL     1      21.265  70.578  56.670  1.00  0.00    -0.530 OA
HETATM   22  O2  UNL     1      21.688  71.847  54.869  1.00  0.00    -0.530 OA
ENDBRANCH   8  20
TORSDOF 4
ENDMDL
MODEL 2
REMARK VINA RESULT: -4.844389763      4.262      5.389
REMARK  4 active torsions:
REMARK  status: ('A' for Active; 'I' for Inactive)
REMARK    1  A    between atoms: C3_8  and  N3_9 
REMARK    2  A    between atoms: N5_14  and  N6_15 
REMARK    3  A    between atoms: C4_17  and  N7_18 
REMARK    4  A    between atoms: N7_18  and  N8_20 
ROOT
HETATM    1  N1  UNL     1      21.604  68.485  57.246  1.00  0.00    -0.232 N 
ATOM      2  H11 UNL     1      22.018  68.724  56.344  1.00  0.00     0.174 HD
ATOM      3  H12 UNL     1      21.488  67.497  57.471  1.00  0.00     0.174 HD
HETATM    4  C1  UNL     1      21.228  69.393  58.102  1.00  0.00     0.712 A 
HETATM    5  N2  UNL     1      20.651  69.061  59.357  1.00  0.00    -0.195 N 
ATOM      6  H2  UNL     1      20.519  68.084  59.618  1.00  0.00     0.183 HD
HETATM    7  C2  UNL     1      20.263  70.094  60.240  1.00  0.00     0.162 A 
HETATM    8  C3  UNL     1      20.424  71.371  59.924  1.00  0.00     0.206 A 
HETATM    9  N4  UNL     1      20.994  71.776  58.685  1.00  0.00    -0.243 N 
ATOM     10  H4  UNL     1      21.109  72.764  58.459  1.00  0.00     0.191 HD
HETATM   11  N5  UNL     1      21.390  70.782  57.786  1.00  0.00    -0.018 N 
ENDROOT
BRANCH  11  12
HETATM   12  N6  UNL     1      21.953  71.119  56.559  1.00  0.00    -0.259 N 
HETATM   13  C4  UNL     1      22.213  72.322  56.202  1.00  0.00     0.215 C 
ATOM     14  H6  UNL     1      22.171  70.365  55.907  1.00  0.00     0.190 HD
BRANCH  13  15
HETATM   15  N7  UNL     1      22.786  72.608  54.943  1.00  0.00    -0.301 N 
ATOM     16  H7  UNL     1      23.711  73.032  54.874  1.00  0.00     0.187 HD
BRANCH  15  17
HETATM   17  N8  UNL     1      22.053  72.297  53.794  1.00  0.00    -0.344 N 
ATOM     18  H82 UNL     1      21.113  72.676  53.672  1.00  0.00     0.176 HD
ATOM     19  H81 UNL     1      22.482  71.691  53.095  1.00  0.00     0.176 HD
ENDBRANCH  15  17
ENDBRANCH  13  15
ENDBRANCH  11  12
BRANCH   8  20
HETATM   20  N3  UNL     1      20.019  72.387  60.848  1.00  0.00    -0.095 N 
HETATM   21  O1  UNL     1      19.505  72.097  61.923  1.00  0.00    -0.530 OA
HETATM   22  O2  UNL     1      20.208  73.709  60.529  1.00  0.00    -0.530 OA
ENDBRANCH   8  20
TORSDOF 4
ENDMDL
MODEL 3
REMARK VINA RESULT: -4.777820272      1.404      1.622
REMARK  4 active torsions:
REMARK  status: ('A' for Active; 'I' for Inactive)
REMARK    1  A    between atoms: C3_8  and  N3_9 
REMARK    2  A    between atoms: N5_14  and  N6_15 
REMARK    3  A    between atoms: C4_17  and  N7_18 
REMARK    4  A    between atoms: N7_18  and  N8_20 
ROOT
HETATM    1  N1  UNL     1      26.534  69.663  57.873  1.00  0.00    -0.232 N 
ATOM      2  H11 UNL     1      27.491  69.916  57.627  1.00  0.00     0.174 HD
ATOM      3  H12 UNL     1      26.398  68.979  58.618  1.00  0.00     0.174 HD
HETATM    4  C1  UNL     1      25.500  70.181  57.273  1.00  0.00     0.712 A 
HETATM    5  N2  UNL     1      24.167  69.829  57.615  1.00  0.00    -0.195 N 
ATOM      6  H2  UNL     1      23.990  69.149  58.354  1.00  0.00     0.183 HD
HETATM    7  C2  UNL     1      23.089  70.428  56.924  1.00  0.00     0.162 A 
HETATM    8  C3  UNL     1      23.292  71.314  55.960  1.00  0.00     0.206 A 
HETATM    9  N4  UNL     1      24.599  71.714  55.565  1.00  0.00    -0.243 N 
ATOM     10  H4  UNL     1      24.737  72.397  54.820  1.00  0.00     0.191 HD
HETATM   11  N5  UNL     1      25.691  71.143  56.226  1.00  0.00    -0.018 N 
ENDROOT
BRANCH  11  12
HETATM   12  N6  UNL     1      26.992  71.495  55.882  1.00  0.00    -0.259 N 
HETATM   13  C4  UNL     1      27.650  72.434  56.457  1.00  0.00     0.215 C 
ATOM     14  H6  UNL     1      27.448  70.978  55.131  1.00  0.00     0.190 HD
BRANCH  13  15
HETATM   15  N7  UNL     1      28.971  72.751  56.068  1.00  0.00    -0.301 N 
ATOM     16  H7  UNL     1      29.740  72.111  56.264  1.00  0.00     0.187 HD
BRANCH  15  17
HETATM   17  N8  UNL     1      29.196  73.962  55.408  1.00  0.00    -0.344 N 
ATOM     18  H82 UNL     1      29.827  74.652  55.815  1.00  0.00     0.176 HD
ATOM     19  H81 UNL     1      28.717  74.128  54.523  1.00  0.00     0.176 HD
ENDBRANCH  15  17
ENDBRANCH  13  15
ENDBRANCH  11  12
BRANCH   8  20
HETATM   20  N3  UNL     1      22.173  71.899  55.285  1.00  0.00    -0.095 N 
HETATM   21  O1  UNL     1      22.008  71.742  54.079  1.00  0.00    -0.530 OA
HETATM   22  O2  UNL     1      21.266  72.645  55.996  1.00  0.00    -0.530 OA
ENDBRANCH   8  20
TORSDOF 4
ENDMDL
MODEL 4
REMARK VINA RESULT: -4.625230980      2.576      3.820
REMARK  4 active torsions:
REMARK  status: ('A' for Active; 'I' for Inactive)
REMARK    1  A    between atoms: C3_8  and  N3_9 
REMARK    2  A    between atoms: N5_14  and  N6_15 
REMARK    3  A    between atoms: C4_17  and  N7_18 
REMARK    4  A    between atoms: N7_18  and  N8_20 
ROOT
HETATM    1  N1  UNL     1      22.027  72.750  56.096  1.00  0.00    -0.232 N 
ATOM      2  H11 UNL     1      22.766  73.248  55.600  1.00  0.00     0.174 HD
ATOM      3  H12 UNL     1      21.169  73.259  56.311  1.00  0.00     0.174 HD
HETATM    4  C1  UNL     1      22.146  71.502  56.454  1.00  0.00     0.712 A 
HETATM    5  N2  UNL     1      21.118  70.808  57.144  1.00  0.00    -0.195 N 
ATOM      6  H2  UNL     1      20.245  71.283  57.378  1.00  0.00     0.183 HD
HETATM    7  C2  UNL     1      21.311  69.455  57.505  1.00  0.00     0.162 A 
HETATM    8  C3  UNL     1      22.435  68.815  57.214  1.00  0.00     0.206 A 
HETATM    9  N4  UNL     1      23.506  69.448  56.525  1.00  0.00    -0.243 N 
ATOM     10  H4  UNL     1      24.365  68.940  56.310  1.00  0.00     0.191 HD
HETATM   11  N5  UNL     1      23.352  70.786  56.152  1.00  0.00    -0.018 N 
ENDROOT
BRANCH  11  12
HETATM   12  N6  UNL     1      24.366  71.457  55.476  1.00  0.00    -0.259 N 
HETATM   13  C4  UNL     1      25.585  71.487  55.872  1.00  0.00     0.215 C 
ATOM     14  H6  UNL     1      24.126  71.953  54.618  1.00  0.00     0.190 HD
BRANCH  13  15
HETATM   15  N7  UNL     1      26.577  72.184  55.147  1.00  0.00    -0.301 N 
ATOM     16  H7  UNL     1      26.477  72.341  54.144  1.00  0.00     0.187 HD
BRANCH  15  17
HETATM   17  N8  UNL     1      27.698  72.653  55.838  1.00  0.00    -0.344 N 
ATOM     18  H82 UNL     1      28.585  72.770  55.347  1.00  0.00     0.176 HD
ATOM     19  H81 UNL     1      27.600  72.871  56.829  1.00  0.00     0.176 HD
ENDBRANCH  15  17
ENDBRANCH  13  15
ENDBRANCH  11  12
BRANCH   8  20
HETATM   20  N3  UNL     1      22.591  67.445  57.596  1.00  0.00    -0.095 N 
HETATM   21  O1  UNL     1      22.347  66.536  56.808  1.00  0.00    -0.530 OA
HETATM   22  O2  UNL     1      23.020  67.138  58.863  1.00  0.00    -0.530 OA
ENDBRANCH   8  20
TORSDOF 4
ENDMDL
MODEL 5
REMARK VINA RESULT: -4.544974961      3.974      5.440
REMARK  4 active torsions:
REMARK  status: ('A' for Active; 'I' for Inactive)
REMARK    1  A    between atoms: C3_8  and  N3_9 
REMARK    2  A    between atoms: N5_14  and  N6_15 
REMARK    3  A    between atoms: C4_17  and  N7_18 
REMARK    4  A    between atoms: N7_18  and  N8_20 
ROOT
HETATM    1  N1  UNL     1      20.869  71.925  59.324  1.00  0.00    -0.232 N 
ATOM      2  H11 UNL     1      21.201  72.647  58.685  1.00  0.00     0.174 HD
ATOM      3  H12 UNL     1      20.566  72.213  60.255  1.00  0.00     0.174 HD
HETATM    4  C1  UNL     1      20.822  70.666  58.989  1.00  0.00     0.712 A 
HETATM    5  N2  UNL     1      20.361  69.660  59.878  1.00  0.00    -0.195 N 
ATOM      6  H2  UNL     1      20.050  69.908  60.818  1.00  0.00     0.183 HD
HETATM    7  C2  UNL     1      20.335  68.312  59.453  1.00  0.00     0.162 A 
HETATM    8  C3  UNL     1      20.734  67.962  58.239  1.00  0.00     0.206 A 
HETATM    9  N4  UNL     1      21.208  68.916  57.296  1.00  0.00    -0.243 N 
ATOM     10  H4  UNL     1      21.512  68.629  56.366  1.00  0.00     0.191 HD
HETATM   11  N5  UNL     1      21.248  70.260  57.681  1.00  0.00    -0.018 N 
ENDROOT
BRANCH  11  12
HETATM   12  N6  UNL     1      21.702  71.237  56.801  1.00  0.00    -0.259 N 
HETATM   13  C4  UNL     1      22.745  71.105  56.068  1.00  0.00     0.215 C 
ATOM     14  H6  UNL     1      21.175  72.108  56.736  1.00  0.00     0.190 HD
BRANCH  13  15
HETATM   15  N7  UNL     1      23.163  72.130  55.191  1.00  0.00    -0.301 N 
ATOM     16  H7  UNL     1      24.082  72.560  55.290  1.00  0.00     0.187 HD
BRANCH  15  17
HETATM   17  N8  UNL     1      22.285  72.541  54.184  1.00  0.00    -0.344 N 
ATOM     18  H82 UNL     1      21.611  73.284  54.369  1.00  0.00     0.176 HD
ATOM     19  H81 UNL     1      22.341  72.082  53.275  1.00  0.00     0.176 HD
ENDBRANCH  15  17
ENDBRANCH  13  15
ENDBRANCH  11  12
BRANCH   8  20
HETATM   20  N3  UNL     1      20.692  66.586  57.846  1.00  0.00    -0.095 N 
HETATM   21  O1  UNL     1      21.303  65.729  58.476  1.00  0.00    -0.530 OA
HETATM   22  O2  UNL     1      19.955  66.215  56.749  1.00  0.00    -0.530 OA
ENDBRANCH   8  20
TORSDOF 4
ENDMDL
