MODEL 1
REMARK VINA RESULT: -5.655236803      0.000      0.000
REMARK  5 active torsions:
REMARK  status: ('A' for Active; 'I' for Inactive)
REMARK    1  A    between atoms: N1_2  and  N2_4 
REMARK    2  A    between atoms: N2_4  and  C2_6 
REMARK    3  A    between atoms: C6_12  and  N4_13 
REMARK    4  A    between atoms: N4_13  and  C7_15 
REMARK    5  A    between atoms: C7_15  and  C8_16 
ROOT
HETATM    1  C2  UNL     1     -11.538 -34.247   9.097  1.00  0.00     0.068 C 
HETATM    2  C3  UNL     1     -12.414 -35.164   8.284  1.00  0.00     0.064 C 
HETATM    3  C4  UNL     1     -12.877 -34.383   7.078  1.00  0.00     0.026 C 
HETATM    4  C5  UNL     1     -11.612 -33.995   6.308  1.00  0.00     0.121 C 
HETATM    5  N3  UNL     1     -10.870 -33.047   7.123  1.00  0.00    -0.375 N 
ATOM      6  H3  UNL     1     -10.368 -32.280   6.676  1.00  0.00     0.161 HD
HETATM    7  C6  UNL     1     -10.840 -33.173   8.427  1.00  0.00     0.121 C 
ENDROOT
BRANCH   7   8
HETATM    8  N4  UNL     1     -10.094 -32.192   9.112  1.00  0.00    -0.374 N 
ATOM      9  H4  UNL     1      -9.164 -32.435   9.455  1.00  0.00     0.161 HD
BRANCH   8  10
HETATM   10  C7  UNL     1     -10.590 -30.869   9.346  1.00  0.00     0.126 C 
BRANCH  10  11
HETATM   11  C8  UNL     1      -9.942 -29.792   8.530  1.00  0.00     0.003 A 
HETATM   12  C9  UNL     1     -10.839 -28.560   8.365  1.00  0.00     0.007 A 
HETATM   13  C10 UNL     1     -10.458 -29.391   7.198  1.00  0.00     0.007 A 
ENDBRANCH  10  11
ENDBRANCH   8  10
ENDBRANCH   7   8
BRANCH   1  14
HETATM   14  N2  UNL     1     -11.476 -34.499  10.346  1.00  0.00    -0.306 N 
ATOM     15  H2  UNL     1     -10.854 -33.902  10.891  1.00  0.00     0.186 HD
BRANCH  14  16
HETATM   16  N1  UNL     1     -12.141 -35.475  11.049  1.00  0.00    -0.341 N 
HETATM   17  C1  UNL     1     -11.386 -36.591  11.584  1.00  0.00     0.167 C 
ATOM     18  H1  UNL     1     -13.148 -35.414  11.192  1.00  0.00     0.179 HD
ENDBRANCH  14  16
ENDBRANCH   1  14
TORSDOF 5
ENDMDL
MODEL 2
REMARK VINA RESULT: -5.413621468      1.863      3.423
REMARK  5 active torsions:
REMARK  status: ('A' for Active; 'I' for Inactive)
REMARK    1  A    between atoms: N1_2  and  N2_4 
REMARK    2  A    between atoms: N2_4  and  C2_6 
REMARK    3  A    between atoms: C6_12  and  N4_13 
REMARK    4  A    between atoms: N4_13  and  C7_15 
REMARK    5  A    between atoms: C7_15  and  C8_16 
ROOT
HETATM    1  C2  UNL     1     -11.350 -33.191   9.490  1.00  0.00     0.068 C 
HETATM    2  C3  UNL     1     -11.970 -33.367  10.852  1.00  0.00     0.064 C 
HETATM    3  C4  UNL     1     -11.264 -32.415  11.788  1.00  0.00     0.026 C 
HETATM    4  C5  UNL     1     -11.515 -31.009  11.238  1.00  0.00     0.121 C 
HETATM    5  N3  UNL     1     -10.816 -30.895   9.969  1.00  0.00    -0.375 N 
ATOM      6  H3  UNL     1     -10.379 -30.012   9.709  1.00  0.00     0.161 HD
HETATM    7  C6  UNL     1     -10.743 -31.922   9.157  1.00  0.00     0.121 C 
ENDROOT
BRANCH   7   8
HETATM    8  N4  UNL     1     -10.035 -31.697   7.960  1.00  0.00    -0.374 N 
ATOM      9  H4  UNL     1      -9.329 -32.376   7.673  1.00  0.00     0.161 HD
BRANCH   8  10
HETATM   10  C7  UNL     1     -10.266 -30.552   7.130  1.00  0.00     0.126 C 
BRANCH  10  11
HETATM   11  C8  UNL     1      -9.123 -29.587   7.041  1.00  0.00     0.003 A 
HETATM   12  C9  UNL     1      -8.850 -29.128   5.605  1.00  0.00     0.007 A 
HETATM   13  C10 UNL     1      -7.852 -29.926   6.356  1.00  0.00     0.007 A 
ENDBRANCH  10  11
ENDBRANCH   8  10
ENDBRANCH   7   8
BRANCH   1  14
HETATM   14  N2  UNL     1     -11.413 -34.203   8.715  1.00  0.00    -0.306 N 
ATOM     15  H2  UNL     1     -10.637 -34.861   8.777  1.00  0.00     0.186 HD
BRANCH  14  16
HETATM   16  N1  UNL     1     -12.396 -34.517   7.808  1.00  0.00    -0.341 N 
HETATM   17  C1  UNL     1     -12.116 -34.372   6.393  1.00  0.00     0.167 C 
ATOM     18  H1  UNL     1     -13.307 -34.846   8.124  1.00  0.00     0.179 HD
ENDBRANCH  14  16
ENDBRANCH   1  14
TORSDOF 5
ENDMDL
MODEL 3
REMARK VINA RESULT: -5.366344921      1.570      2.001
REMARK  5 active torsions:
REMARK  status: ('A' for Active; 'I' for Inactive)
REMARK    1  A    between atoms: N1_2  and  N2_4 
REMARK    2  A    between atoms: N2_4  and  C2_6 
REMARK    3  A    between atoms: C6_12  and  N4_13 
REMARK    4  A    between atoms: N4_13  and  C7_15 
REMARK    5  A    between atoms: C7_15  and  C8_16 
ROOT
HETATM    1  C2  UNL     1     -10.980 -33.826   9.061  1.00  0.00     0.068 C 
HETATM    2  C3  UNL     1     -11.832 -35.046   8.823  1.00  0.00     0.064 C 
HETATM    3  C4  UNL     1     -12.837 -34.686   7.757  1.00  0.00     0.026 C 
HETATM    4  C5  UNL     1     -12.028 -34.320   6.510  1.00  0.00     0.121 C 
HETATM    5  N3  UNL     1     -11.306 -33.091   6.794  1.00  0.00    -0.375 N 
ATOM      6  H3  UNL     1     -11.177 -32.398   6.057  1.00  0.00     0.161 HD
HETATM    7  C6  UNL     1     -10.819 -32.867   7.990  1.00  0.00     0.121 C 
ENDROOT
BRANCH   7   8
HETATM    8  N4  UNL     1     -10.145 -31.640   8.149  1.00  0.00    -0.374 N 
ATOM      9  H4  UNL     1      -9.502 -31.533   8.935  1.00  0.00     0.161 HD
BRANCH   8  10
HETATM   10  C7  UNL     1     -10.325 -30.538   7.252  1.00  0.00     0.126 C 
BRANCH  10  11
HETATM   11  C8  UNL     1      -9.158 -29.604   7.147  1.00  0.00     0.003 A 
HETATM   12  C9  UNL     1      -8.893 -29.153   5.706  1.00  0.00     0.007 A 
HETATM   13  C10 UNL     1      -7.907 -29.978   6.444  1.00  0.00     0.007 A 
ENDBRANCH  10  11
ENDBRANCH   8  10
ENDBRANCH   7   8
BRANCH   1  14
HETATM   14  N2  UNL     1     -10.452 -33.732  10.218  1.00  0.00    -0.306 N 
ATOM     15  H2  UNL     1      -9.440 -33.850  10.257  1.00  0.00     0.186 HD
BRANCH  14  16
HETATM   16  N1  UNL     1     -11.076 -33.493  11.419  1.00  0.00    -0.341 N 
HETATM   17  C1  UNL     1     -11.592 -32.166  11.688  1.00  0.00     0.167 C 
ATOM     18  H1  UNL     1     -11.175 -34.238  12.109  1.00  0.00     0.179 HD
ENDBRANCH  14  16
ENDBRANCH   1  14
TORSDOF 5
ENDMDL
MODEL 4
REMARK VINA RESULT: -5.332023097      1.910      4.674
REMARK  5 active torsions:
REMARK  status: ('A' for Active; 'I' for Inactive)
REMARK    1  A    between atoms: N1_2  and  N2_4 
REMARK    2  A    between atoms: N2_4  and  C2_6 
REMARK    3  A    between atoms: C6_12  and  N4_13 
REMARK    4  A    between atoms: N4_13  and  C7_15 
REMARK    5  A    between atoms: C7_15  and  C8_16 
ROOT
HETATM    1  C2  UNL     1     -10.613 -30.266   9.172  1.00  0.00     0.068 C 
HETATM    2  C3  UNL     1     -10.715 -28.858   8.644  1.00  0.00     0.064 C 
HETATM    3  C4  UNL     1     -10.024 -28.834   7.303  1.00  0.00     0.026 C 
HETATM    4  C5  UNL     1     -10.785 -29.819   6.411  1.00  0.00     0.121 C 
HETATM    5  N3  UNL     1     -10.565 -31.156   6.938  1.00  0.00    -0.375 N 
ATOM      6  H3  UNL     1     -10.472 -31.943   6.297  1.00  0.00     0.161 HD
HETATM    7  C6  UNL     1     -10.486 -31.356   8.231  1.00  0.00     0.121 C 
ENDROOT
BRANCH   7   8
HETATM    8  N4  UNL     1     -10.265 -32.691   8.624  1.00  0.00    -0.374 N 
ATOM      9  H4  UNL     1      -9.319 -32.975   8.883  1.00  0.00     0.161 HD
BRANCH   8  10
HETATM   10  C7  UNL     1     -11.313 -33.665   8.674  1.00  0.00     0.126 C 
BRANCH  10  11
HETATM   11  C8  UNL     1     -11.345 -34.629   7.526  1.00  0.00     0.003 A 
HETATM   12  C9  UNL     1     -12.608 -34.483   6.670  1.00  0.00     0.007 A 
HETATM   13  C10 UNL     1     -12.342 -35.723   7.440  1.00  0.00     0.007 A 
ENDBRANCH  10  11
ENDBRANCH   8  10
ENDBRANCH   7   8
BRANCH   1  14
HETATM   14  N2  UNL     1     -10.651 -30.389  10.441  1.00  0.00    -0.306 N 
ATOM     15  H2  UNL     1      -9.777 -30.205  10.933  1.00  0.00     0.186 HD
BRANCH  14  16
HETATM   16  N1  UNL     1     -11.722 -30.738  11.228  1.00  0.00    -0.341 N 
HETATM   17  C1  UNL     1     -11.683 -31.997  11.944  1.00  0.00     0.167 C 
ATOM     18  H1  UNL     1     -12.530 -30.121  11.307  1.00  0.00     0.179 HD
ENDBRANCH  14  16
ENDBRANCH   1  14
TORSDOF 5
ENDMDL
MODEL 5
REMARK VINA RESULT: -5.324316791      2.054      3.181
REMARK  5 active torsions:
REMARK  status: ('A' for Active; 'I' for Inactive)
REMARK    1  A    between atoms: N1_2  and  N2_4 
REMARK    2  A    between atoms: N2_4  and  C2_6 
REMARK    3  A    between atoms: C6_12  and  N4_13 
REMARK    4  A    between atoms: N4_13  and  C7_15 
REMARK    5  A    between atoms: C7_15  and  C8_16 
ROOT
HETATM    1  C2  UNL     1     -10.513 -33.562  11.249  1.00  0.00     0.068 C 
HETATM    2  C3  UNL     1      -9.776 -34.789  11.721  1.00  0.00     0.064 C 
HETATM    3  C4  UNL     1      -8.534 -34.916  10.873  1.00  0.00     0.026 C 
HETATM    4  C5  UNL     1      -7.715 -33.646  11.120  1.00  0.00     0.121 C 
HETATM    5  N3  UNL     1      -8.454 -32.526  10.562  1.00  0.00    -0.375 N 
ATOM      6  H3  UNL     1      -7.950 -31.759  10.117  1.00  0.00     0.161 HD
HETATM    7  C6  UNL     1      -9.763 -32.494  10.626  1.00  0.00     0.121 C 
ENDROOT
BRANCH   7   8
HETATM    8  N4  UNL     1     -10.370 -31.363  10.046  1.00  0.00    -0.374 N 
ATOM      9  H4  UNL     1     -10.901 -30.730  10.645  1.00  0.00     0.161 HD
BRANCH   8  10
HETATM   10  C7  UNL     1     -10.272 -31.066   8.648  1.00  0.00     0.126 C 
BRANCH  10  11
HETATM   11  C8  UNL     1      -9.651 -29.742   8.319  1.00  0.00     0.003 A 
HETATM   12  C9  UNL     1     -10.684 -28.701   7.876  1.00  0.00     0.007 A 
HETATM   13  C10 UNL     1      -9.644 -29.193   6.941  1.00  0.00     0.007 A 
ENDBRANCH  10  11
ENDBRANCH   8  10
ENDBRANCH   7   8
BRANCH   1  14
HETATM   14  N2  UNL     1     -11.774 -33.560  11.444  1.00  0.00    -0.306 N 
ATOM     15  H2  UNL     1     -12.095 -33.064  12.274  1.00  0.00     0.186 HD
BRANCH  14  16
HETATM   16  N1  UNL     1     -12.752 -34.144  10.675  1.00  0.00    -0.341 N 
HETATM   17  C1  UNL     1     -12.546 -34.252   9.245  1.00  0.00     0.167 C 
ATOM     18  H1  UNL     1     -13.607 -34.495  11.104  1.00  0.00     0.179 HD
ENDBRANCH  14  16
ENDBRANCH   1  14
TORSDOF 5
ENDMDL
