MODEL 1
REMARK VINA RESULT: -6.990098706      0.000      0.000
REMARK  5 active torsions:
REMARK  status: ('A' for Active; 'I' for Inactive)
REMARK    1  A    between atoms: N1_2  and  C3_4 
REMARK    2  A    between atoms: C3_4  and  C4_5 
REMARK    3  A    between atoms: C4_5  and  O1_6 
REMARK    4  A    between atoms: C4_5  and  C5_8 
REMARK    5  A    between atoms: C4_5  and  C11_14 
ROOT
HETATM    1  C4  UNL     1     -27.624 -18.852  10.711  1.00  0.00     0.159 C 
ENDROOT
BRANCH   1   2
HETATM    2  C3  UNL     1     -28.897 -19.109  11.472  1.00  0.00     0.106 C 
BRANCH   2   3
HETATM    3  N1  UNL     1     -29.287 -20.436  11.618  1.00  0.00    -0.398 N 
HETATM    4  C1  UNL     1     -30.425 -20.871  10.883  1.00  0.00     0.148 C 
HETATM    5  C2  UNL     1     -28.972 -21.149  12.777  1.00  0.00     0.148 C 
ENDBRANCH   2   3
ENDBRANCH   1   2
BRANCH   1   6
HETATM    6  O1  UNL     1     -27.251 -19.983   9.991  1.00  0.00    -0.373 OA
ATOM      7  H1  UNL     1     -26.480 -20.384  10.376  1.00  0.00     0.212 HD
ENDBRANCH   1   6
BRANCH   1   8
HETATM    8  C5  UNL     1     -26.531 -18.524  11.705  1.00  0.00    -0.013 A 
HETATM    9  C6  UNL     1     -26.519 -17.279  12.292  1.00  0.00     0.011 A 
HETATM   10  C7  UNL     1     -25.512 -17.010  13.196  1.00  0.00     0.001 A 
HETATM   11  C8  UNL     1     -24.566 -17.970  13.482  1.00  0.00     0.000 A 
HETATM   12  C9  UNL     1     -24.587 -19.201  12.895  1.00  0.00     0.001 A 
HETATM   13  C10 UNL     1     -25.600 -19.483  11.981  1.00  0.00     0.011 A 
ENDBRANCH   1   8
BRANCH   1  14
HETATM   14  C11 UNL     1     -27.719 -17.644   9.854  1.00  0.00     0.055 A 
HETATM   15  C12 UNL     1     -26.794 -17.172   8.971  1.00  0.00     0.032 A 
HETATM   16  C13 UNL     1     -27.291 -16.025   8.379  1.00  0.00     0.047 A 
HETATM   17  C14 UNL     1     -28.534 -15.830   8.934  1.00  0.00     0.116 A 
HETATM   18  N2  UNL     1     -29.409 -14.762   8.618  1.00  0.00    -0.083 NA
HETATM   19  N3  UNL     1     -28.768 -16.824   9.824  1.00  0.00    -0.345 N 
ATOM     20  H3  UNL     1     -29.614 -16.928  10.384  1.00  0.00     0.167 HD
ENDBRANCH   1  14
TORSDOF 5
ENDMDL
MODEL 2
REMARK VINA RESULT: -6.984167400      0.357      1.187
REMARK  5 active torsions:
REMARK  status: ('A' for Active; 'I' for Inactive)
REMARK    1  A    between atoms: N1_2  and  C3_4 
REMARK    2  A    between atoms: C3_4  and  C4_5 
REMARK    3  A    between atoms: C4_5  and  O1_6 
REMARK    4  A    between atoms: C4_5  and  C5_8 
REMARK    5  A    between atoms: C4_5  and  C11_14 
ROOT
HETATM    1  C4  UNL     1     -27.479 -18.955  10.950  1.00  0.00     0.159 C 
ENDROOT
BRANCH   1   2
HETATM    2  C3  UNL     1     -28.748 -19.156  11.734  1.00  0.00     0.106 C 
BRANCH   2   3
HETATM    3  N1  UNL     1     -29.154 -20.469  11.951  1.00  0.00    -0.398 N 
HETATM    4  C1  UNL     1     -30.314 -20.922  11.262  1.00  0.00     0.148 C 
HETATM    5  C2  UNL     1     -28.824 -21.130  13.136  1.00  0.00     0.148 C 
ENDBRANCH   2   3
ENDBRANCH   1   2
BRANCH   1   6
HETATM    6  O1  UNL     1     -27.130 -20.124  10.280  1.00  0.00    -0.373 OA
ATOM      7  H1  UNL     1     -26.464 -19.947   9.627  1.00  0.00     0.212 HD
ENDBRANCH   1   6
BRANCH   1   8
HETATM    8  C5  UNL     1     -26.372 -18.599  11.919  1.00  0.00    -0.013 A 
HETATM    9  C6  UNL     1     -25.423 -19.549  12.221  1.00  0.00     0.011 A 
HETATM   10  C7  UNL     1     -24.425 -19.195  13.104  1.00  0.00     0.001 A 
HETATM   11  C8  UNL     1     -24.402 -17.929  13.650  1.00  0.00     0.000 A 
HETATM   12  C9  UNL     1     -25.346 -16.995  13.342  1.00  0.00     0.001 A 
HETATM   13  C10 UNL     1     -26.360 -17.342  12.451  1.00  0.00     0.011 A 
ENDBRANCH   1   8
BRANCH   1  14
HETATM   14  C11 UNL     1     -27.563 -17.787  10.039  1.00  0.00     0.055 A 
HETATM   15  C12 UNL     1     -26.830 -17.550   8.915  1.00  0.00     0.032 A 
HETATM   16  C13 UNL     1     -27.237 -16.348   8.365  1.00  0.00     0.047 A 
HETATM   17  C14 UNL     1     -28.229 -15.879   9.192  1.00  0.00     0.116 A 
HETATM   18  N2  UNL     1     -28.937 -14.666   9.009  1.00  0.00    -0.083 NA
HETATM   19  N3  UNL     1     -28.407 -16.768  10.198  1.00  0.00    -0.345 N 
ATOM     20  H3  UNL     1     -29.081 -16.674  10.958  1.00  0.00     0.167 HD
ENDBRANCH   1  14
TORSDOF 5
ENDMDL
MODEL 3
REMARK VINA RESULT: -6.343424840      1.464      4.154
REMARK  5 active torsions:
REMARK  status: ('A' for Active; 'I' for Inactive)
REMARK    1  A    between atoms: N1_2  and  C3_4 
REMARK    2  A    between atoms: C3_4  and  C4_5 
REMARK    3  A    between atoms: C4_5  and  O1_6 
REMARK    4  A    between atoms: C4_5  and  C5_8 
REMARK    5  A    between atoms: C4_5  and  C11_14 
ROOT
HETATM    1  C4  UNL     1     -27.293 -17.988  11.245  1.00  0.00     0.159 C 
ENDROOT
BRANCH   1   2
HETATM    2  C3  UNL     1     -26.817 -18.015   9.817  1.00  0.00     0.106 C 
BRANCH   2   3
HETATM    3  N1  UNL     1     -27.550 -17.275   8.894  1.00  0.00    -0.398 N 
HETATM    4  C1  UNL     1     -28.011 -17.948   7.729  1.00  0.00     0.148 C 
HETATM    5  C2  UNL     1     -27.390 -15.890   8.804  1.00  0.00     0.148 C 
ENDBRANCH   2   3
ENDBRANCH   1   2
BRANCH   1   6
HETATM    6  O1  UNL     1     -27.830 -16.742  11.555  1.00  0.00    -0.373 OA
ATOM      7  H1  UNL     1     -28.715 -16.834  11.887  1.00  0.00     0.212 HD
ENDBRANCH   1   6
BRANCH   1   8
HETATM    8  C5  UNL     1     -26.108 -18.247  12.149  1.00  0.00    -0.013 A 
HETATM    9  C6  UNL     1     -25.467 -19.463  12.071  1.00  0.00     0.011 A 
HETATM   10  C7  UNL     1     -24.388 -19.669  12.905  1.00  0.00     0.001 A 
HETATM   11  C8  UNL     1     -23.988 -18.678  13.775  1.00  0.00     0.000 A 
HETATM   12  C9  UNL     1     -24.629 -17.477  13.843  1.00  0.00     0.001 A 
HETATM   13  C10 UNL     1     -25.721 -17.258  13.005  1.00  0.00     0.011 A 
ENDBRANCH   1   8
BRANCH   1  14
HETATM   14  C11 UNL     1     -28.235 -19.097  11.542  1.00  0.00     0.055 A 
HETATM   15  C12 UNL     1     -28.587 -20.133  10.730  1.00  0.00     0.032 A 
HETATM   16  C13 UNL     1     -29.484 -20.939  11.405  1.00  0.00     0.047 A 
HETATM   17  C14 UNL     1     -29.655 -20.355  12.637  1.00  0.00     0.116 A 
HETATM   18  N2  UNL     1     -30.496 -20.848  13.664  1.00  0.00    -0.083 NA
HETATM   19  N3  UNL     1     -28.887 -19.241  12.694  1.00  0.00    -0.345 N 
ATOM     20  H3  UNL     1     -28.819 -18.610  13.493  1.00  0.00     0.167 HD
ENDBRANCH   1  14
TORSDOF 5
ENDMDL
MODEL 4
REMARK VINA RESULT: -6.334986557      1.465      4.004
REMARK  5 active torsions:
REMARK  status: ('A' for Active; 'I' for Inactive)
REMARK    1  A    between atoms: N1_2  and  C3_4 
REMARK    2  A    between atoms: C3_4  and  C4_5 
REMARK    3  A    between atoms: C4_5  and  O1_6 
REMARK    4  A    between atoms: C4_5  and  C5_8 
REMARK    5  A    between atoms: C4_5  and  C11_14 
ROOT
HETATM    1  C4  UNL     1     -27.293 -17.986  11.215  1.00  0.00     0.159 C 
ENDROOT
BRANCH   1   2
HETATM    2  C3  UNL     1     -26.815 -18.034   9.789  1.00  0.00     0.106 C 
BRANCH   2   3
HETATM    3  N1  UNL     1     -27.547 -17.308   8.854  1.00  0.00    -0.398 N 
HETATM    4  C1  UNL     1     -27.992 -17.995   7.690  1.00  0.00     0.148 C 
HETATM    5  C2  UNL     1     -27.400 -15.923   8.754  1.00  0.00     0.148 C 
ENDBRANCH   2   3
ENDBRANCH   1   2
BRANCH   1   6
HETATM    6  O1  UNL     1     -27.829 -16.735  11.507  1.00  0.00    -0.373 OA
ATOM      7  H1  UNL     1     -28.778 -16.780  11.542  1.00  0.00     0.212 HD
ENDBRANCH   1   6
BRANCH   1   8
HETATM    8  C5  UNL     1     -26.109 -18.234  12.124  1.00  0.00    -0.013 A 
HETATM    9  C6  UNL     1     -25.719 -17.239  12.992  1.00  0.00     0.011 A 
HETATM   10  C7  UNL     1     -24.639 -17.495  13.810  1.00  0.00     0.001 A 
HETATM   11  C8  UNL     1     -23.992 -18.711  13.741  1.00  0.00     0.000 A 
HETATM   12  C9  UNL     1     -24.387 -19.689  12.878  1.00  0.00     0.001 A 
HETATM   13  C10 UNL     1     -25.478 -19.441  12.047  1.00  0.00     0.011 A 
ENDBRANCH   1   8
BRANCH   1  14
HETATM   14  C11 UNL     1     -28.236 -19.090  11.526  1.00  0.00     0.055 A 
HETATM   15  C12 UNL     1     -28.599 -20.129  10.723  1.00  0.00     0.032 A 
HETATM   16  C13 UNL     1     -29.493 -20.929  11.409  1.00  0.00     0.047 A 
HETATM   17  C14 UNL     1     -29.652 -20.337  12.640  1.00  0.00     0.116 A 
HETATM   18  N2  UNL     1     -30.487 -20.821  13.677  1.00  0.00    -0.083 NA
HETATM   19  N3  UNL     1     -28.879 -19.225  12.685  1.00  0.00    -0.345 N 
ATOM     20  H3  UNL     1     -28.803 -18.590  13.479  1.00  0.00     0.167 HD
ENDBRANCH   1  14
TORSDOF 5
ENDMDL
MODEL 5
REMARK VINA RESULT: -6.334827563      2.052      5.188
REMARK  5 active torsions:
REMARK  status: ('A' for Active; 'I' for Inactive)
REMARK    1  A    between atoms: N1_2  and  C3_4 
REMARK    2  A    between atoms: C3_4  and  C4_5 
REMARK    3  A    between atoms: C4_5  and  O1_6 
REMARK    4  A    between atoms: C4_5  and  C5_8 
REMARK    5  A    between atoms: C4_5  and  C11_14 
ROOT
HETATM    1  C4  UNL     1     -26.670 -18.521  11.027  1.00  0.00     0.159 C 
ENDROOT
BRANCH   1   2
HETATM    2  C3  UNL     1     -27.111 -17.092  10.853  1.00  0.00     0.106 C 
BRANCH   2   3
HETATM    3  N1  UNL     1     -27.769 -16.775   9.669  1.00  0.00    -0.398 N 
HETATM    4  C1  UNL     1     -27.220 -15.734   8.869  1.00  0.00     0.148 C 
HETATM    5  C2  UNL     1     -29.134 -17.034   9.521  1.00  0.00     0.148 C 
ENDBRANCH   2   3
ENDBRANCH   1   2
BRANCH   1   6
HETATM    6  O1  UNL     1     -26.142 -19.015   9.838  1.00  0.00    -0.373 OA
ATOM      7  H1  UNL     1     -26.464 -19.893   9.670  1.00  0.00     0.212 HD
ENDBRANCH   1   6
BRANCH   1   8
HETATM    8  C5  UNL     1     -27.877 -19.350  11.407  1.00  0.00    -0.013 A 
HETATM    9  C6  UNL     1     -28.239 -20.405  10.600  1.00  0.00     0.011 A 
HETATM   10  C7  UNL     1     -29.341 -21.144  10.974  1.00  0.00     0.001 A 
HETATM   11  C8  UNL     1     -30.038 -20.817  12.117  1.00  0.00     0.000 A 
HETATM   12  C9  UNL     1     -29.671 -19.770  12.909  1.00  0.00     0.001 A 
HETATM   13  C10 UNL     1     -28.558 -19.016  12.541  1.00  0.00     0.011 A 
ENDBRANCH   1   8
BRANCH   1  14
HETATM   14  C11 UNL     1     -25.736 -18.683  12.168  1.00  0.00     0.055 A 
HETATM   15  C12 UNL     1     -25.178 -17.705  12.937  1.00  0.00     0.032 A 
HETATM   16  C13 UNL     1     -24.375 -18.297  13.893  1.00  0.00     0.047 A 
HETATM   17  C14 UNL     1     -24.469 -19.650  13.673  1.00  0.00     0.116 A 
HETATM   18  N2  UNL     1     -23.804 -20.648  14.426  1.00  0.00    -0.083 NA
HETATM   19  N3  UNL     1     -25.299 -19.857  12.622  1.00  0.00    -0.345 N 
ATOM     20  H3  UNL     1     -25.551 -20.768  12.239  1.00  0.00     0.167 HD
ENDBRANCH   1  14
TORSDOF 5
ENDMDL
