MODEL 1
REMARK VINA RESULT: -5.723483826      0.000      0.000
REMARK  3 active torsions:
REMARK  status: ('A' for Active; 'I' for Inactive)
REMARK    1  A    between atoms: N1_2  and  C2_4 
REMARK    2  A    between atoms: C2_4  and  C3_6 
REMARK    3  A    between atoms: C3_6  and  C4_7 
ROOT
HETATM    1  C3  UNL     1     -28.882  18.184 -20.296  1.00  0.00     0.113 C 
HETATM    2  S2  UNL     1     -29.566  16.589 -20.796  1.00  0.00    -0.140 SA
HETATM    3  C10 UNL     1     -29.778  15.428 -19.467  1.00  0.00     0.076 C 
HETATM    4  C11 UNL     1     -28.866  15.615 -18.300  1.00  0.00     0.020 C 
HETATM    5  C12 UNL     1     -27.522  16.182 -18.661  1.00  0.00     0.076 C 
HETATM    6  S3  UNL     1     -27.725  17.942 -18.973  1.00  0.00    -0.140 SA
ENDROOT
BRANCH   1   7
HETATM    7  C2  UNL     1     -30.042  18.972 -19.740  1.00  0.00     0.102 C 
HETATM    8  S1  UNL     1     -29.889  19.947 -18.454  1.00  0.00    -0.063 SA
BRANCH   7   9
HETATM    9  N1  UNL     1     -31.306  18.846 -20.377  1.00  0.00    -0.387 N 
HETATM   10  C1  UNL     1     -32.458  19.574 -19.893  1.00  0.00     0.147 C 
ATOM     11  H1  UNL     1     -31.402  18.235 -21.188  1.00  0.00     0.159 HD
ENDBRANCH   7   9
ENDBRANCH   1   7
BRANCH   1  12
HETATM   12  C4  UNL     1     -28.397  18.899 -21.481  1.00  0.00     0.029 C 
HETATM   13  C5  UNL     1     -27.384  20.025 -21.219  1.00  0.00     0.009 C 
HETATM   14  C6  UNL     1     -26.941  19.772 -22.672  1.00  0.00     0.010 C 
HETATM   15  C7  UNL     1     -27.426  18.328 -22.428  1.00  0.00    -0.041 C 
HETATM   16  C8  UNL     1     -28.039  17.785 -23.699  1.00  0.00     0.015 C 
HETATM   17  C9  UNL     1     -26.279  17.516 -21.965  1.00  0.00     0.015 C 
ENDBRANCH   1  12
TORSDOF 3
ENDMDL
MODEL 2
REMARK VINA RESULT: -5.706383474      1.120      1.229
REMARK  3 active torsions:
REMARK  status: ('A' for Active; 'I' for Inactive)
REMARK    1  A    between atoms: N1_2  and  C2_4 
REMARK    2  A    between atoms: C2_4  and  C3_6 
REMARK    3  A    between atoms: C3_6  and  C4_7 
ROOT
HETATM    1  C3  UNL     1     -28.942  18.154 -20.221  1.00  0.00     0.113 C 
HETATM    2  S2  UNL     1     -29.556  16.540 -20.750  1.00  0.00    -0.140 SA
HETATM    3  C10 UNL     1     -29.756  15.360 -19.436  1.00  0.00     0.076 C 
HETATM    4  C11 UNL     1     -28.880  15.569 -18.246  1.00  0.00     0.020 C 
HETATM    5  C12 UNL     1     -27.548  16.188 -18.571  1.00  0.00     0.076 C 
HETATM    6  S3  UNL     1     -27.808  17.942 -18.873  1.00  0.00    -0.140 SA
ENDROOT
BRANCH   1   7
HETATM    7  C2  UNL     1     -30.142  18.895 -19.687  1.00  0.00     0.102 C 
HETATM    8  S1  UNL     1     -31.589  18.839 -20.416  1.00  0.00    -0.063 SA
BRANCH   7   9
HETATM    9  N1  UNL     1     -29.984  19.664 -18.502  1.00  0.00    -0.387 N 
HETATM   10  C1  UNL     1     -30.019  21.109 -18.544  1.00  0.00     0.147 C 
ATOM     11  H1  UNL     1     -29.844  19.190 -17.610  1.00  0.00     0.159 HD
ENDBRANCH   7   9
ENDBRANCH   1   7
BRANCH   1  12
HETATM   12  C4  UNL     1     -28.455  18.897 -21.389  1.00  0.00     0.029 C 
HETATM   13  C5  UNL     1     -27.467  20.036 -21.096  1.00  0.00     0.009 C 
HETATM   14  C6  UNL     1     -27.001  19.815 -22.546  1.00  0.00     0.010 C 
HETATM   15  C7  UNL     1     -27.463  18.359 -22.332  1.00  0.00    -0.041 C 
HETATM   16  C8  UNL     1     -28.049  17.826 -23.619  1.00  0.00     0.015 C 
HETATM   17  C9  UNL     1     -26.306  17.561 -21.867  1.00  0.00     0.015 C 
ENDBRANCH   1  12
TORSDOF 3
ENDMDL
MODEL 3
REMARK VINA RESULT: -5.603965679      1.929      2.715
REMARK  3 active torsions:
REMARK  status: ('A' for Active; 'I' for Inactive)
REMARK    1  A    between atoms: N1_2  and  C2_4 
REMARK    2  A    between atoms: C2_4  and  C3_6 
REMARK    3  A    between atoms: C3_6  and  C4_7 
ROOT
HETATM    1  C3  UNL     1     -28.279  18.287 -20.807  1.00  0.00     0.113 C 
HETATM    2  S2  UNL     1     -27.694  16.786 -19.989  1.00  0.00    -0.140 SA
HETATM    3  C10 UNL     1     -28.676  16.274 -18.599  1.00  0.00     0.076 C 
HETATM    4  C11 UNL     1     -29.426  17.363 -17.907  1.00  0.00     0.020 C 
HETATM    5  C12 UNL     1     -28.741  18.700 -17.953  1.00  0.00     0.076 C 
HETATM    6  S3  UNL     1     -28.971  19.387 -19.600  1.00  0.00    -0.140 SA
ENDROOT
BRANCH   1   7
HETATM    7  C2  UNL     1     -29.403  17.849 -21.713  1.00  0.00     0.102 C 
HETATM    8  S1  UNL     1     -30.960  18.135 -21.362  1.00  0.00    -0.063 SA
BRANCH   7   9
HETATM    9  N1  UNL     1     -29.070  17.164 -22.913  1.00  0.00    -0.387 N 
HETATM   10  C1  UNL     1     -30.063  16.936 -23.939  1.00  0.00     0.147 C 
ATOM     11  H1  UNL     1     -28.118  16.828 -23.053  1.00  0.00     0.159 HD
ENDBRANCH   7   9
ENDBRANCH   1   7
BRANCH   1  12
HETATM   12  C4  UNL     1     -27.214  18.822 -21.662  1.00  0.00     0.029 C 
HETATM   13  C5  UNL     1     -27.308  20.319 -21.995  1.00  0.00     0.009 C 
HETATM   14  C6  UNL     1     -25.788  20.221 -22.216  1.00  0.00     0.010 C 
HETATM   15  C7  UNL     1     -25.846  19.076 -21.185  1.00  0.00    -0.041 C 
HETATM   16  C8  UNL     1     -24.844  18.010 -21.565  1.00  0.00     0.015 C 
HETATM   17  C9  UNL     1     -25.587  19.638 -19.840  1.00  0.00     0.015 C 
ENDBRANCH   1  12
TORSDOF 3
ENDMDL
MODEL 4
REMARK VINA RESULT: -5.504088740      1.812      2.066
REMARK  3 active torsions:
REMARK  status: ('A' for Active; 'I' for Inactive)
REMARK    1  A    between atoms: N1_2  and  C2_4 
REMARK    2  A    between atoms: C2_4  and  C3_6 
REMARK    3  A    between atoms: C3_6  and  C4_7 
ROOT
HETATM    1  C3  UNL     1     -28.186  18.896 -19.813  1.00  0.00     0.113 C 
HETATM    2  S2  UNL     1     -29.398  18.450 -21.075  1.00  0.00    -0.140 SA
HETATM    3  C10 UNL     1     -30.359  17.004 -20.696  1.00  0.00     0.076 C 
HETATM    4  C11 UNL     1     -29.707  16.020 -19.783  1.00  0.00     0.020 C 
HETATM    5  C12 UNL     1     -28.209  15.977 -19.904  1.00  0.00     0.076 C 
HETATM    6  S3  UNL     1     -27.540  17.422 -19.066  1.00  0.00    -0.140 SA
ENDROOT
BRANCH   1   7
HETATM    7  C2  UNL     1     -28.955  19.639 -18.749  1.00  0.00     0.102 C 
HETATM    8  S1  UNL     1     -29.482  18.915 -17.397  1.00  0.00    -0.063 SA
BRANCH   7   9
HETATM    9  N1  UNL     1     -29.219  21.020 -18.952  1.00  0.00    -0.387 N 
HETATM   10  C1  UNL     1     -30.283  21.687 -18.236  1.00  0.00     0.147 C 
ATOM     11  H1  UNL     1     -28.650  21.549 -19.613  1.00  0.00     0.159 HD
ENDBRANCH   7   9
ENDBRANCH   1   7
BRANCH   1  12
HETATM   12  C4  UNL     1     -27.212  19.834 -20.382  1.00  0.00     0.029 C 
HETATM   13  C5  UNL     1     -25.844  19.888 -19.685  1.00  0.00     0.009 C 
HETATM   14  C6  UNL     1     -25.331  20.404 -21.041  1.00  0.00     0.010 C 
HETATM   15  C7  UNL     1     -26.493  19.587 -21.642  1.00  0.00    -0.041 C 
HETATM   16  C8  UNL     1     -27.056  20.321 -22.836  1.00  0.00     0.015 C 
HETATM   17  C9  UNL     1     -25.990  18.240 -21.994  1.00  0.00     0.015 C 
ENDBRANCH   1  12
TORSDOF 3
ENDMDL
MODEL 5
REMARK VINA RESULT: -5.497671701      1.840      2.686
REMARK  3 active torsions:
REMARK  status: ('A' for Active; 'I' for Inactive)
REMARK    1  A    between atoms: N1_2  and  C2_4 
REMARK    2  A    between atoms: C2_4  and  C3_6 
REMARK    3  A    between atoms: C3_6  and  C4_7 
ROOT
HETATM    1  C3  UNL     1     -28.155  18.289 -21.046  1.00  0.00     0.113 C 
HETATM    2  S2  UNL     1     -27.611  16.761 -20.252  1.00  0.00    -0.140 SA
HETATM    3  C10 UNL     1     -28.707  16.155 -18.991  1.00  0.00     0.076 C 
HETATM    4  C11 UNL     1     -29.548  17.189 -18.320  1.00  0.00     0.020 C 
HETATM    5  C12 UNL     1     -28.897  18.542 -18.233  1.00  0.00     0.076 C 
HETATM    6  S3  UNL     1     -28.988  19.310 -19.857  1.00  0.00    -0.140 SA
ENDROOT
BRANCH   1   7
HETATM    7  C2  UNL     1     -29.176  17.876 -22.077  1.00  0.00     0.102 C 
HETATM    8  S1  UNL     1     -28.752  17.260 -23.516  1.00  0.00    -0.063 SA
BRANCH   7   9
HETATM    9  N1  UNL     1     -30.552  18.039 -21.763  1.00  0.00    -0.387 N 
HETATM   10  C1  UNL     1     -31.439  16.898 -21.695  1.00  0.00     0.147 C 
ATOM     11  H1  UNL     1     -30.920  18.972 -21.582  1.00  0.00     0.159 HD
ENDBRANCH   7   9
ENDBRANCH   1   7
BRANCH   1  12
HETATM   12  C4  UNL     1     -27.028  18.892 -21.766  1.00  0.00     0.029 C 
HETATM   13  C5  UNL     1     -27.146  20.396 -22.060  1.00  0.00     0.009 C 
HETATM   14  C6  UNL     1     -25.608  20.360 -22.122  1.00  0.00     0.010 C 
HETATM   15  C7  UNL     1     -25.729  19.178 -21.138  1.00  0.00    -0.041 C 
HETATM   16  C8  UNL     1     -24.651  18.163 -21.443  1.00  0.00     0.015 C 
HETATM   17  C9  UNL     1     -25.635  19.701 -19.757  1.00  0.00     0.015 C 
ENDBRANCH   1  12
TORSDOF 3
ENDMDL
