MODEL 1
REMARK VINA RESULT: -7.506848543      0.000      0.000
REMARK  6 active torsions:
REMARK  status: ('A' for Active; 'I' for Inactive)
REMARK    1  A    between atoms: C2_2  and  C3_3 
REMARK    2  A    between atoms: C7_7  and  C8_8 
REMARK    3  A    between atoms: C9_11  and  C10_12 
REMARK       I    between atoms: N1_18  and  C13_19 
REMARK    4  A    between atoms: C13_19  and  C14_21 
REMARK    5  A    between atoms: C15_23  and  C17_25 
REMARK    6  A    between atoms: C17_25  and  O7_26 
ROOT
HETATM    1  C1  UNL     1       3.706   4.298 -14.186  1.00  0.00     0.021 C 
HETATM    2  C2  UNL     1       2.884   3.281 -14.934  1.00  0.00     0.021 C 
HETATM    3  C11 UNL     1       1.828   2.830 -13.883  1.00  0.00     0.199 C 
HETATM    4  F1  UNL     1       2.406   2.588 -12.666  1.00  0.00    -0.247 F 
HETATM    5  C12 UNL     1       1.013   4.130 -13.741  1.00  0.00     0.165 C 
HETATM    6  N1  UNL     1       1.340   4.939 -14.930  1.00  0.00    -0.331 N 
HETATM    7  C13 UNL     1       1.080   6.321 -15.010  1.00  0.00     0.282 C 
HETATM    8  O5  UNL     1       1.427   7.040 -16.013  1.00  0.00    -0.265 OA
HETATM    9  C15 UNL     1       1.904   3.978 -15.841  1.00  0.00     0.063 C 
HETATM   10  C16 UNL     1       0.726   3.039 -16.175  1.00  0.00     0.042 C 
ENDROOT
BRANCH   2  11
HETATM   11  C3  UNL     1       3.625   2.168 -15.495  1.00  0.00     0.019 C 
HETATM   12  C4  UNL     1       5.049   1.966 -15.032  1.00  0.00     0.006 C 
HETATM   13  C5  UNL     1       4.970   0.916 -13.930  1.00  0.00     0.012 C 
HETATM   14  C7  UNL     1       5.389   0.781 -15.944  1.00  0.00     0.096 C 
HETATM   15  C6  UNL     1       4.436   0.046 -15.045  1.00  0.00     0.015 C 
HETATM   16  C9  UNL     1       3.106   0.763 -15.270  1.00  0.00     0.097 C 
BRANCH  16  17
HETATM   17  C10 UNL     1       2.424   0.188 -16.456  1.00  0.00     0.177 C 
HETATM   18  O3  UNL     1       2.131   0.836 -17.468  1.00  0.00    -0.648 OA
HETATM   19  O4  UNL     1       2.112  -1.172 -16.390  1.00  0.00    -0.648 OA
ENDBRANCH  16  17
BRANCH  14  20
HETATM   20  C8  UNL     1       6.769   0.359 -16.012  1.00  0.00     0.177 C 
HETATM   21  O1  UNL     1       7.683   1.241 -15.804  1.00  0.00    -0.648 OA
HETATM   22  O2  UNL     1       7.273  -0.903 -16.277  1.00  0.00    -0.648 OA
ENDBRANCH  14  20
ENDBRANCH   2  11
BRANCH   9  23
HETATM   23  C17 UNL     1       2.401   4.451 -17.141  1.00  0.00     0.195 C 
BRANCH  23  24
HETATM   24  O7  UNL     1       1.774   3.659 -18.145  1.00  0.00    -0.398 OA
ATOM     25  H7  UNL     1       2.013   4.031 -18.986  1.00  0.00     0.209 HD
ENDBRANCH  23  24
ENDBRANCH   9  23
BRANCH   7  26
HETATM   26  C14 UNL     1       0.396   7.060 -13.976  1.00  0.00     0.332 C 
HETATM   27  O6  UNL     1      -0.130   8.172 -14.169  1.00  0.00    -0.297 OA
ENDBRANCH   7  26
TORSDOF 6
ENDMDL
MODEL 2
REMARK VINA RESULT: -7.187761020      3.434      5.053
REMARK  6 active torsions:
REMARK  status: ('A' for Active; 'I' for Inactive)
REMARK    1  A    between atoms: C2_2  and  C3_3 
REMARK    2  A    between atoms: C7_7  and  C8_8 
REMARK    3  A    between atoms: C9_11  and  C10_12 
REMARK       I    between atoms: N1_18  and  C13_19 
REMARK    4  A    between atoms: C13_19  and  C14_21 
REMARK    5  A    between atoms: C15_23  and  C17_25 
REMARK    6  A    between atoms: C17_25  and  O7_26 
ROOT
HETATM    1  C1  UNL     1       2.047   5.632 -16.525  1.00  0.00     0.021 C 
HETATM    2  C2  UNL     1       1.759   5.420 -15.062  1.00  0.00     0.021 C 
HETATM    3  C11 UNL     1       3.175   5.396 -14.417  1.00  0.00     0.199 C 
HETATM    4  F1  UNL     1       4.039   4.617 -15.138  1.00  0.00    -0.247 F 
HETATM    5  C12 UNL     1       3.600   6.860 -14.640  1.00  0.00     0.165 C 
HETATM    6  N1  UNL     1       2.355   7.601 -14.916  1.00  0.00    -0.331 N 
HETATM    7  C13 UNL     1       2.340   8.879 -15.507  1.00  0.00     0.282 C 
HETATM    8  O5  UNL     1       1.258   9.495 -15.812  1.00  0.00    -0.265 OA
HETATM    9  C15 UNL     1       1.328   6.717 -14.429  1.00  0.00     0.063 C 
HETATM   10  C16 UNL     1       1.563   6.670 -12.904  1.00  0.00     0.042 C 
ENDROOT
BRANCH   2  11
HETATM   11  C3  UNL     1       0.979   4.240 -14.742  1.00  0.00     0.019 C 
HETATM   12  C4  UNL     1       0.636   3.295 -15.871  1.00  0.00     0.006 C 
HETATM   13  C5  UNL     1       1.692   2.198 -15.813  1.00  0.00     0.012 C 
HETATM   14  C7  UNL     1      -0.224   2.319 -15.060  1.00  0.00     0.096 C 
HETATM   15  C6  UNL     1       1.095   1.946 -14.446  1.00  0.00     0.015 C 
HETATM   16  C9  UNL     1       1.550   3.235 -13.764  1.00  0.00     0.097 C 
BRANCH  16  17
HETATM   17  C10 UNL     1       0.950   3.321 -12.409  1.00  0.00     0.177 C 
HETATM   18  O3  UNL     1      -0.127   3.877 -12.164  1.00  0.00    -0.648 OA
HETATM   19  O4  UNL     1       1.673   2.724 -11.375  1.00  0.00    -0.648 OA
ENDBRANCH  16  17
BRANCH  14  20
HETATM   20  C8  UNL     1      -0.976   1.322 -15.786  1.00  0.00     0.177 C 
HETATM   21  O1  UNL     1      -1.600   0.422 -15.110  1.00  0.00    -0.648 OA
HETATM   22  O2  UNL     1      -1.129   1.187 -17.155  1.00  0.00    -0.648 OA
ENDBRANCH  14  20
ENDBRANCH   2  11
BRANCH   9  23
HETATM   23  C17 UNL     1      -0.076   7.118 -14.590  1.00  0.00     0.195 C 
BRANCH  23  24
HETATM   24  O7  UNL     1      -0.250   8.343 -13.885  1.00  0.00    -0.398 OA
ATOM     25  H7  UNL     1      -0.082   8.165 -12.967  1.00  0.00     0.209 HD
ENDBRANCH  23  24
ENDBRANCH   9  23
BRANCH   7  26
HETATM   26  C14 UNL     1       3.538   9.620 -15.822  1.00  0.00     0.332 C 
HETATM   27  O6  UNL     1       3.532  10.672 -16.488  1.00  0.00    -0.297 OA
ENDBRANCH   7  26
TORSDOF 6
ENDMDL
MODEL 3
REMARK VINA RESULT: -7.137392655      2.800      4.539
REMARK  6 active torsions:
REMARK  status: ('A' for Active; 'I' for Inactive)
REMARK    1  A    between atoms: C2_2  and  C3_3 
REMARK    2  A    between atoms: C7_7  and  C8_8 
REMARK    3  A    between atoms: C9_11  and  C10_12 
REMARK       I    between atoms: N1_18  and  C13_19 
REMARK    4  A    between atoms: C13_19  and  C14_21 
REMARK    5  A    between atoms: C15_23  and  C17_25 
REMARK    6  A    between atoms: C17_25  and  O7_26 
ROOT
HETATM    1  C1  UNL     1       0.534   3.145 -12.934  1.00  0.00     0.021 C 
HETATM    2  C2  UNL     1       1.446   3.871 -13.888  1.00  0.00     0.021 C 
HETATM    3  C11 UNL     1       0.697   5.208 -14.153  1.00  0.00     0.199 C 
HETATM    4  F1  UNL     1      -0.634   4.997 -14.393  1.00  0.00    -0.247 F 
HETATM    5  C12 UNL     1       0.803   5.860 -12.761  1.00  0.00     0.165 C 
HETATM    6  N1  UNL     1       1.885   5.139 -12.063  1.00  0.00    -0.331 N 
HETATM    7  C13 UNL     1       2.063   5.193 -10.668  1.00  0.00     0.282 C 
HETATM    8  O5  UNL     1       2.957   4.512 -10.051  1.00  0.00    -0.265 OA
HETATM    9  C15 UNL     1       2.594   4.488 -13.134  1.00  0.00     0.063 C 
HETATM   10  C16 UNL     1       3.201   5.651 -13.946  1.00  0.00     0.042 C 
ENDROOT
BRANCH   2  11
HETATM   11  C3  UNL     1       1.767   3.158 -15.110  1.00  0.00     0.019 C 
HETATM   12  C4  UNL     1       1.151   1.793 -15.312  1.00  0.00     0.006 C 
HETATM   13  C5  UNL     1      -0.080   2.031 -16.177  1.00  0.00     0.012 C 
HETATM   14  C7  UNL     1       1.845   1.455 -16.637  1.00  0.00     0.096 C 
HETATM   15  C6  UNL     1       0.939   2.525 -17.178  1.00  0.00     0.015 C 
HETATM   16  C9  UNL     1       1.388   3.783 -16.436  1.00  0.00     0.097 C 
BRANCH  16  17
HETATM   17  C10 UNL     1       2.535   4.399 -17.149  1.00  0.00     0.177 C 
HETATM   18  O3  UNL     1       3.554   3.784 -17.483  1.00  0.00    -0.648 OA
HETATM   19  O4  UNL     1       2.418   5.759 -17.444  1.00  0.00    -0.648 OA
ENDBRANCH  16  17
BRANCH  14  20
HETATM   20  C8  UNL     1       1.723   0.104 -17.134  1.00  0.00     0.177 C 
HETATM   21  O1  UNL     1       2.004  -0.863 -16.333  1.00  0.00    -0.648 OA
HETATM   22  O2  UNL     1       1.334  -0.319 -18.393  1.00  0.00    -0.648 OA
ENDBRANCH  14  20
ENDBRANCH   2  11
BRANCH   9  23
HETATM   23  C17 UNL     1       3.730   3.619 -12.795  1.00  0.00     0.195 C 
BRANCH  23  24
HETATM   24  O7  UNL     1       4.914   4.296 -13.203  1.00  0.00    -0.398 OA
ATOM     25  H7  UNL     1       5.650   3.745 -12.961  1.00  0.00     0.209 HD
ENDBRANCH  23  24
ENDBRANCH   9  23
BRANCH   7  26
HETATM   26  C14 UNL     1       1.261   6.019  -9.798  1.00  0.00     0.332 C 
HETATM   27  O6  UNL     1       0.253   5.599  -9.199  1.00  0.00    -0.297 OA
ENDBRANCH   7  26
TORSDOF 6
ENDMDL
MODEL 4
REMARK VINA RESULT: -7.111907714      1.888      7.020
REMARK  6 active torsions:
REMARK  status: ('A' for Active; 'I' for Inactive)
REMARK    1  A    between atoms: C2_2  and  C3_3 
REMARK    2  A    between atoms: C7_7  and  C8_8 
REMARK    3  A    between atoms: C9_11  and  C10_12 
REMARK       I    between atoms: N1_18  and  C13_19 
REMARK    4  A    between atoms: C13_19  and  C14_21 
REMARK    5  A    between atoms: C15_23  and  C17_25 
REMARK    6  A    between atoms: C17_25  and  O7_26 
ROOT
HETATM    1  C1  UNL     1       1.387   4.061 -14.088  1.00  0.00     0.021 C 
HETATM    2  C2  UNL     1       2.187   4.854 -15.087  1.00  0.00     0.021 C 
HETATM    3  C11 UNL     1       3.573   5.009 -14.396  1.00  0.00     0.199 C 
HETATM    4  F1  UNL     1       3.438   5.366 -13.081  1.00  0.00    -0.247 F 
HETATM    5  C12 UNL     1       4.051   3.544 -14.416  1.00  0.00     0.165 C 
HETATM    6  N1  UNL     1       3.216   2.864 -15.422  1.00  0.00    -0.331 N 
HETATM    7  C13 UNL     1       3.098   1.462 -15.497  1.00  0.00     0.282 C 
HETATM    8  O5  UNL     1       2.318   0.870 -16.325  1.00  0.00    -0.265 OA
HETATM    9  C15 UNL     1       2.671   3.952 -16.192  1.00  0.00     0.063 C 
HETATM   10  C16 UNL     1       3.899   4.573 -16.889  1.00  0.00     0.042 C 
ENDROOT
BRANCH   2  11
HETATM   11  C3  UNL     1       1.613   6.127 -15.480  1.00  0.00     0.019 C 
HETATM   12  C4  UNL     1       0.196   6.424 -15.046  1.00  0.00     0.006 C 
HETATM   13  C5  UNL     1       0.330   7.260 -13.780  1.00  0.00     0.012 C 
HETATM   14  C7  UNL     1       0.050   7.775 -15.757  1.00  0.00     0.096 C 
HETATM   15  C6  UNL     1       1.025   8.230 -14.709  1.00  0.00     0.015 C 
HETATM   16  C9  UNL     1       2.275   7.401 -14.999  1.00  0.00     0.097 C 
BRANCH  16  17
HETATM   17  C10 UNL     1       3.088   8.075 -16.043  1.00  0.00     0.177 C 
HETATM   18  O3  UNL     1       3.227   7.648 -17.195  1.00  0.00    -0.648 OA
HETATM   19  O4  UNL     1       3.718   9.262 -15.663  1.00  0.00    -0.648 OA
ENDBRANCH  16  17
BRANCH  14  20
HETATM   20  C8  UNL     1      -1.266   8.369 -15.806  1.00  0.00     0.177 C 
HETATM   21  O1  UNL     1      -1.906   8.331 -16.922  1.00  0.00    -0.648 OA
HETATM   22  O2  UNL     1      -1.968   8.996 -14.791  1.00  0.00    -0.648 OA
ENDBRANCH  14  20
ENDBRANCH   2  11
BRANCH   9  23
HETATM   23  C17 UNL     1       1.728   3.641 -17.276  1.00  0.00     0.195 C 
BRANCH  23  24
HETATM   24  O7  UNL     1       2.456   2.940 -18.279  1.00  0.00    -0.398 OA
ATOM     25  H7  UNL     1       2.459   3.485 -19.057  1.00  0.00     0.209 HD
ENDBRANCH  23  24
ENDBRANCH   9  23
BRANCH   7  26
HETATM   26  C14 UNL     1       3.843   0.558 -14.655  1.00  0.00     0.332 C 
HETATM   27  O6  UNL     1       4.762  -0.166 -15.080  1.00  0.00    -0.297 OA
ENDBRANCH   7  26
TORSDOF 6
ENDMDL
MODEL 5
REMARK VINA RESULT: -7.028330365      2.499      3.702
REMARK  6 active torsions:
REMARK  status: ('A' for Active; 'I' for Inactive)
REMARK    1  A    between atoms: C2_2  and  C3_3 
REMARK    2  A    between atoms: C7_7  and  C8_8 
REMARK    3  A    between atoms: C9_11  and  C10_12 
REMARK       I    between atoms: N1_18  and  C13_19 
REMARK    4  A    between atoms: C13_19  and  C14_21 
REMARK    5  A    between atoms: C15_23  and  C17_25 
REMARK    6  A    between atoms: C17_25  and  O7_26 
ROOT
HETATM    1  C1  UNL     1       1.399   2.468 -12.456  1.00  0.00     0.021 C 
HETATM    2  C2  UNL     1       1.364   3.458 -13.590  1.00  0.00     0.021 C 
HETATM    3  C11 UNL     1      -0.019   3.194 -14.254  1.00  0.00     0.199 C 
HETATM    4  F1  UNL     1      -0.248   1.854 -14.413  1.00  0.00    -0.247 F 
HETATM    5  C12 UNL     1      -0.956   3.679 -13.132  1.00  0.00     0.165 C 
HETATM    6  N1  UNL     1      -0.124   4.517 -12.249  1.00  0.00    -0.331 N 
HETATM    7  C13 UNL     1      -0.507   4.862 -10.939  1.00  0.00     0.282 C 
HETATM    8  O5  UNL     1       0.246   5.530 -10.144  1.00  0.00    -0.265 OA
HETATM    9  C15 UNL     1       1.019   4.828 -13.067  1.00  0.00     0.063 C 
HETATM   10  C16 UNL     1       0.444   5.702 -14.201  1.00  0.00     0.042 C 
ENDROOT
BRANCH   2  11
HETATM   11  C3  UNL     1       2.463   3.369 -14.533  1.00  0.00     0.019 C 
HETATM   12  C4  UNL     1       3.683   2.580 -14.119  1.00  0.00     0.006 C 
HETATM   13  C5  UNL     1       3.495   1.197 -14.730  1.00  0.00     0.012 C 
HETATM   14  C7  UNL     1       4.534   2.862 -15.363  1.00  0.00     0.096 C 
HETATM   15  C6  UNL     1       3.531   1.965 -16.032  1.00  0.00     0.015 C 
HETATM   16  C9  UNL     1       2.214   2.724 -15.879  1.00  0.00     0.097 C 
BRANCH  16  17
HETATM   17  C10 UNL     1       2.071   3.702 -16.987  1.00  0.00     0.177 C 
HETATM   18  O3  UNL     1       2.091   4.929 -16.833  1.00  0.00    -0.648 OA
HETATM   19  O4  UNL     1       1.909   3.166 -18.266  1.00  0.00    -0.648 OA
ENDBRANCH  16  17
BRANCH  14  20
HETATM   20  C8  UNL     1       5.924   2.470 -15.329  1.00  0.00     0.177 C 
HETATM   21  O1  UNL     1       6.632   2.836 -14.319  1.00  0.00    -0.648 OA
HETATM   22  O2  UNL     1       6.634   1.731 -16.260  1.00  0.00    -0.648 OA
ENDBRANCH  14  20
ENDBRANCH   2  11
BRANCH   9  23
HETATM   23  C17 UNL     1       2.106   5.623 -12.480  1.00  0.00     0.195 C 
BRANCH  23  24
HETATM   24  O7  UNL     1       1.684   6.983 -12.485  1.00  0.00    -0.398 OA
ATOM     25  H7  UNL     1       2.064   7.398 -11.719  1.00  0.00     0.209 HD
ENDBRANCH  23  24
ENDBRANCH   9  23
BRANCH   7  26
HETATM   26  C14 UNL     1      -1.781   4.502 -10.365  1.00  0.00     0.332 C 
HETATM   27  O6  UNL     1      -1.967   3.448  -9.728  1.00  0.00    -0.297 OA
ENDBRANCH   7  26
TORSDOF 6
ENDMDL
