MODEL 1
REMARK VINA RESULT: -5.404977306      0.000      0.000
REMARK  3 active torsions:
REMARK  status: ('A' for Active; 'I' for Inactive)
REMARK    1  A    between atoms: C3_5  and  C4_6 
REMARK    2  A    between atoms: C5_10  and  N3_11 
REMARK    3  A    between atoms: N3_11  and  C6_13 
ROOT
HETATM    1  C1  UNL     1      33.951  -2.431   4.032  1.00  0.00     0.047 C 
HETATM    2  C2  UNL     1      33.882  -1.657   5.093  1.00  0.00     0.068 A 
HETATM    3  N1  UNL     1      34.914  -0.995   5.695  1.00  0.00    -0.340 N 
ATOM      4  H1  UNL     1      35.890  -1.012   5.399  1.00  0.00     0.167 HD
HETATM    5  C3  UNL     1      34.424  -0.320   6.738  1.00  0.00     0.114 A 
HETATM    6  N2  UNL     1      33.093  -0.562   6.783  1.00  0.00    -0.327 N 
ATOM      7  H2  UNL     1      32.456  -0.176   7.479  1.00  0.00     0.169 HD
HETATM    8  C5  UNL     1      32.734  -1.375   5.790  1.00  0.00     0.129 A 
ENDROOT
BRANCH   8   9
HETATM    9  N3  UNL     1      31.576  -1.797   5.544  1.00  0.00    -0.370 N 
ATOM     10  H3  UNL     1      31.090  -1.339   4.773  1.00  0.00     0.161 HD
BRANCH   9  11
HETATM   11  C6  UNL     1      30.859  -2.827   6.202  1.00  0.00     0.075 C 
HETATM   12  C7  UNL     1      29.802  -2.157   7.090  1.00  0.00     0.031 C 
HETATM   13  C8  UNL     1      31.699  -3.679   7.124  1.00  0.00     0.031 C 
ENDBRANCH   9  11
ENDBRANCH   8   9
BRANCH   5  14
HETATM   14  C4  UNL     1      35.137   0.443   7.565  1.00  0.00     0.104 C 
HETATM   15 BR1  UNL     1      35.051   0.222   9.458  1.00  0.00    -0.060 Br
ENDBRANCH   5  14
TORSDOF 3
ENDMDL
MODEL 2
REMARK VINA RESULT: -5.282346748      2.502      5.276
REMARK  3 active torsions:
REMARK  status: ('A' for Active; 'I' for Inactive)
REMARK    1  A    between atoms: C3_5  and  C4_6 
REMARK    2  A    between atoms: C5_10  and  N3_11 
REMARK    3  A    between atoms: N3_11  and  C6_13 
ROOT
HETATM    1  C1  UNL     1      34.932   0.114   9.410  1.00  0.00     0.047 C 
HETATM    2  C2  UNL     1      34.419  -0.217   8.245  1.00  0.00     0.068 A 
HETATM    3  N1  UNL     1      33.418  -1.118   8.015  1.00  0.00    -0.340 N 
ATOM      4  H1  UNL     1      32.928  -1.662   8.725  1.00  0.00     0.167 HD
HETATM    5  C3  UNL     1      33.192  -1.163   6.700  1.00  0.00     0.114 A 
HETATM    6  N2  UNL     1      34.049  -0.293   6.116  1.00  0.00    -0.327 N 
ATOM      7  H2  UNL     1      34.104  -0.116   5.113  1.00  0.00     0.169 HD
HETATM    8  C5  UNL     1      34.811   0.299   7.036  1.00  0.00     0.129 A 
ENDROOT
BRANCH   8   9
HETATM    9  N3  UNL     1      35.706   1.157   6.832  1.00  0.00    -0.370 N 
ATOM     10  H3  UNL     1      35.383   2.118   6.718  1.00  0.00     0.161 HD
BRANCH   9  11
HETATM   11  C6  UNL     1      37.106   0.960   6.742  1.00  0.00     0.075 C 
HETATM   12  C7  UNL     1      37.766   2.346   6.739  1.00  0.00     0.031 C 
HETATM   13  C8  UNL     1      37.559   0.279   5.472  1.00  0.00     0.031 C 
ENDBRANCH   9  11
ENDBRANCH   8   9
BRANCH   5  14
HETATM   14  C4  UNL     1      32.284  -1.931   6.101  1.00  0.00     0.104 C 
HETATM   15 BR1  UNL     1      31.106  -3.053   7.097  1.00  0.00    -0.060 Br
ENDBRANCH   5  14
TORSDOF 3
ENDMDL
MODEL 3
REMARK VINA RESULT: -5.276542220      1.423      1.735
REMARK  3 active torsions:
REMARK  status: ('A' for Active; 'I' for Inactive)
REMARK    1  A    between atoms: C3_5  and  C4_6 
REMARK    2  A    between atoms: C5_10  and  N3_11 
REMARK    3  A    between atoms: N3_11  and  C6_13 
ROOT
HETATM    1  C1  UNL     1      33.971  -2.633   4.102  1.00  0.00     0.047 C 
HETATM    2  C2  UNL     1      34.169  -1.692   4.999  1.00  0.00     0.068 A 
HETATM    3  N1  UNL     1      35.332  -1.014   5.235  1.00  0.00    -0.340 N 
ATOM      4  H1  UNL     1      36.214  -1.149   4.741  1.00  0.00     0.167 HD
HETATM    5  C3  UNL     1      35.114  -0.144   6.224  1.00  0.00     0.114 A 
HETATM    6  N2  UNL     1      33.822  -0.281   6.601  1.00  0.00    -0.327 N 
ATOM      7  H2  UNL     1      33.371   0.258   7.340  1.00  0.00     0.169 HD
HETATM    8  C5  UNL     1      33.220  -1.219   5.869  1.00  0.00     0.129 A 
ENDROOT
BRANCH   8   9
HETATM    9  N3  UNL     1      32.024  -1.593   5.961  1.00  0.00    -0.370 N 
ATOM     10  H3  UNL     1      31.447  -1.447   5.133  1.00  0.00     0.161 HD
BRANCH   9  11
HETATM   11  C6  UNL     1      31.374  -2.191   7.069  1.00  0.00     0.075 C 
HETATM   12  C7  UNL     1      31.775  -3.673   7.092  1.00  0.00     0.031 C 
HETATM   13  C8  UNL     1      29.865  -2.169   6.993  1.00  0.00     0.031 C 
ENDBRANCH   9  11
ENDBRANCH   8   9
BRANCH   5  14
HETATM   14  C4  UNL     1      36.020   0.692   6.727  1.00  0.00     0.104 C 
HETATM   15 BR1  UNL     1      37.849   0.630   6.188  1.00  0.00    -0.060 Br
ENDBRANCH   5  14
TORSDOF 3
ENDMDL
MODEL 4
REMARK VINA RESULT: -5.212461719      0.850      1.204
REMARK  3 active torsions:
REMARK  status: ('A' for Active; 'I' for Inactive)
REMARK    1  A    between atoms: C3_5  and  C4_6 
REMARK    2  A    between atoms: C5_10  and  N3_11 
REMARK    3  A    between atoms: N3_11  and  C6_13 
ROOT
HETATM    1  C1  UNL     1      34.566  -2.190   3.863  1.00  0.00     0.047 C 
HETATM    2  C2  UNL     1      34.375  -1.449   4.933  1.00  0.00     0.068 A 
HETATM    3  N1  UNL     1      35.336  -0.888   5.726  1.00  0.00    -0.340 N 
ATOM      4  H1  UNL     1      36.344  -0.970   5.592  1.00  0.00     0.167 HD
HETATM    5  C3  UNL     1      34.728  -0.214   6.705  1.00  0.00     0.114 A 
HETATM    6  N2  UNL     1      33.395  -0.355   6.521  1.00  0.00    -0.327 N 
ATOM      7  H2  UNL     1      32.679   0.054   7.121  1.00  0.00     0.169 HD
HETATM    8  C5  UNL     1      33.150  -1.105   5.446  1.00  0.00     0.129 A 
ENDROOT
BRANCH   8   9
HETATM    9  N3  UNL     1      32.022  -1.429   4.996  1.00  0.00    -0.370 N 
ATOM     10  H3  UNL     1      31.615  -0.788   4.314  1.00  0.00     0.161 HD
BRANCH   9  11
HETATM   11  C6  UNL     1      31.245  -2.569   5.313  1.00  0.00     0.075 C 
HETATM   12  C7  UNL     1      30.379  -2.892   4.087  1.00  0.00     0.031 C 
HETATM   13  C8  UNL     1      30.284  -2.369   6.461  1.00  0.00     0.031 C 
ENDBRANCH   9  11
ENDBRANCH   8   9
BRANCH   5  14
HETATM   14  C4  UNL     1      35.345   0.464   7.671  1.00  0.00     0.104 C 
HETATM   15 BR1  UNL     1      34.971   0.146   9.515  1.00  0.00    -0.060 Br
ENDBRANCH   5  14
TORSDOF 3
ENDMDL
MODEL 5
REMARK VINA RESULT: -5.204184515      2.176      2.864
REMARK  3 active torsions:
REMARK  status: ('A' for Active; 'I' for Inactive)
REMARK    1  A    between atoms: C3_5  and  C4_6 
REMARK    2  A    between atoms: C5_10  and  N3_11 
REMARK    3  A    between atoms: N3_11  and  C6_13 
ROOT
HETATM    1  C1  UNL     1      33.901   0.100   7.687  1.00  0.00     0.047 C 
HETATM    2  C2  UNL     1      34.265  -0.448   6.548  1.00  0.00     0.068 A 
HETATM    3  N1  UNL     1      35.521  -0.470   6.011  1.00  0.00    -0.340 N 
ATOM      4  H1  UNL     1      36.356  -0.059   6.428  1.00  0.00     0.167 HD
HETATM    5  C3  UNL     1      35.466  -1.122   4.848  1.00  0.00     0.114 A 
HETATM    6  N2  UNL     1      34.181  -1.504   4.662  1.00  0.00    -0.327 N 
ATOM      7  H2  UNL     1      33.840  -2.023   3.853  1.00  0.00     0.169 HD
HETATM    8  C5  UNL     1      33.425  -1.106   5.685  1.00  0.00     0.129 A 
ENDROOT
BRANCH   8   9
HETATM    9  N3  UNL     1      32.191  -1.296   5.827  1.00  0.00    -0.370 N 
ATOM     10  H3  UNL     1      31.615  -0.456   5.879  1.00  0.00     0.161 HD
BRANCH   9  11
HETATM   11  C6  UNL     1      31.498  -2.528   5.923  1.00  0.00     0.075 C 
HETATM   12  C7  UNL     1      30.258  -2.430   5.024  1.00  0.00     0.031 C 
HETATM   13  C8  UNL     1      30.985  -2.848   7.307  1.00  0.00     0.031 C 
ENDBRANCH   9  11
ENDBRANCH   8   9
BRANCH   5  14
HETATM   14  C4  UNL     1      36.501  -1.342   4.039  1.00  0.00     0.104 C 
HETATM   15 BR1  UNL     1      38.145  -0.393   4.234  1.00  0.00    -0.060 Br
ENDBRANCH   5  14
TORSDOF 3
ENDMDL
