MODEL 1
REMARK VINA RESULT: -8.051340630      0.000      0.000
REMARK  8 active torsions:
REMARK  status: ('A' for Active; 'I' for Inactive)
REMARK    1  A    between atoms: N1_2  and  C3_4 
REMARK    2  A    between atoms: C3_4  and  C4_5 
REMARK    3  A    between atoms: C4_5  and  N2_6 
REMARK    4  A    between atoms: C8_10  and  N3_11 
REMARK    5  A    between atoms: N3_11  and  C9_13 
REMARK    6  A    between atoms: N5_17  and  C11_18 
REMARK    7  A    between atoms: C13_24  and  N6_25 
REMARK    8  A    between atoms: N6_25  and  C14_27 
ROOT
HETATM    1  C9  UNL     1      35.282  35.193  20.277  1.00  0.00     0.078 A 
HETATM    2  C10 UNL     1      34.624  34.166  19.589  1.00  0.00     0.139 A 
HETATM    3  N4  UNL     1      34.621  34.153  18.254  1.00  0.00    -0.297 N 
ATOM      4  H4  UNL     1      34.137  33.394  17.774  1.00  0.00     0.186 HD
HETATM    5  N5  UNL     1      35.217  35.080  17.528  1.00  0.00    -0.157 N 
HETATM    6  C12 UNL     1      35.859  36.083  18.157  1.00  0.00     0.298 A 
HETATM    7  O1  UNL     1      36.408  36.938  17.393  1.00  0.00    -0.264 OA
HETATM    8  C13 UNL     1      35.913  36.174  19.544  1.00  0.00     0.127 A 
ENDROOT
BRANCH   1   9
HETATM    9  N3  UNL     1      35.301  35.146  21.713  1.00  0.00    -0.373 N 
ATOM     10  H3  UNL     1      36.147  34.852  22.201  1.00  0.00     0.160 HD
BRANCH   9  11
HETATM   11  C8  UNL     1      34.123  35.516  22.468  1.00  0.00     0.174 C 
HETATM   12  C7  UNL     1      33.250  34.279  22.610  1.00  0.00     0.036 C 
HETATM   13  C6  UNL     1      32.171  34.415  23.612  1.00  0.00     0.022 C 
HETATM   14  C5  UNL     1      32.170  35.637  24.463  1.00  0.00     0.126 C 
HETATM   15  N2  UNL     1      33.513  35.994  24.829  1.00  0.00    -0.349 N 
HETATM   16  C21 UNL     1      34.536  35.895  23.850  1.00  0.00     0.242 C 
HETATM   17  O2  UNL     1      35.712  36.123  24.181  1.00  0.00    -0.271 OA
BRANCH  15  18
HETATM   18  C4  UNL     1      33.828  36.423  26.156  1.00  0.00     0.156 C 
BRANCH  18  19
HETATM   19  C3  UNL     1      32.970  37.568  26.560  1.00  0.00     0.291 C 
BRANCH  19  20
HETATM   20  N1  UNL     1      33.735  38.787  26.604  1.00  0.00     0.081 N 
HETATM   21  C1  UNL     1      35.120  38.446  26.894  1.00  0.00     0.309 C 
HETATM   22  C2  UNL     1      33.654  39.390  25.265  1.00  0.00     0.309 C 
ENDBRANCH  19  20
ENDBRANCH  18  19
ENDBRANCH  15  18
ENDBRANCH   9  11
ENDBRANCH   1   9
BRANCH   8  23
HETATM   23  N6  UNL     1      36.540  37.236  20.192  1.00  0.00    -0.379 N 
ATOM     24  H6  UNL     1      37.523  37.069  20.408  1.00  0.00     0.160 HD
BRANCH  23  25
HETATM   25  C14 UNL     1      36.063  38.512  20.607  1.00  0.00     0.082 C 
HETATM   26  C15 UNL     1      35.832  38.687  22.070  1.00  0.00     0.025 C 
HETATM   27  C16 UNL     1      35.917  40.153  22.417  1.00  0.00     0.002 C 
HETATM   28  C17 UNL     1      34.902  40.892  21.580  1.00  0.00     0.000 C 
HETATM   29  C18 UNL     1      33.608  40.132  21.581  1.00  0.00     0.000 C 
HETATM   30  C19 UNL     1      33.581  38.994  20.614  1.00  0.00     0.002 C 
HETATM   31  C20 UNL     1      34.824  38.858  19.800  1.00  0.00     0.025 C 
ENDBRANCH  23  25
ENDBRANCH   8  23
BRANCH   5  32
HETATM   32  C11 UNL     1      35.192  35.027  16.072  1.00  0.00     0.508 C 
HETATM   33  F1  UNL     1      36.426  34.823  15.539  1.00  0.00    -0.149 F 
HETATM   34  F2  UNL     1      34.583  36.107  15.508  1.00  0.00    -0.149 F 
HETATM   35  F3  UNL     1      34.417  33.900  15.761  1.00  0.00    -0.149 F 
ENDBRANCH   5  32
TORSDOF 8
ENDMDL
MODEL 2
REMARK VINA RESULT: -7.976584208      4.910      8.728
REMARK  8 active torsions:
REMARK  status: ('A' for Active; 'I' for Inactive)
REMARK    1  A    between atoms: N1_2  and  C3_4 
REMARK    2  A    between atoms: C3_4  and  C4_5 
REMARK    3  A    between atoms: C4_5  and  N2_6 
REMARK    4  A    between atoms: C8_10  and  N3_11 
REMARK    5  A    between atoms: N3_11  and  C9_13 
REMARK    6  A    between atoms: N5_17  and  C11_18 
REMARK    7  A    between atoms: C13_24  and  N6_25 
REMARK    8  A    between atoms: N6_25  and  C14_27 
ROOT
HETATM    1  C9  UNL     1      34.460  39.146  25.199  1.00  0.00     0.078 A 
HETATM    2  C10 UNL     1      35.688  39.720  25.549  1.00  0.00     0.139 A 
HETATM    3  N4  UNL     1      36.041  39.807  26.834  1.00  0.00    -0.297 N 
ATOM      4  H4  UNL     1      36.941  40.228  27.065  1.00  0.00     0.186 HD
HETATM    5  N5  UNL     1      35.276  39.374  27.818  1.00  0.00    -0.157 N 
HETATM    6  C12 UNL     1      34.087  38.817  27.517  1.00  0.00     0.298 A 
HETATM    7  O1  UNL     1      33.404  38.424  28.515  1.00  0.00    -0.264 OA
HETATM    8  C13 UNL     1      33.640  38.685  26.206  1.00  0.00     0.127 A 
ENDROOT
BRANCH   1   9
HETATM    9  N3  UNL     1      34.137  39.028  23.804  1.00  0.00    -0.373 N 
ATOM     10  H3  UNL     1      33.256  39.403  23.453  1.00  0.00     0.160 HD
BRANCH   9  11
HETATM   11  C8  UNL     1      35.059  38.379  22.897  1.00  0.00     0.174 C 
HETATM   12  C7  UNL     1      34.995  36.882  23.155  1.00  0.00     0.036 C 
HETATM   13  C6  UNL     1      35.641  36.061  22.107  1.00  0.00     0.022 C 
HETATM   14  C5  UNL     1      36.107  36.758  20.877  1.00  0.00     0.126 C 
HETATM   15  N2  UNL     1      35.169  37.774  20.489  1.00  0.00    -0.349 N 
HETATM   16  C21 UNL     1      34.581  38.581  21.499  1.00  0.00     0.242 C 
HETATM   17  O2  UNL     1      33.708  39.406  21.179  1.00  0.00    -0.271 OA
BRANCH  15  18
HETATM   18  C4  UNL     1      34.811  37.965  19.118  1.00  0.00     0.156 C 
BRANCH  18  19
HETATM   19  C3  UNL     1      35.716  37.200  18.222  1.00  0.00     0.291 C 
BRANCH  19  20
HETATM   20  N1  UNL     1      34.959  36.393  17.301  1.00  0.00     0.081 N 
HETATM   21  C1  UNL     1      35.802  36.103  16.150  1.00  0.00     0.309 C 
HETATM   22  C2  UNL     1      34.640  35.138  17.997  1.00  0.00     0.309 C 
ENDBRANCH  19  20
ENDBRANCH  18  19
ENDBRANCH  15  18
ENDBRANCH   9  11
ENDBRANCH   1   9
BRANCH   8  23
HETATM   23  N6  UNL     1      32.392  38.148  25.900  1.00  0.00    -0.379 N 
ATOM     24  H6  UNL     1      31.688  38.845  25.655  1.00  0.00     0.160 HD
BRANCH  23  25
HETATM   25  C14 UNL     1      31.916  36.806  25.867  1.00  0.00     0.082 C 
HETATM   26  C15 UNL     1      32.899  35.747  26.238  1.00  0.00     0.025 C 
HETATM   27  C16 UNL     1      32.157  34.526  26.725  1.00  0.00     0.002 C 
HETATM   28  C17 UNL     1      31.217  34.083  25.631  1.00  0.00     0.000 C 
HETATM   29  C18 UNL     1      31.932  34.125  24.313  1.00  0.00     0.000 C 
HETATM   30  C19 UNL     1      31.995  35.489  23.710  1.00  0.00     0.002 C 
HETATM   31  C20 UNL     1      31.297  36.540  24.506  1.00  0.00     0.025 C 
ENDBRANCH  23  25
ENDBRANCH   8  23
BRANCH   5  32
HETATM   32  C11 UNL     1      35.700  39.486  29.208  1.00  0.00     0.508 C 
HETATM   33  F1  UNL     1      36.129  38.301  29.717  1.00  0.00    -0.149 F 
HETATM   34  F2  UNL     1      34.758  40.056  30.010  1.00  0.00    -0.149 F 
HETATM   35  F3  UNL     1      36.805  40.349  29.182  1.00  0.00    -0.149 F 
ENDBRANCH   5  32
TORSDOF 8
ENDMDL
MODEL 3
REMARK VINA RESULT: -7.695203432      1.056      1.285
REMARK  8 active torsions:
REMARK  status: ('A' for Active; 'I' for Inactive)
REMARK    1  A    between atoms: N1_2  and  C3_4 
REMARK    2  A    between atoms: C3_4  and  C4_5 
REMARK    3  A    between atoms: C4_5  and  N2_6 
REMARK    4  A    between atoms: C8_10  and  N3_11 
REMARK    5  A    between atoms: N3_11  and  C9_13 
REMARK    6  A    between atoms: N5_17  and  C11_18 
REMARK    7  A    between atoms: C13_24  and  N6_25 
REMARK    8  A    between atoms: N6_25  and  C14_27 
ROOT
HETATM    1  C9  UNL     1      35.220  35.251  20.572  1.00  0.00     0.078 A 
HETATM    2  C10 UNL     1      34.563  34.245  19.852  1.00  0.00     0.139 A 
HETATM    3  N4  UNL     1      34.388  34.372  18.535  1.00  0.00    -0.297 N 
ATOM      4  H4  UNL     1      33.908  33.627  18.032  1.00  0.00     0.186 HD
HETATM    5  N5  UNL     1      34.810  35.422  17.856  1.00  0.00    -0.157 N 
HETATM    6  C12 UNL     1      35.446  36.409  18.516  1.00  0.00     0.298 A 
HETATM    7  O1  UNL     1      35.822  37.388  17.797  1.00  0.00    -0.264 OA
HETATM    8  C13 UNL     1      35.671  36.358  19.888  1.00  0.00     0.127 A 
ENDROOT
BRANCH   1   9
HETATM    9  N3  UNL     1      35.428  35.055  21.980  1.00  0.00    -0.373 N 
ATOM     10  H3  UNL     1      36.329  34.716  22.318  1.00  0.00     0.160 HD
BRANCH   9  11
HETATM   11  C8  UNL     1      34.363  35.337  22.918  1.00  0.00     0.174 C 
HETATM   12  C7  UNL     1      33.269  34.300  22.712  1.00  0.00     0.036 C 
HETATM   13  C6  UNL     1      32.261  34.264  23.793  1.00  0.00     0.022 C 
HETATM   14  C5  UNL     1      32.519  35.093  25.003  1.00  0.00     0.126 C 
HETATM   15  N2  UNL     1      33.914  35.060  25.346  1.00  0.00    -0.349 N 
HETATM   16  C21 UNL     1      34.875  35.132  24.303  1.00  0.00     0.242 C 
HETATM   17  O2  UNL     1      36.080  35.021  24.585  1.00  0.00    -0.271 OA
BRANCH  15  18
HETATM   18  C4  UNL     1      34.338  34.938  26.706  1.00  0.00     0.156 C 
BRANCH  18  19
HETATM   19  C3  UNL     1      33.915  36.119  27.502  1.00  0.00     0.291 C 
BRANCH  19  20
HETATM   20  N1  UNL     1      34.906  37.162  27.432  1.00  0.00     0.081 N 
HETATM   21  C1  UNL     1      34.330  38.289  26.712  1.00  0.00     0.309 C 
HETATM   22  C2  UNL     1      35.197  37.567  28.815  1.00  0.00     0.309 C 
ENDBRANCH  19  20
ENDBRANCH  18  19
ENDBRANCH  15  18
ENDBRANCH   9  11
ENDBRANCH   1   9
BRANCH   8  23
HETATM   23  N6  UNL     1      36.290  37.400  20.575  1.00  0.00    -0.379 N 
ATOM     24  H6  UNL     1      37.309  37.375  20.537  1.00  0.00     0.160 HD
BRANCH  23  25
HETATM   25  C14 UNL     1      35.763  38.493  21.321  1.00  0.00     0.082 C 
HETATM   26  C15 UNL     1      35.893  38.404  22.804  1.00  0.00     0.025 C 
HETATM   27  C16 UNL     1      35.860  39.794  23.392  1.00  0.00     0.002 C 
HETATM   28  C17 UNL     1      34.571  40.452  22.964  1.00  0.00     0.000 C 
HETATM   29  C18 UNL     1      33.440  39.479  23.119  1.00  0.00     0.000 C 
HETATM   30  C19 UNL     1      33.324  38.511  21.988  1.00  0.00     0.002 C 
HETATM   31  C20 UNL     1      34.322  38.724  20.900  1.00  0.00     0.025 C 
ENDBRANCH  23  25
ENDBRANCH   8  23
BRANCH   5  32
HETATM   32  C11 UNL     1      34.602  35.522  16.417  1.00  0.00     0.508 C 
HETATM   33  F1  UNL     1      35.704  35.975  15.763  1.00  0.00    -0.149 F 
HETATM   34  F2  UNL     1      33.498  36.247  16.085  1.00  0.00    -0.149 F 
HETATM   35  F3  UNL     1      34.381  34.204  15.989  1.00  0.00    -0.149 F 
ENDBRANCH   5  32
TORSDOF 8
ENDMDL
MODEL 4
REMARK VINA RESULT: -7.624664518      0.970      1.553
REMARK  8 active torsions:
REMARK  status: ('A' for Active; 'I' for Inactive)
REMARK    1  A    between atoms: N1_2  and  C3_4 
REMARK    2  A    between atoms: C3_4  and  C4_5 
REMARK    3  A    between atoms: C4_5  and  N2_6 
REMARK    4  A    between atoms: C8_10  and  N3_11 
REMARK    5  A    between atoms: N3_11  and  C9_13 
REMARK    6  A    between atoms: N5_17  and  C11_18 
REMARK    7  A    between atoms: C13_24  and  N6_25 
REMARK    8  A    between atoms: N6_25  and  C14_27 
ROOT
HETATM    1  C9  UNL     1      35.189  35.027  19.979  1.00  0.00     0.078 A 
HETATM    2  C10 UNL     1      34.797  34.064  19.042  1.00  0.00     0.139 A 
HETATM    3  N4  UNL     1      34.817  34.353  17.738  1.00  0.00    -0.297 N 
ATOM      4  H4  UNL     1      34.529  33.635  17.074  1.00  0.00     0.186 HD
HETATM    5  N5  UNL     1      35.194  35.529  17.273  1.00  0.00    -0.157 N 
HETATM    6  C12 UNL     1      35.577  36.480  18.147  1.00  0.00     0.298 A 
HETATM    7  O1  UNL     1      35.925  37.586  17.625  1.00  0.00    -0.264 OA
HETATM    8  C13 UNL     1      35.587  36.264  19.521  1.00  0.00     0.127 A 
ENDROOT
BRANCH   1   9
HETATM    9  N3  UNL     1      35.196  34.661  21.368  1.00  0.00    -0.373 N 
ATOM     10  H3  UNL     1      36.020  34.217  21.773  1.00  0.00     0.160 HD
BRANCH   9  11
HETATM   11  C8  UNL     1      34.037  34.922  22.195  1.00  0.00     0.174 C 
HETATM   12  C7  UNL     1      33.057  33.775  22.003  1.00  0.00     0.036 C 
HETATM   13  C6  UNL     1      31.969  33.737  23.004  1.00  0.00     0.022 C 
HETATM   14  C5  UNL     1      32.055  34.685  24.150  1.00  0.00     0.126 C 
HETATM   15  N2  UNL     1      33.414  34.810  24.597  1.00  0.00    -0.349 N 
HETATM   16  C21 UNL     1      34.448  34.882  23.627  1.00  0.00     0.242 C 
HETATM   17  O2  UNL     1      35.631  34.908  24.008  1.00  0.00    -0.271 OA
BRANCH  15  18
HETATM   18  C4  UNL     1      33.733  34.842  25.991  1.00  0.00     0.156 C 
BRANCH  18  19
HETATM   19  C3  UNL     1      33.298  36.124  26.605  1.00  0.00     0.291 C 
BRANCH  19  20
HETATM   20  N1  UNL     1      33.819  37.245  25.867  1.00  0.00     0.081 N 
HETATM   21  C1  UNL     1      32.831  38.313  25.905  1.00  0.00     0.309 C 
HETATM   22  C2  UNL     1      35.037  37.685  26.564  1.00  0.00     0.309 C 
ENDBRANCH  19  20
ENDBRANCH  18  19
ENDBRANCH  15  18
ENDBRANCH   9  11
ENDBRANCH   1   9
BRANCH   8  23
HETATM   23  N6  UNL     1      35.942  37.263  20.424  1.00  0.00    -0.379 N 
ATOM     24  H6  UNL     1      36.947  37.341  20.584  1.00  0.00     0.160 HD
BRANCH  23  25
HETATM   25  C14 UNL     1      35.161  38.196  21.165  1.00  0.00     0.082 C 
HETATM   26  C15 UNL     1      35.248  39.621  20.733  1.00  0.00     0.025 C 
HETATM   27  C16 UNL     1      33.999  40.350  21.164  1.00  0.00     0.002 C 
HETATM   28  C17 UNL     1      33.868  40.209  22.661  1.00  0.00     0.000 C 
HETATM   29  C18 UNL     1      35.205  40.440  23.302  1.00  0.00     0.000 C 
HETATM   30  C19 UNL     1      36.101  39.246  23.264  1.00  0.00     0.002 C 
HETATM   31  C20 UNL     1      35.483  38.040  22.641  1.00  0.00     0.025 C 
ENDBRANCH  23  25
ENDBRANCH   8  23
BRANCH   5  32
HETATM   32  C11 UNL     1      35.204  35.805  15.842  1.00  0.00     0.508 C 
HETATM   33  F1  UNL     1      36.194  36.666  15.486  1.00  0.00    -0.149 F 
HETATM   34  F2  UNL     1      33.996  36.217  15.368  1.00  0.00    -0.149 F 
HETATM   35  F3  UNL     1      35.493  34.573  15.236  1.00  0.00    -0.149 F 
ENDBRANCH   5  32
TORSDOF 8
ENDMDL
MODEL 5
REMARK VINA RESULT: -7.556436125      3.862      7.576
REMARK  8 active torsions:
REMARK  status: ('A' for Active; 'I' for Inactive)
REMARK    1  A    between atoms: N1_2  and  C3_4 
REMARK    2  A    between atoms: C3_4  and  C4_5 
REMARK    3  A    between atoms: C4_5  and  N2_6 
REMARK    4  A    between atoms: C8_10  and  N3_11 
REMARK    5  A    between atoms: N3_11  and  C9_13 
REMARK    6  A    between atoms: N5_17  and  C11_18 
REMARK    7  A    between atoms: C13_24  and  N6_25 
REMARK    8  A    between atoms: N6_25  and  C14_27 
ROOT
HETATM    1  C9  UNL     1      34.144  34.952  23.872  1.00  0.00     0.078 A 
HETATM    2  C10 UNL     1      33.195  34.317  23.061  1.00  0.00     0.139 A 
HETATM    3  N4  UNL     1      32.194  33.631  23.618  1.00  0.00    -0.297 N 
ATOM      4  H4  UNL     1      31.514  33.179  23.007  1.00  0.00     0.186 HD
HETATM    5  N5  UNL     1      32.046  33.513  24.924  1.00  0.00    -0.157 N 
HETATM    6  C12 UNL     1      32.941  34.110  25.734  1.00  0.00     0.298 A 
HETATM    7  O1  UNL     1      32.736  33.952  26.979  1.00  0.00    -0.264 OA
HETATM    8  C13 UNL     1      34.015  34.844  25.240  1.00  0.00     0.127 A 
ENDROOT
BRANCH   1   9
HETATM    9  N3  UNL     1      35.180  35.717  23.236  1.00  0.00    -0.373 N 
ATOM     10  H3  UNL     1      36.159  35.489  23.407  1.00  0.00     0.160 HD
BRANCH   9  11
HETATM   11  C8  UNL     1      34.836  36.812  22.354  1.00  0.00     0.174 C 
HETATM   12  C7  UNL     1      35.633  38.032  22.788  1.00  0.00     0.036 C 
HETATM   13  C6  UNL     1      35.629  39.137  21.805  1.00  0.00     0.022 C 
HETATM   14  C5  UNL     1      35.016  38.871  20.474  1.00  0.00     0.126 C 
HETATM   15  N2  UNL     1      35.333  37.542  20.031  1.00  0.00    -0.349 N 
HETATM   16  C21 UNL     1      35.299  36.482  20.975  1.00  0.00     0.242 C 
HETATM   17  O2  UNL     1      35.652  35.345  20.618  1.00  0.00    -0.271 OA
BRANCH  15  18
HETATM   18  C4  UNL     1      35.696  37.283  18.673  1.00  0.00     0.156 C 
BRANCH  18  19
HETATM   19  C3  UNL     1      37.174  37.251  18.516  1.00  0.00     0.291 C 
BRANCH  19  20
HETATM   20  N1  UNL     1      37.546  36.503  17.343  1.00  0.00     0.081 N 
HETATM   21  C1  UNL     1      36.382  36.412  16.473  1.00  0.00     0.309 C 
HETATM   22  C2  UNL     1      38.600  37.271  16.664  1.00  0.00     0.309 C 
ENDBRANCH  19  20
ENDBRANCH  18  19
ENDBRANCH  15  18
ENDBRANCH   9  11
ENDBRANCH   1   9
BRANCH   8  23
HETATM   23  N6  UNL     1      34.963  35.424  26.079  1.00  0.00    -0.379 N 
ATOM     24  H6  UNL     1      35.825  34.885  26.168  1.00  0.00     0.160 HD
BRANCH  23  25
HETATM   25  C14 UNL     1      34.952  36.631  26.836  1.00  0.00     0.082 C 
HETATM   26  C15 UNL     1      34.707  36.490  28.301  1.00  0.00     0.025 C 
HETATM   27  C16 UNL     1      35.292  37.680  29.021  1.00  0.00     0.002 C 
HETATM   28  C17 UNL     1      34.666  38.927  28.449  1.00  0.00     0.000 C 
HETATM   29  C18 UNL     1      33.188  38.718  28.296  1.00  0.00     0.000 C 
HETATM   30  C19 UNL     1      32.815  37.963  27.063  1.00  0.00     0.002 C 
HETATM   31  C20 UNL     1      33.974  37.601  26.197  1.00  0.00     0.025 C 
ENDBRANCH  23  25
ENDBRANCH   8  23
BRANCH   5  32
HETATM   32  C11 UNL     1      30.937  32.757  25.491  1.00  0.00     0.508 C 
HETATM   33  F1  UNL     1      30.053  33.550  26.153  1.00  0.00    -0.149 F 
HETATM   34  F2  UNL     1      31.342  31.714  26.267  1.00  0.00    -0.149 F 
HETATM   35  F3  UNL     1      30.261  32.218  24.386  1.00  0.00    -0.149 F 
ENDBRANCH   5  32
TORSDOF 8
ENDMDL
