MODEL 1
REMARK VINA RESULT: -7.643886626      0.000      0.000
REMARK  9 active torsions:
REMARK  status: ('A' for Active; 'I' for Inactive)
REMARK    1  A    between atoms: C2_2  and  C4_4 
REMARK    2  A    between atoms: C4_4  and  N1_5 
REMARK    3  A    between atoms: C6_7  and  C7_8 
REMARK    4  A    between atoms: N3_13  and  C10_15 
REMARK    5  A    between atoms: C12_17  and  C13_18 
REMARK       I    between atoms: C13_18  and  N4_20 
REMARK    6  A    between atoms: N4_20  and  C14_22 
REMARK    7  A    between atoms: C14_22  and  C15_23 
REMARK    8  A    between atoms: C15_23  and  C16_24 
REMARK    9  A    between atoms: C18_30  and  C19_31 
ROOT
HETATM    1  C7  UNL     1      -9.203  48.011  21.197  1.00  0.00     0.010 A 
HETATM    2  C8  UNL     1      -9.211  46.843  21.918  1.00  0.00     0.103 A 
HETATM    3  N2  UNL     1      -9.927  46.731  23.069  1.00  0.00    -0.351 N 
ATOM      4  H2  UNL     1      -9.914  45.851  23.584  1.00  0.00     0.166 HD
HETATM    5  C9  UNL     1     -10.652  47.763  23.538  1.00  0.00     0.120 A 
HETATM    6  N3  UNL     1     -11.323  47.646  24.624  1.00  0.00    -0.327 N 
ATOM      7  H3  UNL     1     -11.867  48.438  24.966  1.00  0.00     0.169 HD
HETATM    8  C18 UNL     1     -10.675  48.946  22.855  1.00  0.00     0.054 A 
HETATM    9  C24 UNL     1      -9.942  49.074  21.669  1.00  0.00     0.034 A 
ENDROOT
BRANCH   8  10
HETATM   10  C19 UNL     1     -11.464  50.054  23.378  1.00  0.00     0.134 A 
HETATM   11  N7  UNL     1     -12.744  50.160  22.904  1.00  0.00    -0.283 N 
HETATM   12  N8  UNL     1     -13.587  51.097  23.271  1.00  0.00    -0.282 N 
ATOM     13  H7  UNL     1     -13.062  49.470  22.224  1.00  0.00     0.188 HD
HETATM   14  C20 UNL     1     -13.142  52.014  24.181  1.00  0.00     0.152 A 
ATOM     15  H8  UNL     1     -14.534  51.139  22.892  1.00  0.00     0.188 HD
HETATM   16  N9  UNL     1     -13.953  53.002  24.602  1.00  0.00    -0.336 N 
HETATM   17  C23 UNL     1     -11.857  51.925  24.671  1.00  0.00     0.123 A 
HETATM   18  C21 UNL     1     -13.532  53.911  25.496  1.00  0.00     0.183 A 
ATOM     19  H9  UNL     1     -14.903  53.062  24.235  1.00  0.00     0.168 HD
HETATM   20  N10 UNL     1     -12.284  53.826  25.972  1.00  0.00    -0.337 N 
HETATM   21  C22 UNL     1     -11.426  52.867  25.596  1.00  0.00     0.131 A 
ATOM     22  H10 UNL     1     -11.972  54.520  26.651  1.00  0.00     0.168 HD
HETATM   23  N11 UNL     1     -10.223  52.802  26.070  1.00  0.00    -0.383 N 
ATOM     24 2H11 UNL     1      -9.906  53.494  26.749  1.00  0.00     0.157 HD
ATOM     25 1H11 UNL     1      -9.570  52.073  25.784  1.00  0.00     0.157 HD
HETATM   26  N12 UNL     1     -11.000  50.935  24.270  1.00  0.00    -0.335 N 
ATOM     27  H12 UNL     1     -10.050  50.873  24.636  1.00  0.00     0.168 HD
ENDBRANCH   8  10
BRANCH   6  28
HETATM   28  C10 UNL     1     -11.319  46.435  25.354  1.00  0.00     0.123 A 
HETATM   29  C11 UNL     1     -12.167  45.361  25.205  1.00  0.00     0.086 A 
HETATM   30  C12 UNL     1     -11.815  44.375  26.125  1.00  0.00     0.119 A 
HETATM   31  N5  UNL     1     -10.767  44.886  26.799  1.00  0.00    -0.294 N 
HETATM   32  N6  UNL     1     -10.478  46.097  26.343  1.00  0.00    -0.285 N 
ATOM     33  H5  UNL     1     -10.269  44.411  27.551  1.00  0.00     0.187 HD
ATOM     34  H6  UNL     1      -9.723  46.687  26.694  1.00  0.00     0.188 HD
BRANCH  30  35
HETATM   35  C13 UNL     1     -12.415  43.086  26.337  1.00  0.00     0.269 C 
HETATM   36  O1  UNL     1     -12.769  42.756  27.496  1.00  0.00    -0.266 OA
HETATM   37  N4  UNL     1     -12.639  42.141  25.290  1.00  0.00    -0.356 N 
ATOM     38  H4  UNL     1     -12.354  42.401  24.346  1.00  0.00     0.162 HD
BRANCH  37  39
HETATM   39  C14 UNL     1     -13.229  40.867  25.473  1.00  0.00     0.123 C 
BRANCH  39  40
HETATM   40  C15 UNL     1     -13.136  39.909  24.338  1.00  0.00     0.019 C 
BRANCH  40  41
HETATM   41  C16 UNL     1     -11.758  39.698  23.820  1.00  0.00    -0.003 C 
HETATM   42  C17 UNL     1     -11.647  38.929  22.539  1.00  0.00     0.005 C 
ENDBRANCH  40  41
ENDBRANCH  39  40
ENDBRANCH  37  39
ENDBRANCH  30  35
ENDBRANCH   6  28
BRANCH   1  43
HETATM   43  C6  UNL     1      -8.419  48.075  19.974  1.00  0.00     0.078 A 
HETATM   44  C5  UNL     1      -7.063  48.291  19.880  1.00  0.00     0.143 A 
HETATM   45  N1  UNL     1      -6.729  48.278  18.581  1.00  0.00    -0.283 N 
HETATM   46  N14 UNL     1      -7.821  48.063  17.896  1.00  0.00    -0.240 N 
HETATM   47  N13 UNL     1      -8.860  47.936  18.696  1.00  0.00    -0.284 N 
ATOM     48  H14 UNL     1      -7.863  48.003  16.879  1.00  0.00     0.208 HD
ATOM     49  H13 UNL     1      -9.823  47.764  18.407  1.00  0.00     0.188 HD
BRANCH  45  50
HETATM   50  C4  UNL     1      -5.367  48.475  18.118  1.00  0.00     0.182 C 
BRANCH  50  51
HETATM   51  C2  UNL     1      -5.190  49.772  17.447  1.00  0.00    -0.073 C 
HETATM   52  C1  UNL     1      -4.777  50.826  18.126  1.00  0.00     0.015 C 
HETATM   53  C3  UNL     1      -5.475  49.909  15.985  1.00  0.00     0.044 C 
ENDBRANCH  50  51
ENDBRANCH  45  50
ENDBRANCH   1  43
TORSDOF 9
ENDMDL
MODEL 2
REMARK VINA RESULT: -7.564206948      1.269      1.508
REMARK  9 active torsions:
REMARK  status: ('A' for Active; 'I' for Inactive)
REMARK    1  A    between atoms: C2_2  and  C4_4 
REMARK    2  A    between atoms: C4_4  and  N1_5 
REMARK    3  A    between atoms: C6_7  and  C7_8 
REMARK    4  A    between atoms: N3_13  and  C10_15 
REMARK    5  A    between atoms: C12_17  and  C13_18 
REMARK       I    between atoms: C13_18  and  N4_20 
REMARK    6  A    between atoms: N4_20  and  C14_22 
REMARK    7  A    between atoms: C14_22  and  C15_23 
REMARK    8  A    between atoms: C15_23  and  C16_24 
REMARK    9  A    between atoms: C18_30  and  C19_31 
ROOT
HETATM    1  C7  UNL     1      -8.285  47.541  20.935  1.00  0.00     0.010 A 
HETATM    2  C8  UNL     1      -8.334  46.581  21.915  1.00  0.00     0.103 A 
HETATM    3  N2  UNL     1      -9.222  46.667  22.942  1.00  0.00    -0.351 N 
ATOM      4  H2  UNL     1      -9.236  45.939  23.656  1.00  0.00     0.166 HD
HETATM    5  C9  UNL     1     -10.082  47.699  23.031  1.00  0.00     0.120 A 
HETATM    6  N3  UNL     1     -10.914  47.771  24.003  1.00  0.00    -0.327 N 
ATOM      7  H3  UNL     1     -11.558  48.559  24.056  1.00  0.00     0.169 HD
HETATM    8  C18 UNL     1     -10.070  48.679  22.079  1.00  0.00     0.054 A 
HETATM    9  C24 UNL     1      -9.160  48.601  21.017  1.00  0.00     0.034 A 
ENDROOT
BRANCH   8  10
HETATM   10  C19 UNL     1     -11.006  49.790  22.191  1.00  0.00     0.134 A 
HETATM   11  N7  UNL     1     -11.878  49.953  21.148  1.00  0.00    -0.283 N 
HETATM   12  N8  UNL     1     -12.784  50.901  21.090  1.00  0.00    -0.282 N 
ATOM     13  H7  UNL     1     -11.819  49.298  20.368  1.00  0.00     0.188 HD
HETATM   14  C20 UNL     1     -12.847  51.769  22.143  1.00  0.00     0.152 A 
ATOM     15  H8  UNL     1     -13.415  50.985  20.292  1.00  0.00     0.188 HD
HETATM   16  N9  UNL     1     -13.751  52.765  22.150  1.00  0.00    -0.336 N 
HETATM   17  C23 UNL     1     -11.978  51.623  23.204  1.00  0.00     0.123 A 
HETATM   18  C21 UNL     1     -13.827  53.626  23.177  1.00  0.00     0.183 A 
ATOM     19  H9  UNL     1     -14.391  52.867  21.362  1.00  0.00     0.168 HD
HETATM   20  N10 UNL     1     -12.984  53.485  24.207  1.00  0.00    -0.337 N 
HETATM   21  C22 UNL     1     -12.060  52.516  24.264  1.00  0.00     0.131 A 
ATOM     22  H10 UNL     1     -13.047  54.144  24.983  1.00  0.00     0.168 HD
HETATM   23  N11 UNL     1     -11.254  52.398  25.270  1.00  0.00    -0.383 N 
ATOM     24 2H11 UNL     1     -11.313  53.054  26.049  1.00  0.00     0.157 HD
ATOM     25 1H11 UNL     1     -10.551  51.660  25.313  1.00  0.00     0.157 HD
HETATM   26  N12 UNL     1     -11.043  50.623  23.236  1.00  0.00    -0.335 N 
ATOM     27  H12 UNL     1     -10.403  50.519  24.024  1.00  0.00     0.168 HD
ENDBRANCH   8  10
BRANCH   6  28
HETATM   28  C10 UNL     1     -10.950  46.772  25.003  1.00  0.00     0.123 A 
HETATM   29  C11 UNL     1     -11.827  45.716  25.105  1.00  0.00     0.086 A 
HETATM   30  C12 UNL     1     -11.510  44.973  26.241  1.00  0.00     0.119 A 
HETATM   31  N5  UNL     1     -10.454  45.605  26.787  1.00  0.00    -0.294 N 
HETATM   32  N6  UNL     1     -10.126  46.661  26.057  1.00  0.00    -0.285 N 
ATOM     33  H5  UNL     1      -9.975  45.312  27.639  1.00  0.00     0.187 HD
ATOM     34  H6  UNL     1      -9.358  47.299  26.266  1.00  0.00     0.188 HD
BRANCH  30  35
HETATM   35  C13 UNL     1     -12.149  43.789  26.749  1.00  0.00     0.269 C 
HETATM   36  O1  UNL     1     -12.957  43.889  27.705  1.00  0.00    -0.266 OA
HETATM   37  N4  UNL     1     -11.917  42.482  26.222  1.00  0.00    -0.356 N 
ATOM     38  H4  UNL     1     -11.262  42.392  25.446  1.00  0.00     0.162 HD
BRANCH  37  39
HETATM   39  C14 UNL     1     -12.534  41.302  26.703  1.00  0.00     0.123 C 
BRANCH  39  40
HETATM   40  C15 UNL     1     -13.529  40.647  25.812  1.00  0.00     0.019 C 
BRANCH  40  41
HETATM   41  C16 UNL     1     -13.266  40.822  24.359  1.00  0.00    -0.003 C 
HETATM   42  C17 UNL     1     -12.753  39.616  23.633  1.00  0.00     0.005 C 
ENDBRANCH  40  41
ENDBRANCH  39  40
ENDBRANCH  37  39
ENDBRANCH  30  35
ENDBRANCH   6  28
BRANCH   1  43
HETATM   43  C6  UNL     1      -7.316  47.398  19.861  1.00  0.00     0.078 A 
HETATM   44  C5  UNL     1      -6.685  48.418  19.184  1.00  0.00     0.143 A 
HETATM   45  N1  UNL     1      -5.869  47.869  18.272  1.00  0.00    -0.283 N 
HETATM   46  N14 UNL     1      -5.982  46.571  18.373  1.00  0.00    -0.240 N 
HETATM   47  N13 UNL     1      -6.841  46.246  19.317  1.00  0.00    -0.284 N 
ATOM     48  H14 UNL     1      -5.473  45.899  17.799  1.00  0.00     0.208 HD
ATOM     49  H13 UNL     1      -7.105  45.299  19.591  1.00  0.00     0.188 HD
BRANCH  45  50
HETATM   50  C4  UNL     1      -5.045  48.661  17.377  1.00  0.00     0.182 C 
BRANCH  50  51
HETATM   51  C2  UNL     1      -5.847  49.395  16.386  1.00  0.00    -0.073 C 
HETATM   52  C1  UNL     1      -5.723  50.703  16.261  1.00  0.00     0.015 C 
HETATM   53  C3  UNL     1      -6.810  48.664  15.507  1.00  0.00     0.044 C 
ENDBRANCH  50  51
ENDBRANCH  45  50
ENDBRANCH   1  43
TORSDOF 9
ENDMDL
MODEL 3
REMARK VINA RESULT: -7.522276554      1.200      1.399
REMARK  9 active torsions:
REMARK  status: ('A' for Active; 'I' for Inactive)
REMARK    1  A    between atoms: C2_2  and  C4_4 
REMARK    2  A    between atoms: C4_4  and  N1_5 
REMARK    3  A    between atoms: C6_7  and  C7_8 
REMARK    4  A    between atoms: N3_13  and  C10_15 
REMARK    5  A    between atoms: C12_17  and  C13_18 
REMARK       I    between atoms: C13_18  and  N4_20 
REMARK    6  A    between atoms: N4_20  and  C14_22 
REMARK    7  A    between atoms: C14_22  and  C15_23 
REMARK    8  A    between atoms: C15_23  and  C16_24 
REMARK    9  A    between atoms: C18_30  and  C19_31 
ROOT
HETATM    1  C7  UNL     1      -9.203  48.033  21.185  1.00  0.00     0.010 A 
HETATM    2  C8  UNL     1      -9.246  46.855  21.888  1.00  0.00     0.103 A 
HETATM    3  N2  UNL     1      -9.967  46.746  23.036  1.00  0.00    -0.351 N 
ATOM      4  H2  UNL     1      -9.981  45.858  23.538  1.00  0.00     0.166 HD
HETATM    5  C9  UNL     1     -10.661  47.792  23.521  1.00  0.00     0.120 A 
HETATM    6  N3  UNL     1     -11.337  47.678  24.604  1.00  0.00    -0.327 N 
ATOM      7  H3  UNL     1     -11.858  48.480  24.958  1.00  0.00     0.169 HD
HETATM    8  C18 UNL     1     -10.648  48.985  22.856  1.00  0.00     0.054 A 
HETATM    9  C24 UNL     1      -9.910  49.110  21.673  1.00  0.00     0.034 A 
ENDROOT
BRANCH   8  10
HETATM   10  C19 UNL     1     -11.405  50.107  23.395  1.00  0.00     0.134 A 
HETATM   11  N7  UNL     1     -12.681  50.259  22.922  1.00  0.00    -0.283 N 
HETATM   12  N8  UNL     1     -13.496  51.215  23.303  1.00  0.00    -0.282 N 
ATOM     13  H7  UNL     1     -13.018  49.589  22.232  1.00  0.00     0.188 HD
HETATM   14  C20 UNL     1     -13.025  52.104  24.228  1.00  0.00     0.152 A 
ATOM     15  H8  UNL     1     -14.440  51.291  22.924  1.00  0.00     0.188 HD
HETATM   16  N9  UNL     1     -13.807  53.110  24.663  1.00  0.00    -0.336 N 
HETATM   17  C23 UNL     1     -11.744  51.970  24.717  1.00  0.00     0.123 A 
HETATM   18  C21 UNL     1     -13.360  53.991  25.571  1.00  0.00     0.183 A 
ATOM     19  H9  UNL     1     -14.754  53.203  24.296  1.00  0.00     0.168 HD
HETATM   20  N10 UNL     1     -12.116  53.862  26.047  1.00  0.00    -0.337 N 
HETATM   21  C22 UNL     1     -11.286  52.884  25.656  1.00  0.00     0.131 A 
ATOM     22  H10 UNL     1     -11.784  54.537  26.736  1.00  0.00     0.168 HD
HETATM   23  N11 UNL     1     -10.086  52.777  26.130  1.00  0.00    -0.383 N 
ATOM     24 2H11 UNL     1      -9.749  53.449  26.820  1.00  0.00     0.157 HD
ATOM     25 1H11 UNL     1      -9.455  52.033  25.833  1.00  0.00     0.157 HD
HETATM   26  N12 UNL     1     -10.916  50.961  24.301  1.00  0.00    -0.335 N 
ATOM     27  H12 UNL     1      -9.968  50.866  24.667  1.00  0.00     0.168 HD
ENDBRANCH   8  10
BRANCH   6  28
HETATM   28  C10 UNL     1     -11.370  46.456  25.315  1.00  0.00     0.123 A 
HETATM   29  C11 UNL     1     -12.100  45.329  25.016  1.00  0.00     0.086 A 
HETATM   30  C12 UNL     1     -11.840  44.352  25.975  1.00  0.00     0.119 A 
HETATM   31  N5  UNL     1     -10.962  44.922  26.822  1.00  0.00    -0.294 N 
HETATM   32  N6  UNL     1     -10.687  46.159  26.431  1.00  0.00    -0.285 N 
ATOM     33  H5  UNL     1     -10.566  44.468  27.645  1.00  0.00     0.187 HD
ATOM     34  H6  UNL     1     -10.048  46.793  26.910  1.00  0.00     0.188 HD
BRANCH  30  35
HETATM   35  C13 UNL     1     -12.373  43.020  26.072  1.00  0.00     0.269 C 
HETATM   36  O1  UNL     1     -12.757  42.435  25.028  1.00  0.00    -0.266 OA
HETATM   37  N4  UNL     1     -12.495  42.309  27.304  1.00  0.00    -0.356 N 
ATOM     38  H4  UNL     1     -12.186  42.777  28.155  1.00  0.00     0.162 HD
BRANCH  37  39
HETATM   39  C14 UNL     1     -13.015  40.997  27.425  1.00  0.00     0.123 C 
BRANCH  39  40
HETATM   40  C15 UNL     1     -14.392  40.864  27.972  1.00  0.00     0.019 C 
BRANCH  40  41
HETATM   41  C16 UNL     1     -15.272  39.939  27.209  1.00  0.00    -0.003 C 
HETATM   42  C17 UNL     1     -14.964  39.791  25.750  1.00  0.00     0.005 C 
ENDBRANCH  40  41
ENDBRANCH  39  40
ENDBRANCH  37  39
ENDBRANCH  30  35
ENDBRANCH   6  28
BRANCH   1  43
HETATM   43  C6  UNL     1      -8.416  48.093  19.964  1.00  0.00     0.078 A 
HETATM   44  C5  UNL     1      -7.061  48.320  19.872  1.00  0.00     0.143 A 
HETATM   45  N1  UNL     1      -6.723  48.297  18.574  1.00  0.00    -0.283 N 
HETATM   46  N14 UNL     1      -7.811  48.067  17.888  1.00  0.00    -0.240 N 
HETATM   47  N13 UNL     1      -8.851  47.938  18.686  1.00  0.00    -0.284 N 
ATOM     48  H14 UNL     1      -7.849  47.997  16.871  1.00  0.00     0.208 HD
ATOM     49  H13 UNL     1      -9.812  47.754  18.396  1.00  0.00     0.188 HD
BRANCH  45  50
HETATM   50  C4  UNL     1      -5.361  48.502  18.113  1.00  0.00     0.182 C 
BRANCH  50  51
HETATM   51  C2  UNL     1      -5.181  49.816  17.477  1.00  0.00    -0.073 C 
HETATM   52  C1  UNL     1      -4.806  50.860  18.192  1.00  0.00     0.015 C 
HETATM   53  C3  UNL     1      -5.419  49.982  16.010  1.00  0.00     0.044 C 
ENDBRANCH  50  51
ENDBRANCH  45  50
ENDBRANCH   1  43
TORSDOF 9
ENDMDL
MODEL 4
REMARK VINA RESULT: -7.478396376      0.998      1.076
REMARK  9 active torsions:
REMARK  status: ('A' for Active; 'I' for Inactive)
REMARK    1  A    between atoms: C2_2  and  C4_4 
REMARK    2  A    between atoms: C4_4  and  N1_5 
REMARK    3  A    between atoms: C6_7  and  C7_8 
REMARK    4  A    between atoms: N3_13  and  C10_15 
REMARK    5  A    between atoms: C12_17  and  C13_18 
REMARK       I    between atoms: C13_18  and  N4_20 
REMARK    6  A    between atoms: N4_20  and  C14_22 
REMARK    7  A    between atoms: C14_22  and  C15_23 
REMARK    8  A    between atoms: C15_23  and  C16_24 
REMARK    9  A    between atoms: C18_30  and  C19_31 
ROOT
HETATM    1  C7  UNL     1      -9.196  48.065  21.160  1.00  0.00     0.010 A 
HETATM    2  C8  UNL     1      -9.239  46.892  21.872  1.00  0.00     0.103 A 
HETATM    3  N2  UNL     1      -9.962  46.791  23.020  1.00  0.00    -0.351 N 
ATOM      4  H2  UNL     1      -9.976  45.907  23.528  1.00  0.00     0.166 HD
HETATM    5  C9  UNL     1     -10.658  47.840  23.496  1.00  0.00     0.120 A 
HETATM    6  N3  UNL     1     -11.335  47.733  24.579  1.00  0.00    -0.327 N 
ATOM      7  H3  UNL     1     -11.858  48.537  24.926  1.00  0.00     0.169 HD
HETATM    8  C18 UNL     1     -10.645  49.028  22.822  1.00  0.00     0.054 A 
HETATM    9  C24 UNL     1      -9.905  49.144  21.639  1.00  0.00     0.034 A 
ENDROOT
BRANCH   8  10
HETATM   10  C19 UNL     1     -11.404  50.153  23.352  1.00  0.00     0.134 A 
HETATM   11  N7  UNL     1     -12.665  50.323  22.847  1.00  0.00    -0.283 N 
HETATM   12  N8  UNL     1     -13.480  51.284  23.215  1.00  0.00    -0.282 N 
ATOM     13  H7  UNL     1     -12.991  49.662  22.143  1.00  0.00     0.188 HD
HETATM   14  C20 UNL     1     -13.024  52.160  24.160  1.00  0.00     0.152 A 
ATOM     15  H8  UNL     1     -14.414  51.373  22.813  1.00  0.00     0.188 HD
HETATM   16  N9  UNL     1     -13.806  53.170  24.584  1.00  0.00    -0.336 N 
HETATM   17  C23 UNL     1     -11.757  52.007  24.681  1.00  0.00     0.123 A 
HETATM   18  C21 UNL     1     -13.374  54.039  25.511  1.00  0.00     0.183 A 
ATOM     19  H9  UNL     1     -14.743  53.276  24.194  1.00  0.00     0.168 HD
HETATM   20  N10 UNL     1     -12.144  53.892  26.017  1.00  0.00    -0.337 N 
HETATM   21  C22 UNL     1     -11.314  52.909  25.640  1.00  0.00     0.131 A 
ATOM     22  H10 UNL     1     -11.823  54.557  26.721  1.00  0.00     0.168 HD
HETATM   23  N11 UNL     1     -10.128  52.785  26.143  1.00  0.00    -0.383 N 
ATOM     24 2H11 UNL     1      -9.802  53.447  26.847  1.00  0.00     0.157 HD
ATOM     25 1H11 UNL     1      -9.497  52.037  25.855  1.00  0.00     0.157 HD
HETATM   26  N12 UNL     1     -10.929  50.994  24.277  1.00  0.00    -0.335 N 
ATOM     27  H12 UNL     1      -9.993  50.885  24.666  1.00  0.00     0.168 HD
ENDBRANCH   8  10
BRANCH   6  28
HETATM   28  C10 UNL     1     -11.368  46.516  25.299  1.00  0.00     0.123 A 
HETATM   29  C11 UNL     1     -12.104  45.389  25.012  1.00  0.00     0.086 A 
HETATM   30  C12 UNL     1     -11.841  44.419  25.977  1.00  0.00     0.119 A 
HETATM   31  N5  UNL     1     -10.956  44.992  26.814  1.00  0.00    -0.294 N 
HETATM   32  N6  UNL     1     -10.680  46.225  26.413  1.00  0.00    -0.285 N 
ATOM     33  H5  UNL     1     -10.557  44.543  27.638  1.00  0.00     0.187 HD
ATOM     34  H6  UNL     1     -10.036  46.860  26.883  1.00  0.00     0.188 HD
BRANCH  30  35
HETATM   35  C13 UNL     1     -12.378  43.090  26.086  1.00  0.00     0.269 C 
HETATM   36  O1  UNL     1     -12.761  42.495  25.048  1.00  0.00    -0.266 OA
HETATM   37  N4  UNL     1     -12.505  42.391  27.325  1.00  0.00    -0.356 N 
ATOM     38  H4  UNL     1     -12.197  42.868  28.173  1.00  0.00     0.162 HD
BRANCH  37  39
HETATM   39  C14 UNL     1     -13.029  41.083  27.459  1.00  0.00     0.123 C 
BRANCH  39  40
HETATM   40  C15 UNL     1     -12.048  39.971  27.581  1.00  0.00     0.019 C 
BRANCH  40  41
HETATM   41  C16 UNL     1     -11.648  39.356  26.288  1.00  0.00    -0.003 C 
HETATM   42  C17 UNL     1     -10.391  39.888  25.667  1.00  0.00     0.005 C 
ENDBRANCH  40  41
ENDBRANCH  39  40
ENDBRANCH  37  39
ENDBRANCH  30  35
ENDBRANCH   6  28
BRANCH   1  43
HETATM   43  C6  UNL     1      -8.407  48.116  19.940  1.00  0.00     0.078 A 
HETATM   44  C5  UNL     1      -7.053  48.349  19.848  1.00  0.00     0.143 A 
HETATM   45  N1  UNL     1      -6.713  48.315  18.551  1.00  0.00    -0.283 N 
HETATM   46  N14 UNL     1      -7.798  48.073  17.865  1.00  0.00    -0.240 N 
HETATM   47  N13 UNL     1      -8.840  47.946  18.662  1.00  0.00    -0.284 N 
ATOM     48  H14 UNL     1      -7.835  47.992  16.849  1.00  0.00     0.208 HD
ATOM     49  H13 UNL     1      -9.799  47.756  18.373  1.00  0.00     0.188 HD
BRANCH  45  50
HETATM   50  C4  UNL     1      -5.351  48.522  18.090  1.00  0.00     0.182 C 
BRANCH  50  51
HETATM   51  C2  UNL     1      -5.174  49.835  17.452  1.00  0.00    -0.073 C 
HETATM   52  C1  UNL     1      -4.766  50.873  18.158  1.00  0.00     0.015 C 
HETATM   53  C3  UNL     1      -5.451  50.006  15.992  1.00  0.00     0.044 C 
ENDBRANCH  50  51
ENDBRANCH  45  50
ENDBRANCH   1  43
TORSDOF 9
ENDMDL
MODEL 5
REMARK VINA RESULT: -7.341314155      2.833      3.389
REMARK  9 active torsions:
REMARK  status: ('A' for Active; 'I' for Inactive)
REMARK    1  A    between atoms: C2_2  and  C4_4 
REMARK    2  A    between atoms: C4_4  and  N1_5 
REMARK    3  A    between atoms: C6_7  and  C7_8 
REMARK    4  A    between atoms: N3_13  and  C10_15 
REMARK    5  A    between atoms: C12_17  and  C13_18 
REMARK       I    between atoms: C13_18  and  N4_20 
REMARK    6  A    between atoms: N4_20  and  C14_22 
REMARK    7  A    between atoms: C14_22  and  C15_23 
REMARK    8  A    between atoms: C15_23  and  C16_24 
REMARK    9  A    between atoms: C18_30  and  C19_31 
ROOT
HETATM    1  C7  UNL     1      -8.137  47.632  20.813  1.00  0.00     0.010 A 
HETATM    2  C8  UNL     1      -8.077  46.721  21.838  1.00  0.00     0.103 A 
HETATM    3  N2  UNL     1      -8.923  46.800  22.900  1.00  0.00    -0.351 N 
ATOM      4  H2  UNL     1      -8.857  46.109  23.647  1.00  0.00     0.166 HD
HETATM    5  C9  UNL     1      -9.847  47.775  22.980  1.00  0.00     0.120 A 
HETATM    6  N3  UNL     1     -10.639  47.840  23.985  1.00  0.00    -0.327 N 
ATOM      7  H3  UNL     1     -11.334  48.585  24.031  1.00  0.00     0.169 HD
HETATM    8  C18 UNL     1      -9.944  48.705  21.984  1.00  0.00     0.054 A 
HETATM    9  C24 UNL     1      -9.078  48.634  20.885  1.00  0.00     0.034 A 
ENDROOT
BRANCH   8  10
HETATM   10  C19 UNL     1     -10.949  49.755  22.086  1.00  0.00     0.134 A 
HETATM   11  N7  UNL     1     -11.771  49.913  21.003  1.00  0.00    -0.283 N 
HETATM   12  N8  UNL     1     -12.727  50.810  20.931  1.00  0.00    -0.282 N 
ATOM     13  H7  UNL     1     -11.631  49.297  20.203  1.00  0.00     0.188 HD
HETATM   14  C20 UNL     1     -12.898  51.627  22.013  1.00  0.00     0.152 A 
ATOM     15  H8  UNL     1     -13.318  50.892  20.103  1.00  0.00     0.188 HD
HETATM   16  N9  UNL     1     -13.858  52.569  22.009  1.00  0.00    -0.336 N 
HETATM   17  C23 UNL     1     -12.081  51.485  23.114  1.00  0.00     0.123 A 
HETATM   18  C21 UNL     1     -14.040  53.379  23.063  1.00  0.00     0.183 A 
ATOM     19  H9  UNL     1     -14.459  52.668  21.190  1.00  0.00     0.168 HD
HETATM   20  N10 UNL     1     -13.247  53.243  24.133  1.00  0.00    -0.337 N 
HETATM   21  C22 UNL     1     -12.272  52.325  24.203  1.00  0.00     0.131 A 
ATOM     22  H10 UNL     1     -13.391  53.863  24.930  1.00  0.00     0.168 HD
HETATM   23  N11 UNL     1     -11.516  52.210  25.248  1.00  0.00    -0.383 N 
ATOM     24 2H11 UNL     1     -11.656  52.827  26.048  1.00  0.00     0.157 HD
ATOM     25 1H11 UNL     1     -10.774  51.512  25.301  1.00  0.00     0.157 HD
HETATM   26  N12 UNL     1     -11.091  50.539  23.160  1.00  0.00    -0.335 N 
ATOM     27  H12 UNL     1     -10.490  50.438  23.978  1.00  0.00     0.168 HD
ENDBRANCH   8  10
BRANCH   6  28
HETATM   28  C10 UNL     1     -10.564  46.893  25.033  1.00  0.00     0.123 A 
HETATM   29  C11 UNL     1      -9.570  46.759  25.975  1.00  0.00     0.086 A 
HETATM   30  C12 UNL     1      -9.889  45.699  26.821  1.00  0.00     0.119 A 
HETATM   31  N5  UNL     1     -11.063  45.227  26.362  1.00  0.00    -0.294 N 
HETATM   32  N6  UNL     1     -11.457  45.931  25.310  1.00  0.00    -0.285 N 
ATOM     33  H5  UNL     1     -11.574  44.442  26.764  1.00  0.00     0.187 HD
ATOM     34  H6  UNL     1     -12.317  45.766  24.787  1.00  0.00     0.188 HD
BRANCH  30  35
HETATM   35  C13 UNL     1      -9.150  45.192  27.946  1.00  0.00     0.269 C 
HETATM   36  O1  UNL     1      -9.774  44.780  28.956  1.00  0.00    -0.266 OA
HETATM   37  N4  UNL     1      -7.724  45.125  27.986  1.00  0.00    -0.356 N 
ATOM     38  H4  UNL     1      -7.210  45.458  27.170  1.00  0.00     0.162 HD
BRANCH  37  39
HETATM   39  C14 UNL     1      -6.974  44.630  29.079  1.00  0.00     0.123 C 
BRANCH  39  40
HETATM   40  C15 UNL     1      -6.008  43.534  28.796  1.00  0.00     0.019 C 
BRANCH  40  41
HETATM   41  C16 UNL     1      -6.229  42.835  27.502  1.00  0.00    -0.003 C 
HETATM   42  C17 UNL     1      -5.448  41.573  27.294  1.00  0.00     0.005 C 
ENDBRANCH  40  41
ENDBRANCH  39  40
ENDBRANCH  37  39
ENDBRANCH  30  35
ENDBRANCH   6  28
BRANCH   1  43
HETATM   43  C6  UNL     1      -7.207  47.500  19.703  1.00  0.00     0.078 A 
HETATM   44  C5  UNL     1      -6.600  48.526  19.015  1.00  0.00     0.143 A 
HETATM   45  N1  UNL     1      -5.818  47.986  18.068  1.00  0.00    -0.283 N 
HETATM   46  N14 UNL     1      -5.930  46.688  18.158  1.00  0.00    -0.240 N 
HETATM   47  N13 UNL     1      -6.755  46.353  19.128  1.00  0.00    -0.284 N 
ATOM     48  H14 UNL     1      -5.443  46.022  17.557  1.00  0.00     0.208 HD
ATOM     49  H13 UNL     1      -7.010  45.404  19.401  1.00  0.00     0.188 HD
BRANCH  45  50
HETATM   50  C4  UNL     1      -5.025  48.788  17.152  1.00  0.00     0.182 C 
BRANCH  50  51
HETATM   51  C2  UNL     1      -5.855  49.463  16.143  1.00  0.00    -0.073 C 
HETATM   52  C1  UNL     1      -5.693  50.750  15.894  1.00  0.00     0.015 C 
HETATM   53  C3  UNL     1      -6.892  48.697  15.385  1.00  0.00     0.044 C 
ENDBRANCH  50  51
ENDBRANCH  45  50
ENDBRANCH   1  43
TORSDOF 9
ENDMDL
