MODEL 1
REMARK VINA RESULT: -6.555889236      0.000      0.000
REMARK  2 active torsions:
REMARK  status: ('A' for Active; 'I' for Inactive)
REMARK    1  A    between atoms: C12_13  and  N2_14 
REMARK    2  A    between atoms: N2_14  and  N3_16 
ROOT
HETATM    1  C1  UNL     1      69.796  47.724   9.217  1.00  0.00     0.081 C 
HETATM    2  C2  UNL     1      70.356  48.915   9.993  1.00  0.00     0.076 C 
HETATM    3  N1  UNL     1      69.676  49.564  10.741  1.00  0.00    -0.429 NA
HETATM    4  C3  UNL     1      69.196  50.453  11.616  1.00  0.00     0.154 C 
HETATM    5  C4  UNL     1      69.740  51.844  11.684  1.00  0.00     0.059 C 
HETATM    6  C5  UNL     1      70.054  52.384  13.021  1.00  0.00     0.006 C 
HETATM    7  C6  UNL     1      70.831  51.546  13.971  1.00  0.00     0.000 C 
HETATM    8  C7  UNL     1      72.315  51.543  13.777  1.00  0.00     0.000 C 
HETATM    9  C8  UNL     1      73.005  50.239  13.874  1.00  0.00     0.000 C 
HETATM   10  C9  UNL     1      72.390  49.029  13.327  1.00  0.00     0.000 C 
HETATM   11  C10 UNL     1      72.840  48.580  11.962  1.00  0.00     0.002 C 
HETATM   12  C11 UNL     1      72.673  49.532  10.851  1.00  0.00     0.028 C 
HETATM   13  C12 UNL     1      71.777  49.199   9.737  1.00  0.00     0.138 C 
ENDROOT
BRANCH  13  14
HETATM   14  N2  UNL     1      71.825  50.295   8.769  1.00  0.00    -0.231 NA
HETATM   15  C13 UNL     1      72.879  50.103   7.798  1.00  0.00     0.136 C 
BRANCH  14  16
HETATM   16  N3  UNL     1      70.576  50.385   8.097  1.00  0.00    -0.363 NA
ATOM     17  H32 UNL     1      69.821  50.255   8.769  1.00  0.00     0.171 HD
ATOM     18  H31 UNL     1      70.509  51.289   7.627  1.00  0.00     0.171 HD
ENDBRANCH  14  16
ENDBRANCH  13  14
TORSDOF 2
ENDMDL
MODEL 2
REMARK VINA RESULT: -6.481186760      2.659      4.867
REMARK  2 active torsions:
REMARK  status: ('A' for Active; 'I' for Inactive)
REMARK    1  A    between atoms: C12_13  and  N2_14 
REMARK    2  A    between atoms: N2_14  and  N3_16 
ROOT
HETATM    1  C1  UNL     1      66.830  48.892   6.860  1.00  0.00     0.081 C 
HETATM    2  C2  UNL     1      68.287  48.688   7.270  1.00  0.00     0.076 C 
HETATM    3  N1  UNL     1      69.186  49.280   6.737  1.00  0.00    -0.429 NA
HETATM    4  C3  UNL     1      70.371  49.769   6.354  1.00  0.00     0.154 C 
HETATM    5  C4  UNL     1      71.613  48.942   6.437  1.00  0.00     0.059 C 
HETATM    6  C5  UNL     1      72.809  49.573   7.027  1.00  0.00     0.006 C 
HETATM    7  C6  UNL     1      72.674  50.317   8.306  1.00  0.00     0.000 C 
HETATM    8  C7  UNL     1      72.673  49.484   9.550  1.00  0.00     0.000 C 
HETATM    9  C8  UNL     1      71.680  49.827  10.590  1.00  0.00     0.000 C 
HETATM   10  C9  UNL     1      70.326  50.240  10.219  1.00  0.00     0.000 C 
HETATM   11  C10 UNL     1      69.244  49.192  10.267  1.00  0.00     0.002 C 
HETATM   12  C11 UNL     1      69.433  47.992   9.434  1.00  0.00     0.028 C 
HETATM   13  C12 UNL     1      68.488  47.707   8.348  1.00  0.00     0.138 C 
ENDROOT
BRANCH  13  14
HETATM   14  N2  UNL     1      68.890  46.452   7.712  1.00  0.00    -0.231 NA
HETATM   15  C13 UNL     1      70.096  45.917   8.304  1.00  0.00     0.136 C 
BRANCH  14  16
HETATM   16  N3  UNL     1      67.842  45.502   7.841  1.00  0.00    -0.363 NA
ATOM     17  H32 UNL     1      67.387  45.375   6.937  1.00  0.00     0.171 HD
ATOM     18  H31 UNL     1      68.222  44.624   8.196  1.00  0.00     0.171 HD
ENDBRANCH  14  16
ENDBRANCH  13  14
TORSDOF 2
ENDMDL
MODEL 3
REMARK VINA RESULT: -6.386217244      2.208      4.153
REMARK  2 active torsions:
REMARK  status: ('A' for Active; 'I' for Inactive)
REMARK    1  A    between atoms: C12_13  and  N2_14 
REMARK    2  A    between atoms: N2_14  and  N3_16 
ROOT
HETATM    1  C1  UNL     1      70.626  50.102   5.995  1.00  0.00     0.081 C 
HETATM    2  C2  UNL     1      70.317  49.947   7.483  1.00  0.00     0.076 C 
HETATM    3  N1  UNL     1      71.185  49.833   8.305  1.00  0.00    -0.429 NA
HETATM    4  C3  UNL     1      71.899  49.690   9.426  1.00  0.00     0.154 C 
HETATM    5  C4  UNL     1      71.370  48.911  10.588  1.00  0.00     0.059 C 
HETATM    6  C5  UNL     1      71.491  49.523  11.925  1.00  0.00     0.006 C 
HETATM    7  C6  UNL     1      71.087  50.941  12.108  1.00  0.00     0.000 C 
HETATM    8  C7  UNL     1      69.621  51.185  12.283  1.00  0.00     0.000 C 
HETATM    9  C8  UNL     1      69.034  52.326  11.548  1.00  0.00     0.000 C 
HETATM   10  C9  UNL     1      69.471  52.637  10.186  1.00  0.00     0.000 C 
HETATM   11  C10 UNL     1      68.615  52.136   9.052  1.00  0.00     0.002 C 
HETATM   12  C11 UNL     1      68.388  50.683   8.972  1.00  0.00     0.028 C 
HETATM   13  C12 UNL     1      68.883  49.934   7.811  1.00  0.00     0.138 C 
ENDROOT
BRANCH  13  14
HETATM   14  N2  UNL     1      68.495  48.533   7.974  1.00  0.00    -0.231 NA
HETATM   15  C13 UNL     1      67.632  48.348   9.119  1.00  0.00     0.136 C 
BRANCH  14  16
HETATM   16  N3  UNL     1      67.822  48.091   6.803  1.00  0.00    -0.363 NA
ATOM     17  H32 UNL     1      67.178  47.339   7.046  1.00  0.00     0.171 HD
ATOM     18  H31 UNL     1      67.335  48.878   6.374  1.00  0.00     0.171 HD
ENDBRANCH  14  16
ENDBRANCH  13  14
TORSDOF 2
ENDMDL
MODEL 4
REMARK VINA RESULT: -6.286280179      1.694      4.339
REMARK  2 active torsions:
REMARK  status: ('A' for Active; 'I' for Inactive)
REMARK    1  A    between atoms: C12_13  and  N2_14 
REMARK    2  A    between atoms: N2_14  and  N3_16 
ROOT
HETATM    1  C1  UNL     1      68.970  53.613  10.424  1.00  0.00     0.081 C 
HETATM    2  C2  UNL     1      69.451  52.293  11.023  1.00  0.00     0.076 C 
HETATM    3  N1  UNL     1      70.168  51.544  10.419  1.00  0.00    -0.429 NA
HETATM    4  C3  UNL     1      70.942  50.530  10.017  1.00  0.00     0.154 C 
HETATM    5  C4  UNL     1      70.701  49.134  10.495  1.00  0.00     0.059 C 
HETATM    6  C5  UNL     1      71.872  48.366  10.960  1.00  0.00     0.006 C 
HETATM    7  C6  UNL     1      72.829  49.007  11.898  1.00  0.00     0.000 C 
HETATM    8  C7  UNL     1      72.430  49.005  13.341  1.00  0.00     0.000 C 
HETATM    9  C8  UNL     1      72.644  50.255  14.102  1.00  0.00     0.000 C 
HETATM   10  C9  UNL     1      72.398  51.556  13.479  1.00  0.00     0.000 C 
HETATM   11  C10 UNL     1      71.077  52.221  13.763  1.00  0.00     0.002 C 
HETATM   12  C11 UNL     1      69.858  51.478  13.401  1.00  0.00     0.028 C 
HETATM   13  C12 UNL     1      68.953  52.020  12.381  1.00  0.00     0.138 C 
ENDROOT
BRANCH  13  14
HETATM   14  N2  UNL     1      67.820  51.105  12.243  1.00  0.00    -0.231 NA
HETATM   15  C13 UNL     1      66.994  51.097  13.430  1.00  0.00     0.136 C 
BRANCH  14  16
HETATM   16  N3  UNL     1      67.033  51.494  11.126  1.00  0.00    -0.363 NA
ATOM     17  H32 UNL     1      67.549  51.305  10.267  1.00  0.00     0.171 HD
ATOM     18  H31 UNL     1      66.144  50.993  11.147  1.00  0.00     0.171 HD
ENDBRANCH  14  16
ENDBRANCH  13  14
TORSDOF 2
ENDMDL
MODEL 5
REMARK VINA RESULT: -6.272579912      2.855      5.185
REMARK  2 active torsions:
REMARK  status: ('A' for Active; 'I' for Inactive)
REMARK    1  A    between atoms: C12_13  and  N2_14 
REMARK    2  A    between atoms: N2_14  and  N3_16 
ROOT
HETATM    1  C1  UNL     1      66.952  54.492  11.159  1.00  0.00     0.081 C 
HETATM    2  C2  UNL     1      67.567  53.121  10.887  1.00  0.00     0.076 C 
HETATM    3  N1  UNL     1      68.274  52.919   9.937  1.00  0.00    -0.429 NA
HETATM    4  C3  UNL     1      69.072  52.391   9.002  1.00  0.00     0.154 C 
HETATM    5  C4  UNL     1      68.964  50.951   8.614  1.00  0.00     0.059 C 
HETATM    6  C5  UNL     1      70.218  50.180   8.517  1.00  0.00     0.006 C 
HETATM    7  C6  UNL     1      71.212  50.280   9.616  1.00  0.00     0.000 C 
HETATM    8  C7  UNL     1      70.945  49.427  10.818  1.00  0.00     0.000 C 
HETATM    9  C8  UNL     1      71.147  50.049  12.144  1.00  0.00     0.000 C 
HETATM   10  C9  UNL     1      70.763  51.441  12.379  1.00  0.00     0.000 C 
HETATM   11  C10 UNL     1      69.433  51.693  13.039  1.00  0.00     0.002 C 
HETATM   12  C11 UNL     1      68.236  51.160  12.365  1.00  0.00     0.028 C 
HETATM   13  C12 UNL     1      67.211  52.085  11.868  1.00  0.00     0.138 C 
ENDROOT
BRANCH  13  14
HETATM   14  N2  UNL     1      66.131  51.293  11.279  1.00  0.00    -0.231 NA
HETATM   15  C13 UNL     1      65.600  50.332  12.220  1.00  0.00     0.136 C 
BRANCH  14  16
HETATM   16  N3  UNL     1      65.088  52.160  10.855  1.00  0.00    -0.363 NA
ATOM     17  H32 UNL     1      64.664  52.602  11.670  1.00  0.00     0.171 HD
ATOM     18  H31 UNL     1      65.466  52.853  10.207  1.00  0.00     0.171 HD
ENDBRANCH  14  16
ENDBRANCH  13  14
TORSDOF 2
ENDMDL
