MODEL 1
REMARK VINA RESULT: -5.560242805      0.000      0.000
REMARK  6 active torsions:
REMARK  status: ('A' for Active; 'I' for Inactive)
REMARK    1  A    between atoms: N1_2  and  C3_5 
REMARK    2  A    between atoms: C3_5  and  C4_6 
REMARK    3  A    between atoms: C4_6  and  O1_7 
REMARK    4  A    between atoms: C4_6  and  C5_9 
REMARK    5  A    between atoms: C5_9  and  O2_10 
REMARK    6  A    between atoms: C6_13  and  O4_14 
ROOT
HETATM    1  C4  UNL     1      17.402 -21.644 -25.507  1.00  0.00     0.212 C 
ENDROOT
BRANCH   1   2
HETATM    2  C3  UNL     1      16.327 -20.892 -26.206  1.00  0.00     0.287 C 
BRANCH   2   3
HETATM    3  N1  UNL     1      15.757 -21.475 -27.354  1.00  0.00    -0.015 N 
HETATM    4  C1  UNL     1      14.914 -22.641 -27.057  1.00  0.00     0.287 C 
HETATM    5  C2  UNL     1      14.808 -20.512 -27.944  1.00  0.00     0.287 C 
HETATM    6 BR1  UNL     1      16.936 -21.919 -28.734  1.00  0.00     0.163 Br
ENDBRANCH   2   3
ENDBRANCH   1   2
BRANCH   1   7
HETATM    7  O1  UNL     1      17.023 -22.306 -24.373  1.00  0.00    -0.388 OA
ATOM      8  H1  UNL     1      16.984 -21.782 -23.582  1.00  0.00     0.210 HD
ENDBRANCH   1   7
BRANCH   1   9
HETATM    9  C5  UNL     1      18.620 -20.801 -25.191  1.00  0.00     0.243 A 
HETATM   10  O3  UNL     1      19.878 -21.312 -25.387  1.00  0.00    -0.313 OA
HETATM   11  C6  UNL     1      19.441 -20.359 -26.368  1.00  0.00     0.326 A 
BRANCH   9  12
HETATM   12  O2  UNL     1      18.480 -19.798 -24.210  1.00  0.00    -0.359 OA
ATOM     13  H2  UNL     1      18.523 -18.894 -24.498  1.00  0.00     0.213 HD
ENDBRANCH   9  12
BRANCH  11  14
HETATM   14  O4  UNL     1      20.182 -19.199 -26.316  1.00  0.00    -0.366 OA
ATOM     15  H4  UNL     1      20.386 -18.715 -27.107  1.00  0.00     0.212 HD
ENDBRANCH  11  14
ENDBRANCH   1   9
TORSDOF 6
ENDMDL
MODEL 2
REMARK VINA RESULT: -5.520384606      1.124      1.338
REMARK  6 active torsions:
REMARK  status: ('A' for Active; 'I' for Inactive)
REMARK    1  A    between atoms: N1_2  and  C3_5 
REMARK    2  A    between atoms: C3_5  and  C4_6 
REMARK    3  A    between atoms: C4_6  and  O1_7 
REMARK    4  A    between atoms: C4_6  and  C5_9 
REMARK    5  A    between atoms: C5_9  and  O2_10 
REMARK    6  A    between atoms: C6_13  and  O4_14 
ROOT
HETATM    1  C4  UNL     1      17.348 -21.608 -25.663  1.00  0.00     0.212 C 
ENDROOT
BRANCH   1   2
HETATM    2  C3  UNL     1      16.359 -20.784 -26.405  1.00  0.00     0.287 C 
BRANCH   2   3
HETATM    3  N1  UNL     1      15.674 -21.388 -27.478  1.00  0.00    -0.015 N 
HETATM    4  C1  UNL     1      14.894 -20.436 -28.279  1.00  0.00     0.287 C 
HETATM    5  C2  UNL     1      16.670 -21.902 -28.437  1.00  0.00     0.287 C 
HETATM    6 BR1  UNL     1      14.592 -22.850 -27.055  1.00  0.00     0.163 Br
ENDBRANCH   2   3
ENDBRANCH   1   2
BRANCH   1   7
HETATM    7  O1  UNL     1      16.884 -22.217 -24.530  1.00  0.00    -0.388 OA
ATOM      8  H1  UNL     1      17.541 -22.639 -23.989  1.00  0.00     0.210 HD
ENDBRANCH   1   7
BRANCH   1   9
HETATM    9  C5  UNL     1      18.621 -20.861 -25.322  1.00  0.00     0.243 A 
HETATM   10  O3  UNL     1      19.841 -21.407 -25.632  1.00  0.00    -0.313 OA
HETATM   11  C6  UNL     1      19.411 -20.336 -26.486  1.00  0.00     0.326 A 
BRANCH   9  12
HETATM   12  O2  UNL     1      18.577 -19.962 -24.237  1.00  0.00    -0.359 OA
ATOM     13  H2  UNL     1      18.992 -20.232 -23.427  1.00  0.00     0.213 HD
ENDBRANCH   9  12
BRANCH  11  14
HETATM   14  O4  UNL     1      20.212 -19.224 -26.352  1.00  0.00    -0.366 OA
ATOM     15  H4  UNL     1      20.614 -19.011 -25.518  1.00  0.00     0.212 HD
ENDBRANCH  11  14
ENDBRANCH   1   9
TORSDOF 6
ENDMDL
MODEL 3
REMARK VINA RESULT: -4.817279588      1.516      1.864
REMARK  6 active torsions:
REMARK  status: ('A' for Active; 'I' for Inactive)
REMARK    1  A    between atoms: N1_2  and  C3_5 
REMARK    2  A    between atoms: C3_5  and  C4_6 
REMARK    3  A    between atoms: C4_6  and  O1_7 
REMARK    4  A    between atoms: C4_6  and  C5_9 
REMARK    5  A    between atoms: C5_9  and  O2_10 
REMARK    6  A    between atoms: C6_13  and  O4_14 
ROOT
HETATM    1  C4  UNL     1      17.948 -20.724 -26.842  1.00  0.00     0.212 C 
ENDROOT
BRANCH   1   2
HETATM    2  C3  UNL     1      17.061 -21.915 -26.925  1.00  0.00     0.287 C 
BRANCH   2   3
HETATM    3  N1  UNL     1      15.670 -21.698 -26.945  1.00  0.00    -0.015 N 
HETATM    4  C1  UNL     1      14.888 -22.941 -26.979  1.00  0.00     0.287 C 
HETATM    5  C2  UNL     1      15.275 -21.085 -25.662  1.00  0.00     0.287 C 
HETATM    6 BR1  UNL     1      15.027 -20.543 -28.265  1.00  0.00     0.163 Br
ENDBRANCH   2   3
ENDBRANCH   1   2
BRANCH   1   7
HETATM    7  O1  UNL     1      18.557 -20.355 -28.008  1.00  0.00    -0.388 OA
ATOM      8  H1  UNL     1      19.306 -19.777 -27.918  1.00  0.00     0.210 HD
ENDBRANCH   1   7
BRANCH   1   9
HETATM    9  C5  UNL     1      19.001 -20.830 -25.758  1.00  0.00     0.243 A 
HETATM   10  O3  UNL     1      19.921 -21.847 -25.792  1.00  0.00    -0.313 OA
HETATM   11  C6  UNL     1      20.415 -20.557 -26.182  1.00  0.00     0.326 A 
BRANCH   9  12
HETATM   12  O2  UNL     1      18.690 -20.287 -24.494  1.00  0.00    -0.359 OA
ATOM     13  H2  UNL     1      18.492 -19.359 -24.453  1.00  0.00     0.213 HD
ENDBRANCH   9  12
BRANCH  11  14
HETATM   14  O4  UNL     1      21.340 -20.073 -25.283  1.00  0.00    -0.366 OA
ATOM     15  H4  UNL     1      21.872 -19.315 -25.493  1.00  0.00     0.212 HD
ENDBRANCH  11  14
ENDBRANCH   1   9
TORSDOF 6
ENDMDL
MODEL 4
REMARK VINA RESULT: -4.726804780      1.599      1.985
REMARK  6 active torsions:
REMARK  status: ('A' for Active; 'I' for Inactive)
REMARK    1  A    between atoms: N1_2  and  C3_5 
REMARK    2  A    between atoms: C3_5  and  C4_6 
REMARK    3  A    between atoms: C4_6  and  O1_7 
REMARK    4  A    between atoms: C4_6  and  C5_9 
REMARK    5  A    between atoms: C5_9  and  O2_10 
REMARK    6  A    between atoms: C6_13  and  O4_14 
ROOT
HETATM    1  C4  UNL     1      18.075 -20.607 -26.933  1.00  0.00     0.212 C 
ENDROOT
BRANCH   1   2
HETATM    2  C3  UNL     1      17.154 -21.761 -27.106  1.00  0.00     0.287 C 
BRANCH   2   3
HETATM    3  N1  UNL     1      15.772 -21.524 -26.974  1.00  0.00    -0.015 N 
HETATM    4  C1  UNL     1      15.409 -20.897 -25.697  1.00  0.00     0.287 C 
HETATM    5  C2  UNL     1      15.374 -20.513 -27.973  1.00  0.00     0.287 C 
HETATM    6 BR1  UNL     1      14.646 -22.984 -27.271  1.00  0.00     0.163 Br
ENDBRANCH   2   3
ENDBRANCH   1   2
BRANCH   1   7
HETATM    7  O1  UNL     1      18.749 -20.211 -28.054  1.00  0.00    -0.388 OA
ATOM      8  H1  UNL     1      18.399 -20.526 -28.879  1.00  0.00     0.210 HD
ENDBRANCH   1   7
BRANCH   1   9
HETATM    9  C5  UNL     1      19.073 -20.796 -25.809  1.00  0.00     0.243 A 
HETATM   10  O3  UNL     1      19.952 -21.849 -25.841  1.00  0.00    -0.313 OA
HETATM   11  C6  UNL     1      20.515 -20.567 -26.161  1.00  0.00     0.326 A 
BRANCH   9  12
HETATM   12  O2  UNL     1      18.728 -20.286 -24.540  1.00  0.00    -0.359 OA
ATOM     13  H2  UNL     1      19.088 -20.725 -23.779  1.00  0.00     0.213 HD
ENDBRANCH   9  12
BRANCH  11  14
HETATM   14  O4  UNL     1      21.418 -20.155 -25.206  1.00  0.00    -0.366 OA
ATOM     15  H4  UNL     1      21.155 -20.055 -24.298  1.00  0.00     0.212 HD
ENDBRANCH  11  14
ENDBRANCH   1   9
TORSDOF 6
ENDMDL
MODEL 5
REMARK VINA RESULT: -4.712739097      1.377      1.806
REMARK  6 active torsions:
REMARK  status: ('A' for Active; 'I' for Inactive)
REMARK    1  A    between atoms: N1_2  and  C3_5 
REMARK    2  A    between atoms: C3_5  and  C4_6 
REMARK    3  A    between atoms: C4_6  and  O1_7 
REMARK    4  A    between atoms: C4_6  and  C5_9 
REMARK    5  A    between atoms: C5_9  and  O2_10 
REMARK    6  A    between atoms: C6_13  and  O4_14 
ROOT
HETATM    1  C4  UNL     1      17.236 -21.516 -25.827  1.00  0.00     0.212 C 
ENDROOT
BRANCH   1   2
HETATM    2  C3  UNL     1      16.158 -20.772 -26.528  1.00  0.00     0.287 C 
BRANCH   2   3
HETATM    3  N1  UNL     1      15.445 -21.445 -27.539  1.00  0.00    -0.015 N 
HETATM    4  C1  UNL     1      14.531 -20.571 -28.286  1.00  0.00     0.287 C 
HETATM    5  C2  UNL     1      16.404 -21.890 -28.568  1.00  0.00     0.287 C 
HETATM    6 BR1  UNL     1      14.521 -22.984 -27.022  1.00  0.00     0.163 Br
ENDBRANCH   2   3
ENDBRANCH   1   2
BRANCH   1   7
HETATM    7  O1  UNL     1      16.942 -21.934 -24.558  1.00  0.00    -0.388 OA
ATOM      8  H1  UNL     1      17.170 -22.833 -24.356  1.00  0.00     0.210 HD
ENDBRANCH   1   7
BRANCH   1   9
HETATM    9  C5  UNL     1      18.559 -20.779 -25.799  1.00  0.00     0.243 A 
HETATM   10  O3  UNL     1      19.129 -20.437 -24.599  1.00  0.00    -0.313 OA
HETATM   11  C6  UNL     1      19.735 -21.551 -25.274  1.00  0.00     0.326 A 
BRANCH   9  12
HETATM   12  O2  UNL     1      18.880 -19.977 -26.914  1.00  0.00    -0.359 OA
ATOM     13  H2  UNL     1      19.748 -20.074 -27.287  1.00  0.00     0.213 HD
ENDBRANCH   9  12
BRANCH  11  14
HETATM   14  O4  UNL     1      21.014 -21.259 -25.692  1.00  0.00    -0.366 OA
ATOM     15  H4  UNL     1      21.185 -20.989 -26.586  1.00  0.00     0.212 HD
ENDBRANCH  11  14
ENDBRANCH   1   9
TORSDOF 6
ENDMDL
