MODEL 1
REMARK VINA RESULT: -7.063757305      0.000      0.000
REMARK  17 active torsions:
REMARK  status: ('A' for Active; 'I' for Inactive)
REMARK    1  A    between atoms: C4_4  and  O1_6 
REMARK    2  A    between atoms: C6_8  and  O2_9 
REMARK    3  A    between atoms: O2_9  and  C7_10 
REMARK    4  A    between atoms: C8_12  and  O4_13 
REMARK    5  A    between atoms: C10_15  and  O5_16 
REMARK    6  A    between atoms: C11_18  and  O6_19 
REMARK    7  A    between atoms: C12_21  and  O7_22 
REMARK    8  A    between atoms: C13_24  and  C14_25 
REMARK    9  A    between atoms: C14_25  and  O8_26 
REMARK   10  A    between atoms: C14_25  and  C15_28 
REMARK   11  A    between atoms: C15_28  and  O9_29 
REMARK   12  A    between atoms: C15_28  and  C16_31 
REMARK   13  A    between atoms: C16_31  and  O10_33 
REMARK   14  A    between atoms: O10_33  and  C18_34 
REMARK   15  A    between atoms: C18_34  and  C19_35 
REMARK   16  A    between atoms: C21_37  and  O11_38 
REMARK   17  A    between atoms: C25_44  and  N1_45 
ROOT
HETATM    1  C1  UNL     1      -0.375   1.526   5.152  1.00  0.00     0.015 C 
HETATM    2  C2  UNL     1      -1.177   1.361   6.180  1.00  0.00    -0.077 C 
HETATM    3  C3  UNL     1      -0.942   1.646   7.626  1.00  0.00     0.074 C 
HETATM    4  C4  UNL     1      -1.690   0.580   8.362  1.00  0.00     0.085 C 
HETATM    5  C5  UNL     1      -2.334   1.074   9.634  1.00  0.00     0.049 C 
HETATM    6  C6  UNL     1      -2.749   0.056   7.387  1.00  0.00     0.169 C 
HETATM    7  C13 UNL     1      -2.569   0.822   6.102  1.00  0.00     0.077 C 
ENDROOT
BRANCH   7   8
HETATM    8  C14 UNL     1      -3.480   1.984   5.917  1.00  0.00     0.160 C 
BRANCH   8   9
HETATM    9  O8  UNL     1      -4.508   2.079   6.844  1.00  0.00    -0.392 OA
ATOM     10  H8  UNL     1      -5.327   2.422   6.504  1.00  0.00     0.210 HD
ENDBRANCH   8   9
BRANCH   8  11
HETATM   11  C15 UNL     1      -4.008   2.197   4.549  1.00  0.00     0.176 C 
BRANCH  11  12
HETATM   12  O9  UNL     1      -3.562   3.397   4.029  1.00  0.00    -0.390 OA
ATOM     13  H9  UNL     1      -3.898   3.533   3.151  1.00  0.00     0.210 HD
ENDBRANCH  11  12
BRANCH  11  14
HETATM   14  C16 UNL     1      -3.612   1.079   3.581  1.00  0.00     0.148 C 
HETATM   15  C17 UNL     1      -3.081   1.824   2.353  1.00  0.00     0.042 C 
BRANCH  14  16
HETATM   16  O10 UNL     1      -4.642   0.251   3.301  1.00  0.00    -0.381 OA
BRANCH  16  17
HETATM   17  C18 UNL     1      -5.867   0.702   3.011  1.00  0.00     0.200 C 
BRANCH  17  18
HETATM   18  C19 UNL     1      -7.045   0.228   3.828  1.00  0.00     0.148 C 
HETATM   19  C20 UNL     1      -6.729   0.118   5.282  1.00  0.00     0.066 C 
HETATM   20  C21 UNL     1      -7.795   0.417   6.257  1.00  0.00     0.126 C 
HETATM   21  C22 UNL     1      -9.194   0.051   5.937  1.00  0.00     0.042 C 
HETATM   22  C23 UNL     1      -9.326  -0.819   4.736  1.00  0.00     0.043 C 
HETATM   23  C25 UNL     1      -9.866   1.146   5.166  1.00  0.00     0.113 C 
HETATM   24  C24 UNL     1      -9.347   0.422   3.908  1.00  0.00     0.145 C 
HETATM   25  O12 UNL     1      -8.140   0.996   3.624  1.00  0.00    -0.376 OA
BRANCH  20  26
HETATM   26  O11 UNL     1      -7.704   1.774   6.631  1.00  0.00    -0.395 OA
ATOM     27  H11 UNL     1      -8.566   2.082   6.885  1.00  0.00     0.210 HD
ENDBRANCH  20  26
BRANCH  23  28
HETATM   28  N1  UNL     1     -11.237   1.275   5.146  1.00  0.00    -0.414 N 
HETATM   29  C26 UNL     1     -11.822   2.209   4.233  1.00  0.00     0.143 C 
HETATM   30  C27 UNL     1     -12.110   0.753   6.073  1.00  0.00     0.143 C 
ENDBRANCH  23  28
ENDBRANCH  17  18
ENDBRANCH  16  17
ENDBRANCH  14  16
ENDBRANCH  11  14
ENDBRANCH   8  11
ENDBRANCH   7   8
BRANCH   6  31
HETATM   31  O2  UNL     1      -2.392  -1.263   7.100  1.00  0.00    -0.349 OA
BRANCH  31  32
HETATM   32  C7  UNL     1      -3.246  -2.190   7.694  1.00  0.00     0.294 C 
HETATM   33  O3  UNL     1      -2.675  -3.421   7.644  1.00  0.00    -0.326 OA
HETATM   34  C8  UNL     1      -3.487  -4.472   7.332  1.00  0.00     0.293 C 
HETATM   35  C10 UNL     1      -4.074  -4.265   5.952  1.00  0.00     0.204 C 
HETATM   36  C11 UNL     1      -4.755  -2.934   5.825  1.00  0.00     0.185 C 
HETATM   37  C12 UNL     1      -4.582  -2.055   7.032  1.00  0.00     0.204 C 
BRANCH  34  38
HETATM   38  O4  UNL     1      -4.422  -4.789   8.286  1.00  0.00    -0.363 OA
HETATM   39  C9  UNL     1      -4.353  -6.075   8.767  1.00  0.00     0.204 C 
ENDBRANCH  34  38
BRANCH  35  40
HETATM   40  O5  UNL     1      -4.955  -5.255   5.587  1.00  0.00    -0.388 OA
ATOM     41  H5  UNL     1      -4.526  -6.076   5.379  1.00  0.00     0.210 HD
ENDBRANCH  35  40
BRANCH  36  42
HETATM   42  O6  UNL     1      -4.275  -2.246   4.699  1.00  0.00    -0.390 OA
ATOM     43  H6  UNL     1      -4.831  -1.500   4.505  1.00  0.00     0.210 HD
ENDBRANCH  36  42
BRANCH  37  44
HETATM   44  O7  UNL     1      -5.648  -2.198   7.950  1.00  0.00    -0.388 OA
ATOM     45  H7  UNL     1      -5.864  -3.109   8.108  1.00  0.00     0.210 HD
ENDBRANCH  37  44
ENDBRANCH  31  32
ENDBRANCH   6  31
BRANCH   4  46
HETATM   46  O1  UNL     1      -0.780  -0.413   8.722  1.00  0.00    -0.387 OA
ATOM     47  H1  UNL     1      -0.150  -0.030   9.321  1.00  0.00     0.210 HD
ENDBRANCH   4  46
TORSDOF 17
ENDMDL
MODEL 2
REMARK VINA RESULT: -7.046129628      1.191      1.811
REMARK  17 active torsions:
REMARK  status: ('A' for Active; 'I' for Inactive)
REMARK    1  A    between atoms: C4_4  and  O1_6 
REMARK    2  A    between atoms: C6_8  and  O2_9 
REMARK    3  A    between atoms: O2_9  and  C7_10 
REMARK    4  A    between atoms: C8_12  and  O4_13 
REMARK    5  A    between atoms: C10_15  and  O5_16 
REMARK    6  A    between atoms: C11_18  and  O6_19 
REMARK    7  A    between atoms: C12_21  and  O7_22 
REMARK    8  A    between atoms: C13_24  and  C14_25 
REMARK    9  A    between atoms: C14_25  and  O8_26 
REMARK   10  A    between atoms: C14_25  and  C15_28 
REMARK   11  A    between atoms: C15_28  and  O9_29 
REMARK   12  A    between atoms: C15_28  and  C16_31 
REMARK   13  A    between atoms: C16_31  and  O10_33 
REMARK   14  A    between atoms: O10_33  and  C18_34 
REMARK   15  A    between atoms: C18_34  and  C19_35 
REMARK   16  A    between atoms: C21_37  and  O11_38 
REMARK   17  A    between atoms: C25_44  and  N1_45 
ROOT
HETATM    1  C1  UNL     1      -0.102   1.338   5.196  1.00  0.00     0.015 C 
HETATM    2  C2  UNL     1      -1.077   1.188   6.066  1.00  0.00    -0.077 C 
HETATM    3  C3  UNL     1      -1.149   1.608   7.496  1.00  0.00     0.074 C 
HETATM    4  C4  UNL     1      -1.950   0.545   8.177  1.00  0.00     0.085 C 
HETATM    5  C5  UNL     1      -2.863   1.083   9.252  1.00  0.00     0.049 C 
HETATM    6  C6  UNL     1      -2.760  -0.145   7.074  1.00  0.00     0.169 C 
HETATM    7  C13 UNL     1      -2.386   0.527   5.780  1.00  0.00     0.077 C 
ENDROOT
BRANCH   7   8
HETATM    8  C14 UNL     1      -3.321   1.588   5.316  1.00  0.00     0.160 C 
BRANCH   8   9
HETATM    9  O8  UNL     1      -4.573   1.571   5.913  1.00  0.00    -0.392 OA
ATOM     10  H8  UNL     1      -4.887   2.415   6.217  1.00  0.00     0.210 HD
ENDBRANCH   8   9
BRANCH   8  11
HETATM   11  C15 UNL     1      -3.461   1.750   3.849  1.00  0.00     0.176 C 
BRANCH  11  12
HETATM   12  O9  UNL     1      -2.815   2.892   3.415  1.00  0.00    -0.390 OA
ATOM     13  H9  UNL     1      -3.294   3.304   2.706  1.00  0.00     0.210 HD
ENDBRANCH  11  12
BRANCH  11  14
HETATM   14  C16 UNL     1      -2.903   0.558   3.067  1.00  0.00     0.148 C 
HETATM   15  C17 UNL     1      -2.316   1.188   1.800  1.00  0.00     0.042 C 
BRANCH  14  16
HETATM   16  O10 UNL     1      -3.845  -0.378   2.813  1.00  0.00    -0.381 OA
BRANCH  16  17
HETATM   17  C18 UNL     1      -4.838  -0.176   1.941  1.00  0.00     0.200 C 
BRANCH  17  18
HETATM   18  C19 UNL     1      -6.262  -0.118   2.440  1.00  0.00     0.148 C 
HETATM   19  C20 UNL     1      -7.034  -1.355   2.123  1.00  0.00     0.066 C 
HETATM   20  C21 UNL     1      -8.058  -1.808   3.083  1.00  0.00     0.126 C 
HETATM   21  C22 UNL     1      -8.852  -0.803   3.826  1.00  0.00     0.042 C 
HETATM   22  C23 UNL     1      -8.680   0.587   3.322  1.00  0.00     0.043 C 
HETATM   23  C25 UNL     1      -8.145  -0.391   5.080  1.00  0.00     0.113 C 
HETATM   24  C24 UNL     1      -7.492   0.705   4.216  1.00  0.00     0.145 C 
HETATM   25  O12 UNL     1      -6.321   0.168   3.761  1.00  0.00    -0.376 OA
BRANCH  20  26
HETATM   26  O11 UNL     1      -7.474  -2.741   3.966  1.00  0.00    -0.395 OA
ATOM     27  H11 UNL     1      -8.096  -3.441   4.130  1.00  0.00     0.210 HD
ENDBRANCH  20  26
BRANCH  23  28
HETATM   28  N1  UNL     1      -8.828   0.147   6.149  1.00  0.00    -0.414 N 
HETATM   29  C26 UNL     1      -8.092   0.495   7.325  1.00  0.00     0.143 C 
HETATM   30  C27 UNL     1     -10.196   0.189   6.293  1.00  0.00     0.143 C 
ENDBRANCH  23  28
ENDBRANCH  17  18
ENDBRANCH  16  17
ENDBRANCH  14  16
ENDBRANCH  11  14
ENDBRANCH   8  11
ENDBRANCH   7   8
BRANCH   6  31
HETATM   31  O2  UNL     1      -2.264  -1.447   6.988  1.00  0.00    -0.349 OA
BRANCH  31  32
HETATM   32  C7  UNL     1      -3.086  -2.377   7.623  1.00  0.00     0.294 C 
HETATM   33  O3  UNL     1      -2.602  -3.625   7.402  1.00  0.00    -0.326 OA
HETATM   34  C8  UNL     1      -3.510  -4.606   7.128  1.00  0.00     0.293 C 
HETATM   35  C10 UNL     1      -4.262  -4.257   5.861  1.00  0.00     0.204 C 
HETATM   36  C11 UNL     1      -4.872  -2.888   5.929  1.00  0.00     0.185 C 
HETATM   37  C12 UNL     1      -4.488  -2.122   7.163  1.00  0.00     0.204 C 
BRANCH  34  38
HETATM   38  O4  UNL     1      -4.327  -4.954   8.175  1.00  0.00    -0.363 OA
HETATM   39  C9  UNL     1      -4.236  -6.265   8.576  1.00  0.00     0.204 C 
ENDBRANCH  34  38
BRANCH  35  40
HETATM   40  O5  UNL     1      -5.242  -5.169   5.549  1.00  0.00    -0.388 OA
ATOM     41  H5  UNL     1      -4.994  -5.756   4.844  1.00  0.00     0.210 HD
ENDBRANCH  35  40
BRANCH  36  42
HETATM   42  O6  UNL     1      -4.506  -2.134   4.802  1.00  0.00    -0.390 OA
ATOM     43  H6  UNL     1      -4.223  -1.266   5.063  1.00  0.00     0.210 HD
ENDBRANCH  36  42
BRANCH  37  44
HETATM   44  O7  UNL     1      -5.428  -2.286   8.206  1.00  0.00    -0.388 OA
ATOM     45  H7  UNL     1      -6.198  -2.764   7.921  1.00  0.00     0.210 HD
ENDBRANCH  37  44
ENDBRANCH  31  32
ENDBRANCH   6  31
BRANCH   4  46
HETATM   46  O1  UNL     1      -1.062  -0.334   8.795  1.00  0.00    -0.387 OA
ATOM     47  H1  UNL     1      -1.563  -1.067   9.133  1.00  0.00     0.210 HD
ENDBRANCH   4  46
TORSDOF 17
ENDMDL
MODEL 3
REMARK VINA RESULT: -6.824379287      3.781      8.240
REMARK  17 active torsions:
REMARK  status: ('A' for Active; 'I' for Inactive)
REMARK    1  A    between atoms: C4_4  and  O1_6 
REMARK    2  A    between atoms: C6_8  and  O2_9 
REMARK    3  A    between atoms: O2_9  and  C7_10 
REMARK    4  A    between atoms: C8_12  and  O4_13 
REMARK    5  A    between atoms: C10_15  and  O5_16 
REMARK    6  A    between atoms: C11_18  and  O6_19 
REMARK    7  A    between atoms: C12_21  and  O7_22 
REMARK    8  A    between atoms: C13_24  and  C14_25 
REMARK    9  A    between atoms: C14_25  and  O8_26 
REMARK   10  A    between atoms: C14_25  and  C15_28 
REMARK   11  A    between atoms: C15_28  and  O9_29 
REMARK   12  A    between atoms: C15_28  and  C16_31 
REMARK   13  A    between atoms: C16_31  and  O10_33 
REMARK   14  A    between atoms: O10_33  and  C18_34 
REMARK   15  A    between atoms: C18_34  and  C19_35 
REMARK   16  A    between atoms: C21_37  and  O11_38 
REMARK   17  A    between atoms: C25_44  and  N1_45 
ROOT
HETATM    1  C1  UNL     1      -3.625   1.364   7.013  1.00  0.00     0.015 C 
HETATM    2  C2  UNL     1      -4.064   0.135   6.850  1.00  0.00    -0.077 C 
HETATM    3  C3  UNL     1      -3.363  -1.060   6.295  1.00  0.00     0.074 C 
HETATM    4  C4  UNL     1      -4.421  -1.834   5.575  1.00  0.00     0.085 C 
HETATM    5  C5  UNL     1      -4.257  -3.329   5.704  1.00  0.00     0.049 C 
HETATM    6  C6  UNL     1      -5.757  -1.382   6.173  1.00  0.00     0.169 C 
HETATM    7  C13 UNL     1      -5.434  -0.339   7.210  1.00  0.00     0.077 C 
ENDROOT
BRANCH   7   8
HETATM    8  C14 UNL     1      -5.374  -0.831   8.614  1.00  0.00     0.160 C 
BRANCH   8   9
HETATM    9  O8  UNL     1      -5.712  -2.165   8.785  1.00  0.00    -0.392 OA
ATOM     10  H8  UNL     1      -6.250  -2.351   9.546  1.00  0.00     0.210 HD
ENDBRANCH   8   9
BRANCH   8  11
HETATM   11  C15 UNL     1      -6.056   0.001   9.634  1.00  0.00     0.176 C 
BRANCH  11  12
HETATM   12  O9  UNL     1      -7.417   0.052   9.399  1.00  0.00    -0.390 OA
ATOM     13  H9  UNL     1      -7.894   0.223  10.203  1.00  0.00     0.210 HD
ENDBRANCH  11  12
BRANCH  11  14
HETATM   14  C16 UNL     1      -5.835  -0.511  11.059  1.00  0.00     0.148 C 
HETATM   15  C17 UNL     1      -7.179  -0.271  11.752  1.00  0.00     0.042 C 
BRANCH  14  16
HETATM   16  O10 UNL     1      -4.798   0.103  11.672  1.00  0.00    -0.381 OA
BRANCH  16  17
HETATM   17  C18 UNL     1      -3.607  -0.483  11.825  1.00  0.00     0.200 C 
BRANCH  17  18
HETATM   18  C19 UNL     1      -2.364   0.225  11.341  1.00  0.00     0.148 C 
HETATM   19  C20 UNL     1      -2.667   1.333  10.389  1.00  0.00     0.066 C 
HETATM   20  C21 UNL     1      -1.805   2.529  10.406  1.00  0.00     0.126 C 
HETATM   21  C22 UNL     1      -0.357   2.376  10.677  1.00  0.00     0.042 C 
HETATM   22  C23 UNL     1       0.109   0.962  10.661  1.00  0.00     0.043 C 
HETATM   23  C25 UNL     1      -0.087   2.404  12.150  1.00  0.00     0.113 C 
HETATM   24  C24 UNL     1      -0.279   0.876  12.098  1.00  0.00     0.145 C 
HETATM   25  O12 UNL     1      -1.601   0.662  12.370  1.00  0.00    -0.376 OA
BRANCH  20  26
HETATM   26  O11 UNL     1      -2.377   3.492  11.265  1.00  0.00    -0.395 OA
ATOM     27  H11 UNL     1      -1.811   4.255  11.292  1.00  0.00     0.210 HD
ENDBRANCH  20  26
BRANCH  23  28
HETATM   28  N1  UNL     1       1.153   2.741  12.648  1.00  0.00    -0.414 N 
HETATM   29  C26 UNL     1       1.484   2.342  13.981  1.00  0.00     0.143 C 
HETATM   30  C27 UNL     1       2.041   3.621  12.073  1.00  0.00     0.143 C 
ENDBRANCH  23  28
ENDBRANCH  17  18
ENDBRANCH  16  17
ENDBRANCH  14  16
ENDBRANCH  11  14
ENDBRANCH   8  11
ENDBRANCH   7   8
BRANCH   6  31
HETATM   31  O2  UNL     1      -6.430  -0.711   5.150  1.00  0.00    -0.349 OA
BRANCH  31  32
HETATM   32  C7  UNL     1      -7.407  -1.498   4.545  1.00  0.00     0.294 C 
HETATM   33  O3  UNL     1      -6.957  -1.918   3.335  1.00  0.00    -0.326 OA
HETATM   34  C8  UNL     1      -7.847  -1.902   2.300  1.00  0.00     0.293 C 
HETATM   35  C10 UNL     1      -8.320  -0.484   2.062  1.00  0.00     0.204 C 
HETATM   36  C11 UNL     1      -8.857   0.146   3.314  1.00  0.00     0.185 C 
HETATM   37  C12 UNL     1      -8.678  -0.707   4.538  1.00  0.00     0.204 C 
BRANCH  34  38
HETATM   38  O4  UNL     1      -8.868  -2.814   2.395  1.00  0.00    -0.363 OA
HETATM   39  C9  UNL     1      -8.581  -4.065   1.904  1.00  0.00     0.204 C 
ENDBRANCH  34  38
BRANCH  35  40
HETATM   40  O5  UNL     1      -9.268  -0.391   1.072  1.00  0.00    -0.388 OA
ATOM     41  H5  UNL     1      -8.964   0.085   0.308  1.00  0.00     0.210 HD
ENDBRANCH  35  40
BRANCH  36  42
HETATM   42  O6  UNL     1      -8.240   1.388   3.539  1.00  0.00    -0.390 OA
ATOM     43  H6  UNL     1      -8.828   2.096   3.305  1.00  0.00     0.210 HD
ENDBRANCH  36  42
BRANCH  37  44
HETATM   44  O7  UNL     1      -9.810  -1.514   4.794  1.00  0.00    -0.388 OA
ATOM     45  H7  UNL     1     -10.613  -1.111   4.486  1.00  0.00     0.210 HD
ENDBRANCH  37  44
ENDBRANCH  31  32
ENDBRANCH   6  31
BRANCH   4  46
HETATM   46  O1  UNL     1      -4.329  -1.528   4.218  1.00  0.00    -0.387 OA
ATOM     47  H1  UNL     1      -5.131  -1.087   3.962  1.00  0.00     0.210 HD
ENDBRANCH   4  46
TORSDOF 17
ENDMDL
MODEL 4
REMARK VINA RESULT: -6.702659672      1.386      1.682
REMARK  17 active torsions:
REMARK  status: ('A' for Active; 'I' for Inactive)
REMARK    1  A    between atoms: C4_4  and  O1_6 
REMARK    2  A    between atoms: C6_8  and  O2_9 
REMARK    3  A    between atoms: O2_9  and  C7_10 
REMARK    4  A    between atoms: C8_12  and  O4_13 
REMARK    5  A    between atoms: C10_15  and  O5_16 
REMARK    6  A    between atoms: C11_18  and  O6_19 
REMARK    7  A    between atoms: C12_21  and  O7_22 
REMARK    8  A    between atoms: C13_24  and  C14_25 
REMARK    9  A    between atoms: C14_25  and  O8_26 
REMARK   10  A    between atoms: C14_25  and  C15_28 
REMARK   11  A    between atoms: C15_28  and  O9_29 
REMARK   12  A    between atoms: C15_28  and  C16_31 
REMARK   13  A    between atoms: C16_31  and  O10_33 
REMARK   14  A    between atoms: O10_33  and  C18_34 
REMARK   15  A    between atoms: C18_34  and  C19_35 
REMARK   16  A    between atoms: C21_37  and  O11_38 
REMARK   17  A    between atoms: C25_44  and  N1_45 
ROOT
HETATM    1  C1  UNL     1      -0.198   1.324   5.295  1.00  0.00     0.015 C 
HETATM    2  C2  UNL     1      -1.098   1.212   6.247  1.00  0.00    -0.077 C 
HETATM    3  C3  UNL     1      -1.044   1.664   7.668  1.00  0.00     0.074 C 
HETATM    4  C4  UNL     1      -1.803   0.630   8.437  1.00  0.00     0.085 C 
HETATM    5  C5  UNL     1      -2.614   1.208   9.571  1.00  0.00     0.049 C 
HETATM    6  C6  UNL     1      -2.714  -0.067   7.421  1.00  0.00     0.169 C 
HETATM    7  C13 UNL     1      -2.438   0.570   6.085  1.00  0.00     0.077 C 
ENDROOT
BRANCH   7   8
HETATM    8  C14 UNL     1      -3.390   1.638   5.677  1.00  0.00     0.160 C 
BRANCH   8   9
HETATM    9  O8  UNL     1      -4.310   2.009   6.647  1.00  0.00    -0.392 OA
ATOM     10  H8  UNL     1      -4.787   2.811   6.466  1.00  0.00     0.210 HD
ENDBRANCH   8   9
BRANCH   8  11
HETATM   11  C15 UNL     1      -4.074   1.450   4.375  1.00  0.00     0.176 C 
BRANCH  11  12
HETATM   12  O9  UNL     1      -4.649   2.631   3.945  1.00  0.00    -0.390 OA
ATOM     13  H9  UNL     1      -4.407   2.819   3.046  1.00  0.00     0.210 HD
ENDBRANCH  11  12
BRANCH  11  14
HETATM   14  C16 UNL     1      -3.130   0.951   3.278  1.00  0.00     0.148 C 
HETATM   15  C17 UNL     1      -2.961   2.161   2.355  1.00  0.00     0.042 C 
BRANCH  14  16
HETATM   16  O10 UNL     1      -3.609  -0.144   2.645  1.00  0.00    -0.381 OA
BRANCH  16  17
HETATM   17  C18 UNL     1      -4.369  -0.062   1.549  1.00  0.00     0.200 C 
BRANCH  17  18
HETATM   18  C19 UNL     1      -5.869  -0.178   1.676  1.00  0.00     0.148 C 
HETATM   19  C20 UNL     1      -6.286  -1.315   2.548  1.00  0.00     0.066 C 
HETATM   20  C21 UNL     1      -7.502  -1.161   3.369  1.00  0.00     0.126 C 
HETATM   21  C22 UNL     1      -8.647  -0.391   2.832  1.00  0.00     0.042 C 
HETATM   22  C23 UNL     1      -8.520  -0.058   1.386  1.00  0.00     0.043 C 
HETATM   23  C25 UNL     1      -8.496   1.067   3.138  1.00  0.00     0.113 C 
HETATM   24  C24 UNL     1      -7.753   1.156   1.791  1.00  0.00     0.145 C 
HETATM   25  O12 UNL     1      -6.431   0.982   2.087  1.00  0.00    -0.376 OA
BRANCH  20  26
HETATM   26  O11 UNL     1      -7.133  -0.688   4.647  1.00  0.00    -0.395 OA
ATOM     27  H11 UNL     1      -7.073  -1.427   5.242  1.00  0.00     0.210 HD
ENDBRANCH  20  26
BRANCH  23  28
HETATM   28  N1  UNL     1      -9.583   1.912   3.173  1.00  0.00    -0.414 N 
HETATM   29  C26 UNL     1      -9.429   3.246   2.678  1.00  0.00     0.143 C 
HETATM   30  C27 UNL     1     -10.765   1.680   3.840  1.00  0.00     0.143 C 
ENDBRANCH  23  28
ENDBRANCH  17  18
ENDBRANCH  16  17
ENDBRANCH  14  16
ENDBRANCH  11  14
ENDBRANCH   8  11
ENDBRANCH   7   8
BRANCH   6  31
HETATM   31  O2  UNL     1      -2.250  -1.380   7.324  1.00  0.00    -0.349 OA
BRANCH  31  32
HETATM   32  C7  UNL     1      -3.138  -2.305   7.870  1.00  0.00     0.294 C 
HETATM   33  O3  UNL     1      -2.639  -3.557   7.703  1.00  0.00    -0.326 OA
HETATM   34  C8  UNL     1      -3.519  -4.533   7.335  1.00  0.00     0.293 C 
HETATM   35  C10 UNL     1      -4.132  -4.183   5.997  1.00  0.00     0.204 C 
HETATM   36  C11 UNL     1      -4.739  -2.811   5.999  1.00  0.00     0.185 C 
HETATM   37  C12 UNL     1      -4.483  -2.044   7.265  1.00  0.00     0.204 C 
BRANCH  34  38
HETATM   38  O4  UNL     1      -4.442  -4.876   8.292  1.00  0.00    -0.363 OA
HETATM   39  C9  UNL     1      -4.373  -6.176   8.731  1.00  0.00     0.204 C 
ENDBRANCH  34  38
BRANCH  35  40
HETATM   40  O5  UNL     1      -5.078  -5.091   5.584  1.00  0.00    -0.388 OA
ATOM     41  H5  UNL     1      -5.692  -5.326   6.269  1.00  0.00     0.210 HD
ENDBRANCH  35  40
BRANCH  36  42
HETATM   42  O6  UNL     1      -4.253  -2.061   4.915  1.00  0.00    -0.390 OA
ATOM     43  H6  UNL     1      -4.083  -1.165   5.183  1.00  0.00     0.210 HD
ENDBRANCH  36  42
BRANCH  37  44
HETATM   44  O7  UNL     1      -5.528  -2.203   8.204  1.00  0.00    -0.388 OA
ATOM     45  H7  UNL     1      -5.513  -3.059   8.614  1.00  0.00     0.210 HD
ENDBRANCH  37  44
ENDBRANCH  31  32
ENDBRANCH   6  31
BRANCH   4  46
HETATM   46  O1  UNL     1      -0.882  -0.252   8.999  1.00  0.00    -0.387 OA
ATOM     47  H1  UNL     1      -1.328  -1.073   9.169  1.00  0.00     0.210 HD
ENDBRANCH   4  46
TORSDOF 17
ENDMDL
MODEL 5
REMARK VINA RESULT: -6.618666178      2.626      6.943
REMARK  17 active torsions:
REMARK  status: ('A' for Active; 'I' for Inactive)
REMARK    1  A    between atoms: C4_4  and  O1_6 
REMARK    2  A    between atoms: C6_8  and  O2_9 
REMARK    3  A    between atoms: O2_9  and  C7_10 
REMARK    4  A    between atoms: C8_12  and  O4_13 
REMARK    5  A    between atoms: C10_15  and  O5_16 
REMARK    6  A    between atoms: C11_18  and  O6_19 
REMARK    7  A    between atoms: C12_21  and  O7_22 
REMARK    8  A    between atoms: C13_24  and  C14_25 
REMARK    9  A    between atoms: C14_25  and  O8_26 
REMARK   10  A    between atoms: C14_25  and  C15_28 
REMARK   11  A    between atoms: C15_28  and  O9_29 
REMARK   12  A    between atoms: C15_28  and  C16_31 
REMARK   13  A    between atoms: C16_31  and  O10_33 
REMARK   14  A    between atoms: O10_33  and  C18_34 
REMARK   15  A    between atoms: C18_34  and  C19_35 
REMARK   16  A    between atoms: C21_37  and  O11_38 
REMARK   17  A    between atoms: C25_44  and  N1_45 
ROOT
HETATM    1  C1  UNL     1      -4.838   3.622   4.840  1.00  0.00     0.015 C 
HETATM    2  C2  UNL     1      -5.549   3.018   3.914  1.00  0.00    -0.077 C 
HETATM    3  C3  UNL     1      -6.121   3.560   2.647  1.00  0.00     0.074 C 
HETATM    4  C4  UNL     1      -7.415   2.836   2.460  1.00  0.00     0.085 C 
HETATM    5  C5  UNL     1      -7.716   2.517   1.015  1.00  0.00     0.049 C 
HETATM    6  C6  UNL     1      -7.304   1.551   3.286  1.00  0.00     0.169 C 
HETATM    7  C13 UNL     1      -5.952   1.579   3.947  1.00  0.00     0.077 C 
ENDROOT
BRANCH   7   8
HETATM    8  C14 UNL     1      -4.884   0.808   3.253  1.00  0.00     0.160 C 
BRANCH   8   9
HETATM    9  O8  UNL     1      -3.929   1.577   2.605  1.00  0.00    -0.392 OA
ATOM     10  H8  UNL     1      -3.676   1.266   1.744  1.00  0.00     0.210 HD
ENDBRANCH   8   9
BRANCH   8  11
HETATM   11  C15 UNL     1      -5.334  -0.294   2.369  1.00  0.00     0.176 C 
BRANCH  11  12
HETATM   12  O9  UNL     1      -4.639  -0.283   1.175  1.00  0.00    -0.390 OA
ATOM     13  H9  UNL     1      -4.043  -1.021   1.123  1.00  0.00     0.210 HD
ENDBRANCH  11  12
BRANCH  11  14
HETATM   14  C16 UNL     1      -5.164  -1.673   3.010  1.00  0.00     0.148 C 
HETATM   15  C17 UNL     1      -6.597  -2.196   3.150  1.00  0.00     0.042 C 
BRANCH  14  16
HETATM   16  O10 UNL     1      -4.497  -1.618   4.184  1.00  0.00    -0.381 OA
BRANCH  16  17
HETATM   17  C18 UNL     1      -4.899  -2.287   5.269  1.00  0.00     0.200 C 
BRANCH  17  18
HETATM   18  C19 UNL     1      -4.542  -1.762   6.639  1.00  0.00     0.148 C 
HETATM   19  C20 UNL     1      -3.897  -0.418   6.589  1.00  0.00     0.066 C 
HETATM   20  C21 UNL     1      -4.160   0.528   7.690  1.00  0.00     0.126 C 
HETATM   21  C22 UNL     1      -4.320   0.011   9.068  1.00  0.00     0.042 C 
HETATM   22  C23 UNL     1      -3.945  -1.422   9.218  1.00  0.00     0.043 C 
HETATM   23  C25 UNL     1      -5.743  -0.377   9.328  1.00  0.00     0.113 C 
HETATM   24  C24 UNL     1      -5.337  -1.771   8.810  1.00  0.00     0.145 C 
HETATM   25  O12 UNL     1      -5.609  -1.760   7.471  1.00  0.00    -0.376 OA
BRANCH  20  26
HETATM   26  O11 UNL     1      -5.249   1.352   7.333  1.00  0.00    -0.395 OA
ATOM     27  H11 UNL     1      -6.030   0.815   7.259  1.00  0.00     0.210 HD
ENDBRANCH  20  26
BRANCH  23  28
HETATM   28  N1  UNL     1      -6.250  -0.442  10.607  1.00  0.00    -0.414 N 
HETATM   29  C26 UNL     1      -7.671  -0.448  10.779  1.00  0.00     0.143 C 
HETATM   30  C27 UNL     1      -5.531  -0.280  11.769  1.00  0.00     0.143 C 
ENDBRANCH  23  28
ENDBRANCH  17  18
ENDBRANCH  16  17
ENDBRANCH  14  16
ENDBRANCH  11  14
ENDBRANCH   8  11
ENDBRANCH   7   8
BRANCH   6  31
HETATM   31  O2  UNL     1      -8.238   1.671   4.316  1.00  0.00    -0.349 OA
BRANCH  31  32
HETATM   32  C7  UNL     1      -9.435   1.014   4.035  1.00  0.00     0.294 C 
HETATM   33  O3  UNL     1     -10.458   1.904   4.097  1.00  0.00    -0.326 OA
HETATM   34  C8  UNL     1     -11.610   1.487   4.698  1.00  0.00     0.293 C 
HETATM   35  C10 UNL     1     -11.326   1.130   6.141  1.00  0.00     0.204 C 
HETATM   36  C11 UNL     1     -10.203   0.142   6.265  1.00  0.00     0.185 C 
HETATM   37  C12 UNL     1      -9.526  -0.161   4.958  1.00  0.00     0.204 C 
BRANCH  34  38
HETATM   38  O4  UNL     1     -12.305   0.518   4.017  1.00  0.00    -0.363 OA
HETATM   39  C9  UNL     1     -13.518   0.917   3.509  1.00  0.00     0.204 C 
ENDBRANCH  34  38
BRANCH  35  40
HETATM   40  O5  UNL     1     -12.427   0.641   6.802  1.00  0.00    -0.388 OA
ATOM     41  H5  UNL     1     -12.265  -0.190   7.231  1.00  0.00     0.210 HD
ENDBRANCH  35  40
BRANCH  36  42
HETATM   42  O6  UNL     1      -9.239   0.611   7.171  1.00  0.00    -0.390 OA
ATOM     43  H6  UNL     1      -8.638  -0.087   7.405  1.00  0.00     0.210 HD
ENDBRANCH  36  42
BRANCH  37  44
HETATM   44  O7  UNL     1     -10.080  -1.295   4.322  1.00  0.00    -0.388 OA
ATOM     45  H7  UNL     1      -9.553  -2.074   4.456  1.00  0.00     0.210 HD
ENDBRANCH  37  44
ENDBRANCH  31  32
ENDBRANCH   6  31
BRANCH   4  46
HETATM   46  O1  UNL     1      -8.441   3.661   2.919  1.00  0.00    -0.387 OA
ATOM     47  H1  UNL     1      -8.230   3.923   3.808  1.00  0.00     0.210 HD
ENDBRANCH   4  46
TORSDOF 17
ENDMDL
