MODEL 1
REMARK VINA RESULT: -8.288504162      0.000      0.000
REMARK  9 active torsions:
REMARK  status: ('A' for Active; 'I' for Inactive)
REMARK    1  A    between atoms: O1_2  and  C2_3 
REMARK    2  A    between atoms: C6_8  and  O2_9 
REMARK    3  A    between atoms: C8_11  and  O3_12 
REMARK    4  A    between atoms: C13_18  and  O5_19 
REMARK    5  A    between atoms: C14_21  and  C15_22 
REMARK    6  A    between atoms: C16_24  and  C17_25 
REMARK    7  A    between atoms: C17_25  and  O7_26 
REMARK    8  A    between atoms: O7_26  and  C18_27 
REMARK    9  A    between atoms: C23_33  and  O9_34 
ROOT
HETATM    1  C2  UNL     1      41.523  25.853  27.372  1.00  0.00     0.143 A 
HETATM    2  C3  UNL     1      40.470  25.187  26.811  1.00  0.00     0.162 A 
HETATM    3  F1  UNL     1      40.737  24.202  25.906  1.00  0.00    -0.202 F 
HETATM    4  C4  UNL     1      39.165  25.519  27.165  1.00  0.00     0.022 A 
HETATM    5  C5  UNL     1      38.843  26.507  28.069  1.00  0.00    -0.001 A 
HETATM    6  C6  UNL     1      39.957  27.169  28.631  1.00  0.00     0.112 A 
HETATM    7  C8  UNL     1      41.242  26.853  28.293  1.00  0.00     0.138 A 
HETATM    8  C10 UNL     1      37.462  26.632  28.258  1.00  0.00     0.066 A 
HETATM    9  C11 UNL     1      36.516  27.664  27.884  1.00  0.00    -0.001 A 
HETATM   10  C12 UNL     1      35.161  27.195  28.056  1.00  0.00     0.070 A 
HETATM   11  O4  UNL     1      34.406  28.156  27.713  1.00  0.00    -0.291 OA
HETATM   12  C13 UNL     1      35.053  29.205  27.333  1.00  0.00     0.197 A 
HETATM   13  C14 UNL     1      36.430  28.926  27.427  1.00  0.00     0.069 A 
HETATM   14  C16 UNL     1      34.827  25.840  28.538  1.00  0.00     0.072 C 
HETATM   15  C20 UNL     1      35.841  24.775  28.205  1.00  0.00     0.002 C 
HETATM   16  C21 UNL     1      36.430  24.127  29.436  1.00  0.00     0.011 C 
HETATM   17  C22 UNL     1      36.891  25.475  27.398  1.00  0.00     0.037 A 
HETATM   18  C23 UNL     1      37.927  24.807  26.698  1.00  0.00     0.160 A 
ENDROOT
BRANCH  14  19
HETATM   19  C17 UNL     1      34.344  25.816  29.961  1.00  0.00     0.190 C 
BRANCH  19  20
HETATM   20  O7  UNL     1      33.083  26.456  29.992  1.00  0.00    -0.321 OA
BRANCH  20  21
HETATM   21  C18 UNL     1      31.923  25.918  29.490  1.00  0.00     0.254 C 
HETATM   22  C19 UNL     1      31.414  24.602  29.923  1.00  0.00     0.126 C 
HETATM   23  O8  UNL     1      31.276  26.566  28.637  1.00  0.00    -0.266 OA
ENDBRANCH  20  21
ENDBRANCH  19  20
ENDBRANCH  14  19
BRANCH  13  24
HETATM   24  C15 UNL     1      37.418  29.906  27.027  1.00  0.00     0.275 C 
HETATM   25  O6  UNL     1      37.291  31.054  26.617  1.00  0.00    -0.301 OA
ENDBRANCH  13  24
BRANCH  12  26
HETATM   26  O5  UNL     1      34.458  30.388  26.909  1.00  0.00    -0.340 OA
ATOM     27  H5  UNL     1      34.934  31.155  26.612  1.00  0.00     0.220 HD
ENDBRANCH  12  26
BRANCH  18  28
HETATM   28  O9  UNL     1      38.124  23.451  26.984  1.00  0.00    -0.390 OA
ATOM     29  H9  UNL     1      38.119  23.000  26.148  1.00  0.00     0.210 HD
ENDBRANCH  18  28
BRANCH   6  30
HETATM   30  O2  UNL     1      39.801  28.186  29.571  1.00  0.00    -0.352 OA
HETATM   31  C7  UNL     1      40.004  28.012  30.946  1.00  0.00     0.210 C 
ENDBRANCH   6  30
BRANCH   7  32
HETATM   32  O3  UNL     1      42.300  27.513  28.851  1.00  0.00    -0.351 OA
HETATM   33  C9  UNL     1      42.826  28.735  28.378  1.00  0.00     0.210 C 
ENDBRANCH   7  32
BRANCH   1  34
HETATM   34  O1  UNL     1      42.839  25.560  27.051  1.00  0.00    -0.350 OA
HETATM   35  C1  UNL     1      43.332  26.073  25.827  1.00  0.00     0.210 C 
ENDBRANCH   1  34
TORSDOF 9
ENDMDL
MODEL 2
REMARK VINA RESULT: -8.099318161      1.410      1.579
REMARK  9 active torsions:
REMARK  status: ('A' for Active; 'I' for Inactive)
REMARK    1  A    between atoms: O1_2  and  C2_3 
REMARK    2  A    between atoms: C6_8  and  O2_9 
REMARK    3  A    between atoms: C8_11  and  O3_12 
REMARK    4  A    between atoms: C13_18  and  O5_19 
REMARK    5  A    between atoms: C14_21  and  C15_22 
REMARK    6  A    between atoms: C16_24  and  C17_25 
REMARK    7  A    between atoms: C17_25  and  O7_26 
REMARK    8  A    between atoms: O7_26  and  C18_27 
REMARK    9  A    between atoms: C23_33  and  O9_34 
ROOT
HETATM    1  C2  UNL     1      42.433  27.367  26.761  1.00  0.00     0.143 A 
HETATM    2  C3  UNL     1      41.573  26.599  26.028  1.00  0.00     0.162 A 
HETATM    3  F1  UNL     1      42.059  25.956  24.928  1.00  0.00    -0.202 F 
HETATM    4  C4  UNL     1      40.238  26.488  26.407  1.00  0.00     0.022 A 
HETATM    5  C5  UNL     1      39.698  27.121  27.505  1.00  0.00    -0.001 A 
HETATM    6  C6  UNL     1      40.618  27.901  28.239  1.00  0.00     0.112 A 
HETATM    7  C8  UNL     1      41.930  28.018  27.879  1.00  0.00     0.138 A 
HETATM    8  C10 UNL     1      38.339  26.836  27.674  1.00  0.00     0.066 A 
HETATM    9  C11 UNL     1      37.146  27.643  27.519  1.00  0.00    -0.001 A 
HETATM   10  C12 UNL     1      35.965  26.812  27.535  1.00  0.00     0.070 A 
HETATM   11  O4  UNL     1      34.976  27.596  27.399  1.00  0.00    -0.291 OA
HETATM   12  C13 UNL     1      35.316  28.835  27.294  1.00  0.00     0.197 A 
HETATM   13  C14 UNL     1      36.720  28.910  27.364  1.00  0.00     0.069 A 
HETATM   14  C16 UNL     1      36.010  25.344  27.679  1.00  0.00     0.072 C 
HETATM   15  C20 UNL     1      37.255  24.686  27.140  1.00  0.00     0.002 C 
HETATM   16  C21 UNL     1      38.030  23.946  28.206  1.00  0.00     0.011 C 
HETATM   17  C22 UNL     1      38.062  25.802  26.551  1.00  0.00     0.037 A 
HETATM   18  C23 UNL     1      39.214  25.608  25.749  1.00  0.00     0.160 A 
ENDROOT
BRANCH  14  19
HETATM   19  C17 UNL     1      35.593  24.865  29.041  1.00  0.00     0.190 C 
BRANCH  19  20
HETATM   20  O7  UNL     1      34.377  24.159  28.889  1.00  0.00    -0.321 OA
BRANCH  20  21
HETATM   21  C18 UNL     1      33.139  24.749  28.803  1.00  0.00     0.254 C 
HETATM   22  C19 UNL     1      32.771  25.927  29.615  1.00  0.00     0.126 C 
HETATM   23  O8  UNL     1      32.296  24.273  28.011  1.00  0.00    -0.266 OA
ENDBRANCH  20  21
ENDBRANCH  19  20
ENDBRANCH  14  19
BRANCH  13  24
HETATM   24  C15 UNL     1      37.407  30.179  27.234  1.00  0.00     0.275 C 
HETATM   25  O6  UNL     1      37.341  31.042  26.366  1.00  0.00    -0.301 OA
ENDBRANCH  13  24
BRANCH  12  26
HETATM   26  O5  UNL     1      34.421  29.888  27.137  1.00  0.00    -0.340 OA
ATOM     27  H5  UNL     1      34.533  30.753  27.516  1.00  0.00     0.220 HD
ENDBRANCH  12  26
BRANCH  18  28
HETATM   28  O9  UNL     1      39.766  24.321  25.719  1.00  0.00    -0.390 OA
ATOM     29  H9  UNL     1      39.208  23.781  26.266  1.00  0.00     0.210 HD
ENDBRANCH  18  28
BRANCH   6  30
HETATM   30  O2  UNL     1      40.232  28.596  29.384  1.00  0.00    -0.352 OA
HETATM   31  C7  UNL     1      40.228  28.038  30.669  1.00  0.00     0.210 C 
ENDBRANCH   6  30
BRANCH   7  32
HETATM   32  O3  UNL     1      42.796  28.782  28.608  1.00  0.00    -0.351 OA
HETATM   33  C9  UNL     1      43.217  30.082  28.252  1.00  0.00     0.210 C 
ENDBRANCH   7  32
BRANCH   1  34
HETATM   34  O1  UNL     1      43.769  27.509  26.423  1.00  0.00    -0.350 OA
HETATM   35  C1  UNL     1      44.654  26.493  26.858  1.00  0.00     0.210 C 
ENDBRANCH   1  34
TORSDOF 9
ENDMDL
MODEL 3
REMARK VINA RESULT: -7.576339978      1.673      2.291
REMARK  9 active torsions:
REMARK  status: ('A' for Active; 'I' for Inactive)
REMARK    1  A    between atoms: O1_2  and  C2_3 
REMARK    2  A    between atoms: C6_8  and  O2_9 
REMARK    3  A    between atoms: C8_11  and  O3_12 
REMARK    4  A    between atoms: C13_18  and  O5_19 
REMARK    5  A    between atoms: C14_21  and  C15_22 
REMARK    6  A    between atoms: C16_24  and  C17_25 
REMARK    7  A    between atoms: C17_25  and  O7_26 
REMARK    8  A    between atoms: O7_26  and  C18_27 
REMARK    9  A    between atoms: C23_33  and  O9_34 
ROOT
HETATM    1  C2  UNL     1      43.165  27.804  26.812  1.00  0.00     0.143 A 
HETATM    2  C3  UNL     1      42.422  26.922  26.079  1.00  0.00     0.162 A 
HETATM    3  F1  UNL     1      43.015  26.308  25.014  1.00  0.00    -0.202 F 
HETATM    4  C4  UNL     1      41.097  26.668  26.422  1.00  0.00     0.022 A 
HETATM    5  C5  UNL     1      40.453  27.265  27.483  1.00  0.00    -0.001 A 
HETATM    6  C6  UNL     1      41.252  28.166  28.219  1.00  0.00     0.112 A 
HETATM    7  C8  UNL     1      42.553  28.424  27.894  1.00  0.00     0.138 A 
HETATM    8  C10 UNL     1      39.130  26.829  27.620  1.00  0.00     0.066 A 
HETATM    9  C11 UNL     1      37.858  27.489  27.405  1.00  0.00    -0.001 A 
HETATM   10  C12 UNL     1      36.781  26.527  27.412  1.00  0.00     0.070 A 
HETATM   11  O4  UNL     1      35.714  27.187  27.222  1.00  0.00    -0.291 OA
HETATM   12  C13 UNL     1      35.912  28.454  27.088  1.00  0.00     0.197 A 
HETATM   13  C14 UNL     1      37.296  28.693  27.197  1.00  0.00     0.069 A 
HETATM   14  C16 UNL     1      36.989  25.078  27.604  1.00  0.00     0.072 C 
HETATM   15  C20 UNL     1      38.318  24.554  27.123  1.00  0.00     0.002 C 
HETATM   16  C21 UNL     1      39.137  23.939  28.234  1.00  0.00     0.011 C 
HETATM   17  C22 UNL     1      39.011  25.739  26.523  1.00  0.00     0.037 A 
HETATM   18  C23 UNL     1      40.203  25.657  25.762  1.00  0.00     0.160 A 
ENDROOT
BRANCH  14  19
HETATM   19  C17 UNL     1      36.585  24.593  28.967  1.00  0.00     0.190 C 
BRANCH  19  20
HETATM   20  O7  UNL     1      35.622  25.498  29.472  1.00  0.00    -0.321 OA
BRANCH  20  21
HETATM   21  C18 UNL     1      34.363  25.142  29.891  1.00  0.00     0.254 C 
HETATM   22  C19 UNL     1      33.225  26.081  29.847  1.00  0.00     0.126 C 
HETATM   23  O8  UNL     1      34.175  23.984  30.324  1.00  0.00    -0.266 OA
ENDBRANCH  20  21
ENDBRANCH  19  20
ENDBRANCH  14  19
BRANCH  13  24
HETATM   24  C15 UNL     1      37.836  30.028  27.047  1.00  0.00     0.275 C 
HETATM   25  O6  UNL     1      37.773  30.819  26.114  1.00  0.00    -0.301 OA
ENDBRANCH  13  24
BRANCH  12  26
HETATM   26  O5  UNL     1      34.908  29.392  26.872  1.00  0.00    -0.340 OA
ATOM     27  H5  UNL     1      35.024  30.208  26.399  1.00  0.00     0.220 HD
ENDBRANCH  12  26
BRANCH  18  28
HETATM   28  O9  UNL     1      40.900  24.442  25.789  1.00  0.00    -0.390 OA
ATOM     29  H9  UNL     1      40.273  23.772  25.546  1.00  0.00     0.210 HD
ENDBRANCH  18  28
BRANCH   6  30
HETATM   30  O2  UNL     1      40.751  28.843  29.329  1.00  0.00    -0.352 OA
HETATM   31  C7  UNL     1      40.365  28.211  30.518  1.00  0.00     0.210 C 
ENDBRANCH   6  30
BRANCH   7  32
HETATM   32  O3  UNL     1      43.302  29.303  28.623  1.00  0.00    -0.351 OA
HETATM   33  C9  UNL     1      43.482  30.666  28.303  1.00  0.00     0.210 C 
ENDBRANCH   7  32
BRANCH   1  34
HETATM   34  O1  UNL     1      44.486  28.090  26.510  1.00  0.00    -0.350 OA
HETATM   35  C1  UNL     1      45.466  27.189  26.991  1.00  0.00     0.210 C 
ENDBRANCH   1  34
TORSDOF 9
ENDMDL
MODEL 4
REMARK VINA RESULT: -7.429642311      2.484      4.965
REMARK  9 active torsions:
REMARK  status: ('A' for Active; 'I' for Inactive)
REMARK    1  A    between atoms: O1_2  and  C2_3 
REMARK    2  A    between atoms: C6_8  and  O2_9 
REMARK    3  A    between atoms: C8_11  and  O3_12 
REMARK    4  A    between atoms: C13_18  and  O5_19 
REMARK    5  A    between atoms: C14_21  and  C15_22 
REMARK    6  A    between atoms: C16_24  and  C17_25 
REMARK    7  A    between atoms: C17_25  and  O7_26 
REMARK    8  A    between atoms: O7_26  and  C18_27 
REMARK    9  A    between atoms: C23_33  and  O9_34 
ROOT
HETATM    1  C2  UNL     1      44.009  26.578  27.147  1.00  0.00     0.143 A 
HETATM    2  C3  UNL     1      43.374  27.504  27.926  1.00  0.00     0.162 A 
HETATM    3  F1  UNL     1      44.133  28.438  28.568  1.00  0.00    -0.202 F 
HETATM    4  C4  UNL     1      41.988  27.480  28.051  1.00  0.00     0.022 A 
HETATM    5  C5  UNL     1      41.178  26.556  27.427  1.00  0.00    -0.001 A 
HETATM    6  C6  UNL     1      41.870  25.620  26.628  1.00  0.00     0.112 A 
HETATM    7  C8  UNL     1      43.229  25.633  26.497  1.00  0.00     0.138 A 
HETATM    8  C10 UNL     1      39.822  26.758  27.705  1.00  0.00     0.066 A 
HETATM    9  C11 UNL     1      38.864  26.003  28.487  1.00  0.00    -0.001 A 
HETATM   10  C12 UNL     1      37.662  26.775  28.699  1.00  0.00     0.070 A 
HETATM   11  O4  UNL     1      36.884  26.042  29.383  1.00  0.00    -0.291 OA
HETATM   12  C13 UNL     1      37.384  24.888  29.665  1.00  0.00     0.197 A 
HETATM   13  C14 UNL     1      38.674  24.822  29.103  1.00  0.00     0.069 A 
HETATM   14  C16 UNL     1      37.478  28.146  28.183  1.00  0.00     0.072 C 
HETATM   15  C20 UNL     1      38.745  28.951  28.040  1.00  0.00     0.002 C 
HETATM   16  C21 UNL     1      39.004  29.379  26.614  1.00  0.00     0.011 C 
HETATM   17  C22 UNL     1      39.833  28.058  28.551  1.00  0.00     0.037 A 
HETATM   18  C23 UNL     1      41.161  28.490  28.795  1.00  0.00     0.160 A 
ENDROOT
BRANCH  14  19
HETATM   19  C17 UNL     1      36.557  28.219  26.997  1.00  0.00     0.190 C 
BRANCH  19  20
HETATM   20  O7  UNL     1      35.690  29.317  27.200  1.00  0.00    -0.321 OA
BRANCH  20  21
HETATM   21  C18 UNL     1      34.324  29.222  27.309  1.00  0.00     0.254 C 
HETATM   22  C19 UNL     1      33.670  28.562  28.457  1.00  0.00     0.126 C 
HETATM   23  O8  UNL     1      33.610  29.710  26.405  1.00  0.00    -0.266 OA
ENDBRANCH  20  21
ENDBRANCH  19  20
ENDBRANCH  14  19
BRANCH  13  24
HETATM   24  C15 UNL     1      39.509  23.653  29.286  1.00  0.00     0.275 C 
HETATM   25  O6  UNL     1      39.345  22.649  29.970  1.00  0.00    -0.301 OA
ENDBRANCH  13  24
BRANCH  12  26
HETATM   26  O5  UNL     1      36.732  23.903  30.400  1.00  0.00    -0.340 OA
ATOM     27  H5  UNL     1      36.950  22.978  30.376  1.00  0.00     0.220 HD
ENDBRANCH  12  26
BRANCH  18  28
HETATM   28  O9  UNL     1      41.531  29.744  28.294  1.00  0.00    -0.390 OA
ATOM     29  H9  UNL     1      41.492  29.673  27.347  1.00  0.00     0.210 HD
ENDBRANCH  18  28
BRANCH   6  30
HETATM   30  O2  UNL     1      41.194  24.627  25.922  1.00  0.00    -0.352 OA
HETATM   31  C7  UNL     1      40.648  24.814  24.645  1.00  0.00     0.210 C 
ENDBRANCH   6  30
BRANCH   7  32
HETATM   32  O3  UNL     1      43.871  24.712  25.718  1.00  0.00    -0.351 OA
HETATM   33  C9  UNL     1      44.322  23.452  26.168  1.00  0.00     0.210 C 
ENDBRANCH   7  32
BRANCH   1  34
HETATM   34  O1  UNL     1      45.386  26.561  26.992  1.00  0.00    -0.350 OA
HETATM   35  C1  UNL     1      45.936  27.440  26.028  1.00  0.00     0.210 C 
ENDBRANCH   1  34
TORSDOF 9
ENDMDL
MODEL 5
REMARK VINA RESULT: -7.041423623      2.777      5.758
REMARK  9 active torsions:
REMARK  status: ('A' for Active; 'I' for Inactive)
REMARK    1  A    between atoms: O1_2  and  C2_3 
REMARK    2  A    between atoms: C6_8  and  O2_9 
REMARK    3  A    between atoms: C8_11  and  O3_12 
REMARK    4  A    between atoms: C13_18  and  O5_19 
REMARK    5  A    between atoms: C14_21  and  C15_22 
REMARK    6  A    between atoms: C16_24  and  C17_25 
REMARK    7  A    between atoms: C17_25  and  O7_26 
REMARK    8  A    between atoms: O7_26  and  C18_27 
REMARK    9  A    between atoms: C23_33  and  O9_34 
ROOT
HETATM    1  C2  UNL     1      44.544  28.155  25.571  1.00  0.00     0.143 A 
HETATM    2  C3  UNL     1      43.567  28.792  26.283  1.00  0.00     0.162 A 
HETATM    3  F1  UNL     1      43.699  30.132  26.504  1.00  0.00    -0.202 F 
HETATM    4  C4  UNL     1      42.473  28.078  26.764  1.00  0.00     0.022 A 
HETATM    5  C5  UNL     1      42.297  26.726  26.572  1.00  0.00    -0.001 A 
HETATM    6  C6  UNL     1      43.323  26.103  25.828  1.00  0.00     0.112 A 
HETATM    7  C8  UNL     1      44.401  26.792  25.350  1.00  0.00     0.138 A 
HETATM    8  C10 UNL     1      41.110  26.253  27.144  1.00  0.00     0.066 A 
HETATM    9  C11 UNL     1      40.850  25.397  28.284  1.00  0.00    -0.001 A 
HETATM   10  C12 UNL     1      39.451  25.435  28.637  1.00  0.00     0.070 A 
HETATM   11  O4  UNL     1      39.315  24.660  29.633  1.00  0.00    -0.291 OA
HETATM   12  C13 UNL     1      40.417  24.104  30.004  1.00  0.00     0.197 A 
HETATM   13  C14 UNL     1      41.443  24.559  29.153  1.00  0.00     0.069 A 
HETATM   14  C16 UNL     1      38.456  26.255  27.919  1.00  0.00     0.072 C 
HETATM   15  C20 UNL     1      38.997  27.515  27.294  1.00  0.00     0.002 C 
HETATM   16  C21 UNL     1      38.820  27.542  25.793  1.00  0.00     0.011 C 
HETATM   17  C22 UNL     1      40.445  27.549  27.676  1.00  0.00     0.037 A 
HETATM   18  C23 UNL     1      41.290  28.669  27.476  1.00  0.00     0.160 A 
ENDROOT
BRANCH  14  19
HETATM   19  C17 UNL     1      37.556  25.452  27.023  1.00  0.00     0.190 C 
BRANCH  19  20
HETATM   20  O7  UNL     1      36.269  26.036  27.079  1.00  0.00    -0.321 OA
BRANCH  20  21
HETATM   21  C18 UNL     1      35.507  26.133  28.218  1.00  0.00     0.254 C 
HETATM   22  C19 UNL     1      34.975  27.423  28.702  1.00  0.00     0.126 C 
HETATM   23  O8  UNL     1      35.254  25.093  28.867  1.00  0.00    -0.266 OA
ENDBRANCH  20  21
ENDBRANCH  19  20
ENDBRANCH  14  19
BRANCH  13  24
HETATM   24  C15 UNL     1      42.815  24.138  29.348  1.00  0.00     0.275 C 
HETATM   25  O6  UNL     1      43.281  23.074  29.738  1.00  0.00    -0.301 OA
ENDBRANCH  13  24
BRANCH  12  26
HETATM   26  O5  UNL     1      40.534  23.215  31.067  1.00  0.00    -0.340 OA
ATOM     27  H5  UNL     1      41.323  22.731  31.281  1.00  0.00     0.220 HD
ENDBRANCH  12  26
BRANCH  18  28
HETATM   28  O9  UNL     1      40.811  29.696  26.652  1.00  0.00    -0.390 OA
ATOM     29  H9  UNL     1      39.913  29.470  26.442  1.00  0.00     0.210 HD
ENDBRANCH  18  28
BRANCH   6  30
HETATM   30  O2  UNL     1      43.287  24.741  25.537  1.00  0.00    -0.352 OA
HETATM   31  C7  UNL     1      43.912  23.761  26.319  1.00  0.00     0.210 C 
ENDBRANCH   6  30
BRANCH   7  32
HETATM   32  O3  UNL     1      45.380  26.163  24.635  1.00  0.00    -0.351 OA
HETATM   33  C9  UNL     1      46.637  25.783  25.154  1.00  0.00     0.210 C 
ENDBRANCH   7  32
BRANCH   1  34
HETATM   34  O1  UNL     1      45.651  28.822  25.073  1.00  0.00    -0.350 OA
HETATM   35  C1  UNL     1      45.507  29.459  23.816  1.00  0.00     0.210 C 
ENDBRANCH   1  34
TORSDOF 9
ENDMDL
