MODEL 1
REMARK VINA RESULT: -6.843913888      0.000      0.000
REMARK  6 active torsions:
REMARK  status: ('A' for Active; 'I' for Inactive)
REMARK       I    between atoms: C2_2  and  N1_4 
REMARK    1  A    between atoms: N1_4  and  C3_5 
REMARK    2  A    between atoms: N1_4  and  C4_7 
REMARK    3  A    between atoms: C4_7  and  C12_22 
REMARK    4  A    between atoms: C6_9  and  O3_10 
REMARK    5  A    between atoms: C7_12  and  C8_13 
REMARK    6  A    between atoms: C9_16  and  C10_20 
ROOT
HETATM    1  C4  UNL     1      17.126   3.137  13.844  1.00  0.00     0.214 C 
HETATM    2  C5  UNL     1      17.975   2.831  15.015  1.00  0.00     0.095 C 
HETATM    3  C6  UNL     1      17.273   2.156  16.174  1.00  0.00     0.133 C 
HETATM    4  C7  UNL     1      15.798   2.112  16.096  1.00  0.00     0.110 C 
HETATM    5  C9  UNL     1      15.216   2.370  14.729  1.00  0.00     0.205 C 
HETATM    6  N2  UNL     1      16.144   2.096  13.650  1.00  0.00    -0.042 N 
ATOM      7  H21 UNL     1      16.516   1.146  13.627  1.00  0.00     0.280 HD
ATOM      8  H22 UNL     1      15.730   2.056  12.719  1.00  0.00     0.280 HD
ENDROOT
BRANCH   1   9
HETATM    9  N1  UNL     1      17.933   3.363  12.668  1.00  0.00    -0.260 N 
HETATM   10  C2  UNL     1      17.370   3.393  11.363  1.00  0.00     0.224 C 
HETATM   11  C1  UNL     1      18.112   3.624  10.111  1.00  0.00     0.117 C 
HETATM   12  O1  UNL     1      16.122   3.204  11.268  1.00  0.00    -0.273 OA
BRANCH   9  13
HETATM   13  C3  UNL     1      19.304   3.597  12.818  1.00  0.00     0.360 C 
HETATM   14  O2  UNL     1      20.211   2.729  12.607  1.00  0.00    -0.283 OA
ENDBRANCH   9  13
ENDBRANCH   1   9
BRANCH   1  15
HETATM   15  C12 UNL     1      16.282   4.381  13.998  1.00  0.00     0.049 A 
HETATM   16  C10 UNL     1      17.141   5.261  14.863  1.00  0.00     0.026 A 
HETATM   17  C11 UNL     1      16.753   5.673  13.514  1.00  0.00     0.016 A 
ENDBRANCH   1  15
BRANCH   3  18
HETATM   18  O3  UNL     1      17.742   0.858  16.412  1.00  0.00    -0.395 OA
ATOM     19  H3  UNL     1      17.095   0.303  16.831  1.00  0.00     0.210 HD
ENDBRANCH   3  18
BRANCH   4  20
HETATM   20  C8  UNL     1      15.266   0.807  16.683  1.00  0.00     0.361 C 
HETATM   21  F1  UNL     1      13.977   0.539  16.351  1.00  0.00    -0.214 F 
HETATM   22  F2  UNL     1      15.462   0.877  18.063  1.00  0.00    -0.214 F 
ENDBRANCH   4  20
TORSDOF 6
ENDMDL
MODEL 2
REMARK VINA RESULT: -6.714240830      0.638      1.701
REMARK  6 active torsions:
REMARK  status: ('A' for Active; 'I' for Inactive)
REMARK       I    between atoms: C2_2  and  N1_4 
REMARK    1  A    between atoms: N1_4  and  C3_5 
REMARK    2  A    between atoms: N1_4  and  C4_7 
REMARK    3  A    between atoms: C4_7  and  C12_22 
REMARK    4  A    between atoms: C6_9  and  O3_10 
REMARK    5  A    between atoms: C7_12  and  C8_13 
REMARK    6  A    between atoms: C9_16  and  C10_20 
ROOT
HETATM    1  C4  UNL     1      16.888   3.071  13.962  1.00  0.00     0.214 C 
HETATM    2  C5  UNL     1      17.827   2.736  15.054  1.00  0.00     0.095 C 
HETATM    3  C6  UNL     1      17.215   2.045  16.254  1.00  0.00     0.133 C 
HETATM    4  C7  UNL     1      15.738   2.015  16.296  1.00  0.00     0.110 C 
HETATM    5  C9  UNL     1      15.049   2.303  14.986  1.00  0.00     0.205 C 
HETATM    6  N2  UNL     1      15.883   2.041  13.831  1.00  0.00    -0.042 N 
ATOM      7  H21 UNL     1      16.243   1.089  13.760  1.00  0.00     0.280 HD
ATOM      8  H22 UNL     1      15.394   2.022  12.936  1.00  0.00     0.280 HD
ENDROOT
BRANCH   1   9
HETATM    9  N1  UNL     1      17.599   3.312  12.729  1.00  0.00    -0.260 N 
HETATM   10  C2  UNL     1      19.013   3.453  12.691  1.00  0.00     0.224 C 
HETATM   11  C1  UNL     1      19.822   3.692  11.482  1.00  0.00     0.117 C 
HETATM   12  O1  UNL     1      19.633   3.365  13.791  1.00  0.00    -0.273 OA
BRANCH   9  13
HETATM   13  C3  UNL     1      16.881   3.373  11.530  1.00  0.00     0.360 C 
HETATM   14  O2  UNL     1      16.218   2.404  11.037  1.00  0.00    -0.283 OA
ENDBRANCH   9  13
ENDBRANCH   1   9
BRANCH   1  15
HETATM   15  C12 UNL     1      16.071   4.318  14.206  1.00  0.00     0.049 A 
HETATM   16  C10 UNL     1      17.045   5.220  14.915  1.00  0.00     0.026 A 
HETATM   17  C11 UNL     1      16.462   5.598  13.627  1.00  0.00     0.016 A 
ENDBRANCH   1  15
BRANCH   3  18
HETATM   18  O3  UNL     1      17.689   0.739  16.430  1.00  0.00    -0.395 OA
ATOM     19  H3  UNL     1      17.017   0.141  16.734  1.00  0.00     0.210 HD
ENDBRANCH   3  18
BRANCH   4  20
HETATM   20  C8  UNL     1      15.243   0.704  16.902  1.00  0.00     0.361 C 
HETATM   21  F1  UNL     1      13.974   0.376  16.544  1.00  0.00    -0.214 F 
HETATM   22  F2  UNL     1      15.399   0.814  18.284  1.00  0.00    -0.214 F 
ENDBRANCH   4  20
TORSDOF 6
ENDMDL
MODEL 3
REMARK VINA RESULT: -6.261254033      1.827      3.112
REMARK  6 active torsions:
REMARK  status: ('A' for Active; 'I' for Inactive)
REMARK       I    between atoms: C2_2  and  N1_4 
REMARK    1  A    between atoms: N1_4  and  C3_5 
REMARK    2  A    between atoms: N1_4  and  C4_7 
REMARK    3  A    between atoms: C4_7  and  C12_22 
REMARK    4  A    between atoms: C6_9  and  O3_10 
REMARK    5  A    between atoms: C7_12  and  C8_13 
REMARK    6  A    between atoms: C9_16  and  C10_20 
ROOT
HETATM    1  C4  UNL     1      16.887   2.986  14.733  1.00  0.00     0.214 C 
HETATM    2  C5  UNL     1      15.442   3.263  14.880  1.00  0.00     0.095 C 
HETATM    3  C6  UNL     1      14.679   2.307  15.771  1.00  0.00     0.133 C 
HETATM    4  C7  UNL     1      15.407   1.087  16.179  1.00  0.00     0.110 C 
HETATM    5  C9  UNL     1      16.903   1.139  16.002  1.00  0.00     0.205 C 
HETATM    6  N2  UNL     1      17.430   2.488  15.976  1.00  0.00    -0.042 N 
ATOM      7  H21 UNL     1      17.221   3.053  16.799  1.00  0.00     0.280 HD
ATOM      8  H22 UNL     1      18.444   2.562  16.068  1.00  0.00     0.280 HD
ENDROOT
BRANCH   1   9
HETATM    9  N1  UNL     1      17.588   4.151  14.249  1.00  0.00    -0.260 N 
HETATM   10  C2  UNL     1      19.007   4.238  14.269  1.00  0.00     0.224 C 
HETATM   11  C1  UNL     1      19.806   5.380  13.790  1.00  0.00     0.117 C 
HETATM   12  O1  UNL     1      19.640   3.248  14.739  1.00  0.00    -0.273 OA
BRANCH   9  13
HETATM   13  C3  UNL     1      16.853   5.211  13.709  1.00  0.00     0.360 C 
HETATM   14  O2  UNL     1      16.726   5.440  12.462  1.00  0.00    -0.283 OA
ENDBRANCH   9  13
ENDBRANCH   1   9
BRANCH   1  15
HETATM   15  C12 UNL     1      17.211   1.884  13.751  1.00  0.00     0.049 A 
HETATM   16  C10 UNL     1      16.102   2.002  12.742  1.00  0.00     0.026 A 
HETATM   17  C11 UNL     1      17.502   2.184  12.355  1.00  0.00     0.016 A 
ENDBRANCH   1  15
BRANCH   3  18
HETATM   18  O3  UNL     1      14.170   2.923  16.921  1.00  0.00    -0.395 OA
ATOM     19  H3  UNL     1      13.475   2.422  17.331  1.00  0.00     0.210 HD
ENDBRANCH   3  18
BRANCH   4  20
HETATM   20  C8  UNL     1      15.035   0.690  17.606  1.00  0.00     0.361 C 
HETATM   21  F1  UNL     1      15.811   1.269  18.559  1.00  0.00    -0.214 F 
HETATM   22  F2  UNL     1      15.071  -0.704  17.658  1.00  0.00    -0.214 F 
ENDBRANCH   4  20
TORSDOF 6
ENDMDL
MODEL 4
REMARK VINA RESULT: -6.075082301      1.624      1.687
REMARK  6 active torsions:
REMARK  status: ('A' for Active; 'I' for Inactive)
REMARK       I    between atoms: C2_2  and  N1_4 
REMARK    1  A    between atoms: N1_4  and  C3_5 
REMARK    2  A    between atoms: N1_4  and  C4_7 
REMARK    3  A    between atoms: C4_7  and  C12_22 
REMARK    4  A    between atoms: C6_9  and  O3_10 
REMARK    5  A    between atoms: C7_12  and  C8_13 
REMARK    6  A    between atoms: C9_16  and  C10_20 
ROOT
HETATM    1  C4  UNL     1      17.832   3.345  13.573  1.00  0.00     0.214 C 
HETATM    2  C5  UNL     1      18.115   3.418  15.023  1.00  0.00     0.095 C 
HETATM    3  C6  UNL     1      17.379   2.414  15.885  1.00  0.00     0.133 C 
HETATM    4  C7  UNL     1      16.298   1.662  15.216  1.00  0.00     0.110 C 
HETATM    5  C9  UNL     1      16.328   1.689  13.708  1.00  0.00     0.205 C 
HETATM    6  N2  UNL     1      17.642   1.972  13.168  1.00  0.00    -0.042 N 
ATOM      7  H21 UNL     1      18.379   1.328  13.455  1.00  0.00     0.280 HD
ATOM      8  H22 UNL     1      17.749   1.794  12.168  1.00  0.00     0.280 HD
ENDROOT
BRANCH   1   9
HETATM    9  N1  UNL     1      18.863   4.011  12.813  1.00  0.00    -0.260 N 
HETATM   10  C2  UNL     1      18.919   3.936  11.394  1.00  0.00     0.224 C 
HETATM   11  C1  UNL     1      19.927   4.587  10.538  1.00  0.00     0.117 C 
HETATM   12  O1  UNL     1      18.026   3.251  10.816  1.00  0.00    -0.273 OA
BRANCH   9  13
HETATM   13  C3  UNL     1      19.814   4.783  13.488  1.00  0.00     0.360 C 
HETATM   14  O2  UNL     1      19.758   6.049  13.612  1.00  0.00    -0.283 OA
ENDBRANCH   9  13
ENDBRANCH   1   9
BRANCH   1  15
HETATM   15  C12 UNL     1      16.537   4.006  13.160  1.00  0.00     0.049 A 
HETATM   16  C10 UNL     1      16.361   5.074  14.205  1.00  0.00     0.026 A 
HETATM   17  C11 UNL     1      16.499   5.416  12.789  1.00  0.00     0.016 A 
ENDBRANCH   1  15
BRANCH   3  18
HETATM   18  O3  UNL     1      18.238   1.497  16.504  1.00  0.00    -0.395 OA
ATOM     19  H3  UNL     1      18.317   1.640  17.440  1.00  0.00     0.210 HD
ENDBRANCH   3  18
BRANCH   4  20
HETATM   20  C8  UNL     1      16.236   0.228  15.739  1.00  0.00     0.361 C 
HETATM   21  F1  UNL     1      16.512  -0.713  14.799  1.00  0.00    -0.214 F 
HETATM   22  F2  UNL     1      14.974   0.062  16.310  1.00  0.00    -0.214 F 
ENDBRANCH   4  20
TORSDOF 6
ENDMDL
MODEL 5
REMARK VINA RESULT: -6.013966858      1.857      2.756
REMARK  6 active torsions:
REMARK  status: ('A' for Active; 'I' for Inactive)
REMARK       I    between atoms: C2_2  and  N1_4 
REMARK    1  A    between atoms: N1_4  and  C3_5 
REMARK    2  A    between atoms: N1_4  and  C4_7 
REMARK    3  A    between atoms: C4_7  and  C12_22 
REMARK    4  A    between atoms: C6_9  and  O3_10 
REMARK    5  A    between atoms: C7_12  and  C8_13 
REMARK    6  A    between atoms: C9_16  and  C10_20 
ROOT
HETATM    1  C4  UNL     1      16.921   2.895  14.629  1.00  0.00     0.214 C 
HETATM    2  C5  UNL     1      15.530   3.363  14.813  1.00  0.00     0.095 C 
HETATM    3  C6  UNL     1      14.668   2.513  15.721  1.00  0.00     0.133 C 
HETATM    4  C7  UNL     1      15.236   1.205  16.108  1.00  0.00     0.110 C 
HETATM    5  C9  UNL     1      16.721   1.057  15.893  1.00  0.00     0.205 C 
HETATM    6  N2  UNL     1      17.423   2.323  15.856  1.00  0.00    -0.042 N 
ATOM      7  H21 UNL     1      17.312   2.907  16.686  1.00  0.00     0.280 HD
ATOM      8  H22 UNL     1      18.439   2.260  15.923  1.00  0.00     0.280 HD
ENDROOT
BRANCH   1   9
HETATM    9  N1  UNL     1      17.759   3.959  14.129  1.00  0.00    -0.260 N 
HETATM   10  C2  UNL     1      17.224   5.215  13.733  1.00  0.00     0.224 C 
HETATM   11  C1  UNL     1      18.001   6.358  13.220  1.00  0.00     0.117 C 
HETATM   12  O1  UNL     1      15.971   5.366  13.829  1.00  0.00    -0.273 OA
BRANCH   9  13
HETATM   13  C3  UNL     1      19.142   3.763  14.066  1.00  0.00     0.360 C 
HETATM   14  O2  UNL     1      19.870   3.435  15.059  1.00  0.00    -0.283 OA
ENDBRANCH   9  13
ENDBRANCH   1   9
BRANCH   1  15
HETATM   15  C12 UNL     1      17.069   1.765  13.637  1.00  0.00     0.049 A 
HETATM   16  C10 UNL     1      16.056   2.114  12.582  1.00  0.00     0.026 A 
HETATM   17  C11 UNL     1      17.481   2.022  12.263  1.00  0.00     0.016 A 
ENDBRANCH   1  15
BRANCH   3  18
HETATM   18  O3  UNL     1      14.275   3.186  16.885  1.00  0.00    -0.395 OA
ATOM     19  H3  UNL     1      13.452   2.867  17.236  1.00  0.00     0.210 HD
ENDBRANCH   3  18
BRANCH   4  20
HETATM   20  C8  UNL     1      14.849   0.854  17.544  1.00  0.00     0.361 C 
HETATM   21  F1  UNL     1      15.798   0.147  18.212  1.00  0.00    -0.214 F 
HETATM   22  F2  UNL     1      13.627   0.184  17.480  1.00  0.00    -0.214 F 
ENDBRANCH   4  20
TORSDOF 6
ENDMDL
