MODEL 1
REMARK VINA RESULT: -6.418262442      0.000      0.000
REMARK  7 active torsions:
REMARK  status: ('A' for Active; 'I' for Inactive)
REMARK    1  A    between atoms: C2_2  and  C3_3 
REMARK    2  A    between atoms: C9_10  and  N2_11 
REMARK    3  A    between atoms: N2_11  and  C10_13 
REMARK    4  A    between atoms: C10_13  and  C11_17 
REMARK    5  A    between atoms: C11_17  and  C12_18 
REMARK    6  A    between atoms: C13_19  and  C14_20 
REMARK    7  A    between atoms: C14_20  and  O1_21 
ROOT
HETATM    1  N2  UNL     1      17.120   2.325  13.844  1.00  0.00    -0.373 N 
ATOM      2  H2  UNL     1      16.760   1.473  14.274  1.00  0.00     0.161 HD
ENDROOT
BRANCH   1   3
HETATM    3  C9  UNL     1      17.550   2.270  12.447  1.00  0.00     0.122 C 
HETATM    4  C3  UNL     1      16.464   2.658  11.509  1.00  0.00     0.038 C 
HETATM    5  C4  UNL     1      16.097   1.396  10.759  1.00  0.00     0.280 C 
HETATM    6  N1  UNL     1      16.646   0.300  11.521  1.00  0.00     0.100 N 
HETATM    7  C5  UNL     1      17.521  -0.549  10.730  1.00  0.00     0.221 C 
HETATM    8  C8  UNL     1      17.833   0.837  12.153  1.00  0.00     0.248 C 
HETATM    9  C6  UNL     1      17.796  -1.828  11.517  1.00  0.00     0.043 C 
HETATM   10  C7  UNL     1      18.612   0.510  10.939  1.00  0.00     0.073 C 
BRANCH   4  11
HETATM   11  C2  UNL     1      16.846   3.759  10.555  1.00  0.00     0.004 C 
HETATM   12  C1  UNL     1      17.935   4.636  11.058  1.00  0.00     0.005 C 
ENDBRANCH   4  11
ENDBRANCH   1   3
BRANCH   1  13
HETATM   13  C10 UNL     1      17.176   3.489  14.621  1.00  0.00     0.074 C 
HETATM   14  N3  UNL     1      18.291   3.961  15.015  1.00  0.00    -0.389 N 
ATOM     15  H32 UNL     1      19.157   3.485  14.762  1.00  0.00     0.157 HD
ATOM     16  H31 UNL     1      18.331   4.808  15.581  1.00  0.00     0.157 HD
BRANCH  13  17
HETATM   17  C11 UNL     1      15.927   4.174  14.985  1.00  0.00     0.102 C 
BRANCH  17  18
HETATM   18  C12 UNL     1      14.829   3.250  15.301  1.00  0.00    -0.021 C 
HETATM   19  C13 UNL     1      14.742   2.674  16.482  1.00  0.00    -0.005 C 
BRANCH  19  20
HETATM   20  C14 UNL     1      13.620   1.729  16.806  1.00  0.00     0.194 C 
BRANCH  20  21
HETATM   21  O1  UNL     1      14.131   0.454  16.718  1.00  0.00    -0.392 OA
HETATM   22  C15 UNL     1      15.223   0.259  17.562  1.00  0.00     0.201 C 
ENDBRANCH  20  21
ENDBRANCH  19  20
ENDBRANCH  17  18
ENDBRANCH  13  17
ENDBRANCH   1  13
TORSDOF 7
ENDMDL
MODEL 2
REMARK VINA RESULT: -6.348336306      2.903      6.323
REMARK  7 active torsions:
REMARK  status: ('A' for Active; 'I' for Inactive)
REMARK    1  A    between atoms: C2_2  and  C3_3 
REMARK    2  A    between atoms: C9_10  and  N2_11 
REMARK    3  A    between atoms: N2_11  and  C10_13 
REMARK    4  A    between atoms: C10_13  and  C11_17 
REMARK    5  A    between atoms: C11_17  and  C12_18 
REMARK    6  A    between atoms: C13_19  and  C14_20 
REMARK    7  A    between atoms: C14_20  and  O1_21 
ROOT
HETATM    1  N2  UNL     1      16.780   1.052  13.185  1.00  0.00    -0.373 N 
ATOM      2  H2  UNL     1      17.133   0.338  13.822  1.00  0.00     0.161 HD
ENDROOT
BRANCH   1   3
HETATM    3  C9  UNL     1      16.212   2.273  13.756  1.00  0.00     0.122 C 
HETATM    4  C3  UNL     1      17.250   3.303  14.024  1.00  0.00     0.038 C 
HETATM    5  C4  UNL     1      17.334   3.423  15.530  1.00  0.00     0.280 C 
HETATM    6  N1  UNL     1      16.692   2.245  16.064  1.00  0.00     0.100 N 
HETATM    7  C5  UNL     1      15.619   2.564  16.991  1.00  0.00     0.221 C 
HETATM    8  C8  UNL     1      15.675   1.898  15.095  1.00  0.00     0.248 C 
HETATM    9  C6  UNL     1      15.219   1.288  17.727  1.00  0.00     0.043 C 
HETATM   10  C7  UNL     1      14.739   2.828  15.762  1.00  0.00     0.073 C 
BRANCH   4  11
HETATM   11  C2  UNL     1      16.960   4.640  13.394  1.00  0.00     0.004 C 
HETATM   12  C1  UNL     1      16.704   5.724  14.379  1.00  0.00     0.005 C 
ENDBRANCH   4  11
ENDBRANCH   1   3
BRANCH   1  13
HETATM   13  C10 UNL     1      16.862   0.815  11.807  1.00  0.00     0.074 C 
HETATM   14  N3  UNL     1      15.956   1.232  11.015  1.00  0.00    -0.389 N 
ATOM     15  H32 UNL     1      15.159   1.749  11.387  1.00  0.00     0.157 HD
ATOM     16  H31 UNL     1      16.016   1.059  10.011  1.00  0.00     0.157 HD
BRANCH  13  17
HETATM   17  C11 UNL     1      18.010   0.071  11.271  1.00  0.00     0.102 C 
BRANCH  17  18
HETATM   18  C12 UNL     1      18.909   0.899  10.455  1.00  0.00    -0.021 C 
HETATM   19  C13 UNL     1      19.547   1.927  10.975  1.00  0.00    -0.005 C 
BRANCH  19  20
HETATM   20  C14 UNL     1      20.467   2.774  10.142  1.00  0.00     0.194 C 
BRANCH  20  21
HETATM   21  O1  UNL     1      20.195   2.483   8.824  1.00  0.00    -0.392 OA
HETATM   22  C15 UNL     1      20.590   3.504   7.961  1.00  0.00     0.201 C 
ENDBRANCH  20  21
ENDBRANCH  19  20
ENDBRANCH  17  18
ENDBRANCH  13  17
ENDBRANCH   1  13
TORSDOF 7
ENDMDL
MODEL 3
REMARK VINA RESULT: -6.203424101      2.980      6.570
REMARK  7 active torsions:
REMARK  status: ('A' for Active; 'I' for Inactive)
REMARK    1  A    between atoms: C2_2  and  C3_3 
REMARK    2  A    between atoms: C9_10  and  N2_11 
REMARK    3  A    between atoms: N2_11  and  C10_13 
REMARK    4  A    between atoms: C10_13  and  C11_17 
REMARK    5  A    between atoms: C11_17  and  C12_18 
REMARK    6  A    between atoms: C13_19  and  C14_20 
REMARK    7  A    between atoms: C14_20  and  O1_21 
ROOT
HETATM    1  N2  UNL     1      16.042   1.883  12.417  1.00  0.00    -0.373 N 
ATOM      2  H2  UNL     1      15.137   2.308  12.213  1.00  0.00     0.161 HD
ENDROOT
BRANCH   1   3
HETATM    3  C9  UNL     1      16.718   2.253  13.661  1.00  0.00     0.122 C 
HETATM    4  C3  UNL     1      15.824   2.131  14.843  1.00  0.00     0.038 C 
HETATM    5  C4  UNL     1      15.582   3.544  15.325  1.00  0.00     0.280 C 
HETATM    6  N1  UNL     1      15.971   4.413  14.239  1.00  0.00     0.100 N 
HETATM    7  C5  UNL     1      16.963   5.397  14.636  1.00  0.00     0.221 C 
HETATM    8  C8  UNL     1      17.030   3.705  13.551  1.00  0.00     0.248 C 
HETATM    9  C6  UNL     1      17.075   6.445  13.532  1.00  0.00     0.043 C 
HETATM   10  C7  UNL     1      18.011   4.286  14.493  1.00  0.00     0.073 C 
BRANCH   4  11
HETATM   11  C2  UNL     1      16.387   1.275  15.947  1.00  0.00     0.004 C 
HETATM   12  C1  UNL     1      15.386   0.892  16.977  1.00  0.00     0.005 C 
ENDBRANCH   4  11
ENDBRANCH   1   3
BRANCH   1  13
HETATM   13  C10 UNL     1      16.575   0.976  11.493  1.00  0.00     0.074 C 
HETATM   14  N3  UNL     1      15.924   0.645  10.450  1.00  0.00    -0.389 N 
ATOM     15  H32 UNL     1      15.001   1.045  10.283  1.00  0.00     0.157 HD
ATOM     16  H31 UNL     1      16.313  -0.016   9.777  1.00  0.00     0.157 HD
BRANCH  13  17
HETATM   17  C11 UNL     1      17.905   0.400  11.733  1.00  0.00     0.102 C 
BRANCH  17  18
HETATM   18  C12 UNL     1      18.948   0.960  10.862  1.00  0.00    -0.021 C 
HETATM   19  C13 UNL     1      19.454   2.155  11.088  1.00  0.00    -0.005 C 
BRANCH  19  20
HETATM   20  C14 UNL     1      20.520   2.729  10.199  1.00  0.00     0.194 C 
BRANCH  20  21
HETATM   21  O1  UNL     1      20.146   2.461   8.901  1.00  0.00    -0.392 OA
HETATM   22  C15 UNL     1      20.543   3.461   8.015  1.00  0.00     0.201 C 
ENDBRANCH  20  21
ENDBRANCH  19  20
ENDBRANCH  17  18
ENDBRANCH  13  17
ENDBRANCH   1  13
TORSDOF 7
ENDMDL
MODEL 4
REMARK VINA RESULT: -6.103005115      1.561      2.727
REMARK  7 active torsions:
REMARK  status: ('A' for Active; 'I' for Inactive)
REMARK    1  A    between atoms: C2_2  and  C3_3 
REMARK    2  A    between atoms: C9_10  and  N2_11 
REMARK    3  A    between atoms: N2_11  and  C10_13 
REMARK    4  A    between atoms: C10_13  and  C11_17 
REMARK    5  A    between atoms: C11_17  and  C12_18 
REMARK    6  A    between atoms: C13_19  and  C14_20 
REMARK    7  A    between atoms: C14_20  and  O1_21 
ROOT
HETATM    1  N2  UNL     1      18.026   3.928  13.694  1.00  0.00    -0.373 N 
ATOM      2  H2  UNL     1      18.854   4.508  13.827  1.00  0.00     0.161 HD
ENDROOT
BRANCH   1   3
HETATM    3  C9  UNL     1      17.686   3.504  12.336  1.00  0.00     0.122 C 
HETATM    4  C3  UNL     1      17.454   2.038  12.246  1.00  0.00     0.038 C 
HETATM    5  C4  UNL     1      18.600   1.488  11.425  1.00  0.00     0.280 C 
HETATM    6  N1  UNL     1      19.618   2.513  11.416  1.00  0.00     0.100 N 
HETATM    7  C5  UNL     1      20.011   2.899  10.072  1.00  0.00     0.221 C 
HETATM    8  C8  UNL     1      18.894   3.764  11.502  1.00  0.00     0.248 C 
HETATM    9  C6  UNL     1      21.283   3.738  10.161  1.00  0.00     0.043 C 
HETATM   10  C7  UNL     1      18.745   3.764  10.031  1.00  0.00     0.073 C 
BRANCH   4  11
HETATM   11  C2  UNL     1      16.129   1.667  11.636  1.00  0.00     0.004 C 
HETATM   12  C1  UNL     1      16.185   0.461  10.769  1.00  0.00     0.005 C 
ENDBRANCH   4  11
ENDBRANCH   1   3
BRANCH   1  13
HETATM   13  C10 UNL     1      17.272   3.576  14.820  1.00  0.00     0.074 C 
HETATM   14  N3  UNL     1      17.757   2.824  15.725  1.00  0.00    -0.389 N 
ATOM     15  H32 UNL     1      18.709   2.471  15.631  1.00  0.00     0.157 HD
ATOM     16  H31 UNL     1      17.207   2.568  16.545  1.00  0.00     0.157 HD
BRANCH  13  17
HETATM   17  C11 UNL     1      15.899   4.085  14.956  1.00  0.00     0.102 C 
BRANCH  17  18
HETATM   18  C12 UNL     1      14.915   3.031  15.241  1.00  0.00    -0.021 C 
HETATM   19  C13 UNL     1      14.540   2.766  16.475  1.00  0.00    -0.005 C 
BRANCH  19  20
HETATM   20  C14 UNL     1      13.534   1.690  16.768  1.00  0.00     0.194 C 
BRANCH  20  21
HETATM   21  O1  UNL     1      14.196   0.486  16.677  1.00  0.00    -0.392 OA
HETATM   22  C15 UNL     1      15.246   0.386  17.587  1.00  0.00     0.201 C 
ENDBRANCH  20  21
ENDBRANCH  19  20
ENDBRANCH  17  18
ENDBRANCH  13  17
ENDBRANCH   1  13
TORSDOF 7
ENDMDL
MODEL 5
REMARK VINA RESULT: -6.074224175      2.588      5.969
REMARK  7 active torsions:
REMARK  status: ('A' for Active; 'I' for Inactive)
REMARK    1  A    between atoms: C2_2  and  C3_3 
REMARK    2  A    between atoms: C9_10  and  N2_11 
REMARK    3  A    between atoms: N2_11  and  C10_13 
REMARK    4  A    between atoms: C10_13  and  C11_17 
REMARK    5  A    between atoms: C11_17  and  C12_18 
REMARK    6  A    between atoms: C13_19  and  C14_20 
REMARK    7  A    between atoms: C14_20  and  O1_21 
ROOT
HETATM    1  N2  UNL     1      16.983   1.245  13.007  1.00  0.00    -0.373 N 
ATOM      2  H2  UNL     1      17.537   0.630  13.602  1.00  0.00     0.161 HD
ENDROOT
BRANCH   1   3
HETATM    3  C9  UNL     1      16.340   2.408  13.618  1.00  0.00     0.122 C 
HETATM    4  C3  UNL     1      17.315   3.481  13.946  1.00  0.00     0.038 C 
HETATM    5  C4  UNL     1      17.370   3.542  15.457  1.00  0.00     0.280 C 
HETATM    6  N1  UNL     1      16.785   2.309  15.931  1.00  0.00     0.100 N 
HETATM    7  C5  UNL     1      15.682   2.530  16.851  1.00  0.00     0.221 C 
HETATM    8  C8  UNL     1      15.803   1.948  14.930  1.00  0.00     0.248 C 
HETATM    9  C6  UNL     1      15.342   1.205  17.527  1.00  0.00     0.043 C 
HETATM   10  C7  UNL     1      14.808   2.798  15.618  1.00  0.00     0.073 C 
BRANCH   4  11
HETATM   11  C2  UNL     1      16.961   4.825  13.367  1.00  0.00     0.004 C 
HETATM   12  C1  UNL     1      16.657   5.858  14.391  1.00  0.00     0.005 C 
ENDBRANCH   4  11
ENDBRANCH   1   3
BRANCH   1  13
HETATM   13  C10 UNL     1      16.874   0.934  11.646  1.00  0.00     0.074 C 
HETATM   14  N3  UNL     1      15.835   1.250  10.982  1.00  0.00    -0.389 N 
ATOM     15  H32 UNL     1      15.069   1.739  11.446  1.00  0.00     0.157 HD
ATOM     16  H31 UNL     1      15.756   1.023   9.990  1.00  0.00     0.157 HD
BRANCH  13  17
HETATM   17  C11 UNL     1      17.978   0.230  10.977  1.00  0.00     0.102 C 
BRANCH  17  18
HETATM   18  C12 UNL     1      19.238   0.986  10.984  1.00  0.00    -0.021 C 
HETATM   19  C13 UNL     1      19.343   2.140  10.359  1.00  0.00    -0.005 C 
BRANCH  19  20
HETATM   20  C14 UNL     1      20.631   2.913  10.366  1.00  0.00     0.194 C 
BRANCH  20  21
HETATM   21  O1  UNL     1      20.818   3.369  11.652  1.00  0.00    -0.392 OA
HETATM   22  C15 UNL     1      20.399   4.688  11.815  1.00  0.00     0.201 C 
ENDBRANCH  20  21
ENDBRANCH  19  20
ENDBRANCH  17  18
ENDBRANCH  13  17
ENDBRANCH   1  13
TORSDOF 7
ENDMDL
