MODEL 1
REMARK VINA RESULT: -7.906518487      0.000      0.000
REMARK  9 active torsions:
REMARK  status: ('A' for Active; 'I' for Inactive)
REMARK    1  A    between atoms: C3_5  and  C4_6 
REMARK    2  A    between atoms: C4_6  and  C5_9 
REMARK    3  A    between atoms: C5_9  and  O1_10 
REMARK    4  A    between atoms: N2_17  and  C8_18 
REMARK    5  A    between atoms: C8_18  and  C9_19 
REMARK    6  A    between atoms: C8_18  and  C12_25 
REMARK    7  A    between atoms: C9_19  and  C10_20 
REMARK    8  A    between atoms: C10_20  and  C11_21 
REMARK    9  A    between atoms: C13_28  and  C14_29 
ROOT
HETATM    1  C1  UNL     1      16.662   2.632  15.886  1.00  0.00     0.034 C 
HETATM    2  C2  UNL     1      16.875   3.103  14.494  1.00  0.00     0.109 C 
HETATM    3  N1  UNL     1      16.841   1.898  13.643  1.00  0.00    -0.379 N 
ATOM      4  H1  UNL     1      16.811   1.017  14.155  1.00  0.00     0.160 HD
HETATM    5  C3  UNL     1      16.843   1.762  12.229  1.00  0.00     0.128 C 
HETATM    6  C6  UNL     1      16.820   2.737  11.336  1.00  0.00     0.212 C 
HETATM    7  F4  UNL     1      16.828   2.339  10.056  1.00  0.00    -0.198 F 
HETATM    8  C7  UNL     1      16.790   4.198  11.623  1.00  0.00     0.286 C 
HETATM    9  O2  UNL     1      17.086   4.848  10.604  1.00  0.00    -0.265 OA
HETATM   10  N2  UNL     1      16.478   4.839  12.859  1.00  0.00    -0.316 N 
HETATM   11  C13 UNL     1      15.896   4.141  13.990  1.00  0.00     0.218 C 
ENDROOT
BRANCH  10  12
HETATM   12  C8  UNL     1      16.812   6.234  12.881  1.00  0.00     0.189 C 
BRANCH  12  13
HETATM   13  C9  UNL     1      18.305   6.367  12.790  1.00  0.00     0.045 C 
BRANCH  13  14
HETATM   14  C10 UNL     1      19.029   6.502  14.096  1.00  0.00     0.120 C 
BRANCH  14  15
HETATM   15  C11 UNL     1      18.990   7.963  14.582  1.00  0.00     0.388 C 
HETATM   16  F5  UNL     1      18.759   8.812  13.531  1.00  0.00    -0.171 F 
HETATM   17  F6  UNL     1      20.191   8.318  15.165  1.00  0.00    -0.171 F 
HETATM   18  F7  UNL     1      18.007   8.158  15.511  1.00  0.00    -0.171 F 
ENDBRANCH  14  15
ENDBRANCH  13  14
ENDBRANCH  12  13
BRANCH  12  19
HETATM   19  C12 UNL     1      16.029   7.049  11.936  1.00  0.00     0.197 C 
HETATM   20  O3  UNL     1      14.800   6.927  11.707  1.00  0.00    -0.646 OA
HETATM   21  O4  UNL     1      16.636   8.055  11.197  1.00  0.00    -0.646 OA
ENDBRANCH  12  19
ENDBRANCH  10  12
BRANCH  11  22
HETATM   22  C14 UNL     1      15.250   4.952  15.024  1.00  0.00     0.409 C 
HETATM   23  F8  UNL     1      16.136   5.863  15.559  1.00  0.00    -0.169 F 
HETATM   24  F9  UNL     1      14.531   4.296  15.993  1.00  0.00    -0.169 F 
HETATM   25  F10 UNL     1      14.312   5.783  14.376  1.00  0.00    -0.169 F 
ENDBRANCH  11  22
BRANCH   5  26
HETATM   26  C4  UNL     1      16.872   0.388  11.685  1.00  0.00     0.341 C 
HETATM   27  F1  UNL     1      15.798   0.117  10.883  1.00  0.00    -0.193 F 
HETATM   28  F2  UNL     1      16.790  -0.482  12.780  1.00  0.00    -0.193 F 
BRANCH  26  29
HETATM   29  C5  UNL     1      18.170   0.080  10.978  1.00  0.00     0.384 C 
HETATM   30  F3  UNL     1      18.723  -1.030  11.608  1.00  0.00    -0.213 F 
BRANCH  29  31
HETATM   31  O1  UNL     1      17.959  -0.254   9.657  1.00  0.00    -0.362 OA
ATOM     32  H1  UNL     1      18.258  -1.136   9.469  1.00  0.00     0.213 HD
ENDBRANCH  29  31
ENDBRANCH  26  29
ENDBRANCH   5  26
TORSDOF 9
ENDMDL
MODEL 2
REMARK VINA RESULT: -7.751432176      1.442      1.804
REMARK  9 active torsions:
REMARK  status: ('A' for Active; 'I' for Inactive)
REMARK    1  A    between atoms: C3_5  and  C4_6 
REMARK    2  A    between atoms: C4_6  and  C5_9 
REMARK    3  A    between atoms: C5_9  and  O1_10 
REMARK    4  A    between atoms: N2_17  and  C8_18 
REMARK    5  A    between atoms: C8_18  and  C9_19 
REMARK    6  A    between atoms: C8_18  and  C12_25 
REMARK    7  A    between atoms: C9_19  and  C10_20 
REMARK    8  A    between atoms: C10_20  and  C11_21 
REMARK    9  A    between atoms: C13_28  and  C14_29 
ROOT
HETATM    1  C1  UNL     1      17.181   3.250  15.697  1.00  0.00     0.034 C 
HETATM    2  C2  UNL     1      17.168   3.522  14.237  1.00  0.00     0.109 C 
HETATM    3  N1  UNL     1      17.097   2.206  13.574  1.00  0.00    -0.379 N 
ATOM      4  H1  UNL     1      17.197   1.408  14.201  1.00  0.00     0.160 HD
HETATM    5  C3  UNL     1      16.912   1.865  12.207  1.00  0.00     0.128 C 
HETATM    6  C6  UNL     1      16.702   2.697  11.201  1.00  0.00     0.212 C 
HETATM    7  F4  UNL     1      16.560   2.117  10.001  1.00  0.00    -0.198 F 
HETATM    8  C7  UNL     1      16.614   4.181  11.285  1.00  0.00     0.286 C 
HETATM    9  O2  UNL     1      16.723   4.689  10.154  1.00  0.00    -0.265 OA
HETATM   10  N2  UNL     1      16.434   4.981  12.454  1.00  0.00    -0.316 N 
HETATM   11  C13 UNL     1      16.062   4.429  13.743  1.00  0.00     0.218 C 
ENDROOT
BRANCH  10  12
HETATM   12  C8  UNL     1      16.674   6.378  12.234  1.00  0.00     0.189 C 
BRANCH  12  13
HETATM   13  C9  UNL     1      18.132   6.568  11.928  1.00  0.00     0.045 C 
BRANCH  13  14
HETATM   14  C10 UNL     1      19.035   6.715  13.116  1.00  0.00     0.120 C 
BRANCH  14  15
HETATM   15  C11 UNL     1      20.033   5.544  13.177  1.00  0.00     0.388 C 
HETATM   16  F5  UNL     1      20.111   5.046  14.452  1.00  0.00    -0.171 F 
HETATM   17  F6  UNL     1      21.296   5.956  12.798  1.00  0.00    -0.171 F 
HETATM   18  F7  UNL     1      19.665   4.525  12.344  1.00  0.00    -0.171 F 
ENDBRANCH  14  15
ENDBRANCH  13  14
ENDBRANCH  12  13
BRANCH  12  19
HETATM   19  C12 UNL     1      15.726   7.005  11.297  1.00  0.00     0.197 C 
HETATM   20  O3  UNL     1      14.480   6.849  11.301  1.00  0.00    -0.646 OA
HETATM   21  O4  UNL     1      16.178   7.851  10.294  1.00  0.00    -0.646 OA
ENDBRANCH  12  19
ENDBRANCH  10  12
BRANCH  11  22
HETATM   22  C14 UNL     1      15.512   5.352  14.739  1.00  0.00     0.409 C 
HETATM   23  F8  UNL     1      14.423   6.029  14.232  1.00  0.00    -0.169 F 
HETATM   24  F9  UNL     1      16.388   6.186  15.388  1.00  0.00    -0.169 F 
HETATM   25  F10 UNL     1      14.934   4.566  15.759  1.00  0.00    -0.169 F 
ENDBRANCH  11  22
BRANCH   5  26
HETATM   26  C4  UNL     1      16.958   0.430  11.859  1.00  0.00     0.341 C 
HETATM   27  F1  UNL     1      15.969   0.068  10.986  1.00  0.00    -0.193 F 
HETATM   28  F2  UNL     1      16.732  -0.281  13.045  1.00  0.00    -0.193 F 
BRANCH  26  29
HETATM   29  C5  UNL     1      18.315   0.007  11.348  1.00  0.00     0.384 C 
HETATM   30  F3  UNL     1      18.198  -0.157   9.972  1.00  0.00    -0.213 F 
BRANCH  29  31
HETATM   31  O1  UNL     1      19.265   0.980  11.572  1.00  0.00    -0.362 OA
ATOM     32  H1  UNL     1      19.234   1.657  10.906  1.00  0.00     0.213 HD
ENDBRANCH  29  31
ENDBRANCH  26  29
ENDBRANCH   5  26
TORSDOF 9
ENDMDL
MODEL 3
REMARK VINA RESULT: -7.538897873      3.012      4.572
REMARK  9 active torsions:
REMARK  status: ('A' for Active; 'I' for Inactive)
REMARK    1  A    between atoms: C3_5  and  C4_6 
REMARK    2  A    between atoms: C4_6  and  C5_9 
REMARK    3  A    between atoms: C5_9  and  O1_10 
REMARK    4  A    between atoms: N2_17  and  C8_18 
REMARK    5  A    between atoms: C8_18  and  C9_19 
REMARK    6  A    between atoms: C8_18  and  C12_25 
REMARK    7  A    between atoms: C9_19  and  C10_20 
REMARK    8  A    between atoms: C10_20  and  C11_21 
REMARK    9  A    between atoms: C13_28  and  C14_29 
ROOT
HETATM    1  C1  UNL     1      19.549   5.606  14.320  1.00  0.00     0.034 C 
HETATM    2  C2  UNL     1      18.862   4.786  13.291  1.00  0.00     0.109 C 
HETATM    3  N1  UNL     1      18.019   3.824  14.029  1.00  0.00    -0.379 N 
ATOM      4  H1  UNL     1      18.162   3.821  15.038  1.00  0.00     0.160 HD
HETATM    5  C3  UNL     1      17.043   2.902  13.566  1.00  0.00     0.128 C 
HETATM    6  C6  UNL     1      16.625   2.743  12.321  1.00  0.00     0.212 C 
HETATM    7  F4  UNL     1      15.689   1.799  12.149  1.00  0.00    -0.198 F 
HETATM    8  C7  UNL     1      17.095   3.501  11.128  1.00  0.00     0.286 C 
HETATM    9  O2  UNL     1      16.753   2.920  10.082  1.00  0.00    -0.265 OA
HETATM   10  N2  UNL     1      17.834   4.721  11.104  1.00  0.00    -0.316 N 
HETATM   11  C13 UNL     1      18.038   5.549  12.277  1.00  0.00     0.218 C 
ENDROOT
BRANCH  10  12
HETATM   12  C8  UNL     1      18.371   5.039   9.813  1.00  0.00     0.189 C 
BRANCH  12  13
HETATM   13  C9  UNL     1      19.462   4.058   9.495  1.00  0.00     0.045 C 
BRANCH  13  14
HETATM   14  C10 UNL     1      20.858   4.606   9.510  1.00  0.00     0.120 C 
BRANCH  14  15
HETATM   15  C11 UNL     1      21.615   4.107  10.755  1.00  0.00     0.388 C 
HETATM   16  F5  UNL     1      22.872   3.679  10.413  1.00  0.00    -0.171 F 
HETATM   17  F6  UNL     1      20.947   3.052  11.345  1.00  0.00    -0.171 F 
HETATM   18  F7  UNL     1      21.743   5.092  11.695  1.00  0.00    -0.171 F 
ENDBRANCH  14  15
ENDBRANCH  13  14
ENDBRANCH  12  13
BRANCH  12  19
HETATM   19  C12 UNL     1      17.346   5.230   8.772  1.00  0.00     0.197 C 
HETATM   20  O3  UNL     1      17.390   4.765   7.606  1.00  0.00    -0.646 OA
HETATM   21  O4  UNL     1      16.206   5.979   9.029  1.00  0.00    -0.646 OA
ENDBRANCH  12  19
ENDBRANCH  10  12
BRANCH  11  22
HETATM   22  C14 UNL     1      18.438   6.941  12.061  1.00  0.00     0.409 C 
HETATM   23  F8  UNL     1      17.563   7.576  11.205  1.00  0.00    -0.169 F 
HETATM   24  F9  UNL     1      19.750   7.185  11.738  1.00  0.00    -0.169 F 
HETATM   25  F10 UNL     1      18.229   7.628  13.276  1.00  0.00    -0.169 F 
ENDBRANCH  11  22
BRANCH   5  26
HETATM   26  C4  UNL     1      16.417   2.021  14.574  1.00  0.00     0.341 C 
HETATM   27  F1  UNL     1      16.403   0.708  14.189  1.00  0.00    -0.193 F 
HETATM   28  F2  UNL     1      15.081   2.425  14.690  1.00  0.00    -0.193 F 
BRANCH  26  29
HETATM   29  C5  UNL     1      17.042   2.179  15.940  1.00  0.00     0.384 C 
HETATM   30  F3  UNL     1      16.028   2.569  16.808  1.00  0.00    -0.213 F 
BRANCH  29  31
HETATM   31  O1  UNL     1      17.552   0.985  16.404  1.00  0.00    -0.362 OA
ATOM     32  H1  UNL     1      18.319   1.122  16.947  1.00  0.00     0.213 HD
ENDBRANCH  29  31
ENDBRANCH  26  29
ENDBRANCH   5  26
TORSDOF 9
ENDMDL
MODEL 4
REMARK VINA RESULT: -7.339891132      1.156      1.692
REMARK  9 active torsions:
REMARK  status: ('A' for Active; 'I' for Inactive)
REMARK    1  A    between atoms: C3_5  and  C4_6 
REMARK    2  A    between atoms: C4_6  and  C5_9 
REMARK    3  A    between atoms: C5_9  and  O1_10 
REMARK    4  A    between atoms: N2_17  and  C8_18 
REMARK    5  A    between atoms: C8_18  and  C9_19 
REMARK    6  A    between atoms: C8_18  and  C12_25 
REMARK    7  A    between atoms: C9_19  and  C10_20 
REMARK    8  A    between atoms: C10_20  and  C11_21 
REMARK    9  A    between atoms: C13_28  and  C14_29 
ROOT
HETATM    1  C1  UNL     1      16.697   3.209  15.539  1.00  0.00     0.034 C 
HETATM    2  C2  UNL     1      17.142   3.726  14.220  1.00  0.00     0.109 C 
HETATM    3  N1  UNL     1      17.294   2.545  13.347  1.00  0.00    -0.379 N 
ATOM      4  H1  UNL     1      17.198   1.649  13.824  1.00  0.00     0.160 HD
HETATM    5  C3  UNL     1      17.552   2.450  11.953  1.00  0.00     0.128 C 
HETATM    6  C6  UNL     1      17.663   3.449  11.094  1.00  0.00     0.212 C 
HETATM    7  F4  UNL     1      17.910   3.088   9.828  1.00  0.00    -0.198 F 
HETATM    8  C7  UNL     1      17.541   4.900  11.407  1.00  0.00     0.286 C 
HETATM    9  O2  UNL     1      17.996   5.586  10.473  1.00  0.00    -0.265 OA
HETATM   10  N2  UNL     1      16.996   5.498  12.582  1.00  0.00    -0.316 N 
HETATM   11  C13 UNL     1      16.241   4.755  13.573  1.00  0.00     0.218 C 
ENDROOT
BRANCH  10  12
HETATM   12  C8  UNL     1      17.282   6.899  12.697  1.00  0.00     0.189 C 
BRANCH  12  13
HETATM   13  C9  UNL     1      18.766   7.072  12.839  1.00  0.00     0.045 C 
BRANCH  13  14
HETATM   14  C10 UNL     1      19.305   6.977  14.236  1.00  0.00     0.120 C 
BRANCH  14  15
HETATM   15  C11 UNL     1      19.127   8.318  14.970  1.00  0.00     0.388 C 
HETATM   16  F5  UNL     1      17.994   8.298  15.740  1.00  0.00    -0.171 F 
HETATM   17  F6  UNL     1      19.017   9.360  14.069  1.00  0.00    -0.171 F 
HETATM   18  F7  UNL     1      20.191   8.590  15.786  1.00  0.00    -0.171 F 
ENDBRANCH  14  15
ENDBRANCH  13  14
ENDBRANCH  12  13
BRANCH  12  19
HETATM   19  C12 UNL     1      16.627   7.727  11.670  1.00  0.00     0.197 C 
HETATM   20  O3  UNL     1      15.440   7.605  11.277  1.00  0.00    -0.646 OA
HETATM   21  O4  UNL     1      17.321   8.748  11.035  1.00  0.00    -0.646 OA
ENDBRANCH  12  19
ENDBRANCH  10  12
BRANCH  11  22
HETATM   22  C14 UNL     1      15.398   5.520  14.494  1.00  0.00     0.409 C 
HETATM   23  F8  UNL     1      14.458   6.256  13.803  1.00  0.00    -0.169 F 
HETATM   24  F9  UNL     1      16.024   6.260  15.467  1.00  0.00    -0.169 F 
HETATM   25  F10 UNL     1      14.602   4.593  15.198  1.00  0.00    -0.169 F 
ENDBRANCH  11  22
BRANCH   5  26
HETATM   26  C4  UNL     1      17.717   1.094  11.390  1.00  0.00     0.341 C 
HETATM   27  F1  UNL     1      18.093   0.175  12.331  1.00  0.00    -0.193 F 
HETATM   28  F2  UNL     1      18.757   1.168  10.455  1.00  0.00    -0.193 F 
BRANCH  26  29
HETATM   29  C5  UNL     1      16.489   0.632  10.641  1.00  0.00     0.384 C 
HETATM   30  F3  UNL     1      16.258  -0.688  11.014  1.00  0.00    -0.213 F 
BRANCH  29  31
HETATM   31  O1  UNL     1      15.376   1.365  10.995  1.00  0.00    -0.362 OA
ATOM     32  H1  UNL     1      14.879   0.934  11.681  1.00  0.00     0.213 HD
ENDBRANCH  29  31
ENDBRANCH  26  29
ENDBRANCH   5  26
TORSDOF 9
ENDMDL
MODEL 5
REMARK VINA RESULT: -7.228313381      1.267      1.694
REMARK  9 active torsions:
REMARK  status: ('A' for Active; 'I' for Inactive)
REMARK    1  A    between atoms: C3_5  and  C4_6 
REMARK    2  A    between atoms: C4_6  and  C5_9 
REMARK    3  A    between atoms: C5_9  and  O1_10 
REMARK    4  A    between atoms: N2_17  and  C8_18 
REMARK    5  A    between atoms: C8_18  and  C9_19 
REMARK    6  A    between atoms: C8_18  and  C12_25 
REMARK    7  A    between atoms: C9_19  and  C10_20 
REMARK    8  A    between atoms: C10_20  and  C11_21 
REMARK    9  A    between atoms: C13_28  and  C14_29 
ROOT
HETATM    1  C1  UNL     1      16.650   1.005  16.241  1.00  0.00     0.034 C 
HETATM    2  C2  UNL     1      16.705   1.815  14.998  1.00  0.00     0.109 C 
HETATM    3  N1  UNL     1      16.776   0.850  13.883  1.00  0.00    -0.379 N 
ATOM      4  H1  UNL     1      16.899  -0.121  14.168  1.00  0.00     0.160 HD
HETATM    5  C3  UNL     1      16.702   1.050  12.478  1.00  0.00     0.128 C 
HETATM    6  C6  UNL     1      16.490   2.193  11.847  1.00  0.00     0.212 C 
HETATM    7  F4  UNL     1      16.466   2.111  10.510  1.00  0.00    -0.198 F 
HETATM    8  C7  UNL     1      16.283   3.526  12.478  1.00  0.00     0.286 C 
HETATM    9  O2  UNL     1      16.420   4.432  11.637  1.00  0.00    -0.265 OA
HETATM   10  N2  UNL     1      15.970   3.807  13.842  1.00  0.00    -0.316 N 
HETATM   11  C13 UNL     1      15.564   2.787  14.790  1.00  0.00     0.218 C 
ENDROOT
BRANCH  10  12
HETATM   12  C8  UNL     1      16.114   5.192  14.189  1.00  0.00     0.189 C 
BRANCH  12  13
HETATM   13  C9  UNL     1      17.577   5.497  14.333  1.00  0.00     0.045 C 
BRANCH  13  14
HETATM   14  C10 UNL     1      17.910   6.811  14.973  1.00  0.00     0.120 C 
BRANCH  14  15
HETATM   15  C11 UNL     1      19.160   7.425  14.316  1.00  0.00     0.388 C 
HETATM   16  F5  UNL     1      19.865   8.169  15.226  1.00  0.00    -0.171 F 
HETATM   17  F6  UNL     1      18.807   8.252  13.267  1.00  0.00    -0.171 F 
HETATM   18  F7  UNL     1      19.992   6.461  13.818  1.00  0.00    -0.171 F 
ENDBRANCH  14  15
ENDBRANCH  13  14
ENDBRANCH  12  13
BRANCH  12  19
HETATM   19  C12 UNL     1      15.343   6.105  13.327  1.00  0.00     0.197 C 
HETATM   20  O3  UNL     1      14.090   6.189  13.286  1.00  0.00    -0.646 OA
HETATM   21  O4  UNL     1      15.989   6.974  12.459  1.00  0.00    -0.646 OA
ENDBRANCH  12  19
ENDBRANCH  10  12
BRANCH  11  22
HETATM   22  C14 UNL     1      14.884   3.230  16.010  1.00  0.00     0.409 C 
HETATM   23  F8  UNL     1      14.169   4.386  15.780  1.00  0.00    -0.169 F 
HETATM   24  F9  UNL     1      15.625   3.297  17.164  1.00  0.00    -0.169 F 
HETATM   25  F10 UNL     1      13.868   2.291  16.284  1.00  0.00    -0.169 F 
ENDBRANCH  11  22
BRANCH   5  26
HETATM   26  C4  UNL     1      16.880  -0.138  11.619  1.00  0.00     0.341 C 
HETATM   27  F1  UNL     1      15.917  -0.238  10.652  1.00  0.00    -0.193 F 
HETATM   28  F2  UNL     1      16.742  -1.260  12.447  1.00  0.00    -0.193 F 
BRANCH  26  29
HETATM   29  C5  UNL     1      18.263  -0.208  11.016  1.00  0.00     0.384 C 
HETATM   30  F3  UNL     1      18.799  -1.442  11.368  1.00  0.00    -0.213 F 
BRANCH  29  31
HETATM   31  O1  UNL     1      18.218  -0.152   9.639  1.00  0.00    -0.362 OA
ATOM     32  H1  UNL     1      18.947   0.346   9.287  1.00  0.00     0.213 HD
ENDBRANCH  29  31
ENDBRANCH  26  29
ENDBRANCH   5  26
TORSDOF 9
ENDMDL
