MODEL 1
REMARK VINA RESULT: -8.170605547      0.000      0.000
REMARK  8 active torsions:
REMARK  status: ('A' for Active; 'I' for Inactive)
REMARK    1  A    between atoms: C2_2  and  C3_4 
REMARK    2  A    between atoms: C2_2  and  C9_15 
REMARK       I    between atoms: C3_4  and  N1_6 
REMARK    3  A    between atoms: N1_6  and  C4_8 
REMARK    4  A    between atoms: C4_8  and  C5_9 
REMARK    5  A    between atoms: C5_9  and  C6_10 
REMARK    6  A    between atoms: C6_10  and  C7_11 
REMARK    7  A    between atoms: C7_11  and  C8_12 
REMARK    8  A    between atoms: C12_22  and  C13_23 
ROOT
HETATM    1  C9  UNL     1      16.681   4.501  12.369  1.00  0.00     0.192 C 
HETATM    2  C10 UNL     1      17.672   5.075  11.350  1.00  0.00     0.321 C 
HETATM    3  F2  UNL     1      17.842   6.436  11.464  1.00  0.00    -0.199 F 
HETATM    4  F3  UNL     1      17.083   4.947  10.074  1.00  0.00    -0.199 F 
HETATM    5  C11 UNL     1      18.949   4.327  11.227  1.00  0.00     0.326 C 
HETATM    6  F4  UNL     1      19.735   4.237  12.317  1.00  0.00    -0.199 F 
HETATM    7  F5  UNL     1      19.699   5.033  10.269  1.00  0.00    -0.199 F 
HETATM    8  C12 UNL     1      18.577   2.994  10.631  1.00  0.00     0.250 C 
HETATM    9  C14 UNL     1      17.647   2.264  11.522  1.00  0.00     0.326 C 
HETATM   10  F9  UNL     1      16.854   1.492  10.634  1.00  0.00    -0.199 F 
HETATM   11  F10 UNL     1      18.323   1.202  12.177  1.00  0.00    -0.199 F 
HETATM   12  C15 UNL     1      16.796   3.044  12.452  1.00  0.00     0.321 C 
HETATM   13  F11 UNL     1      17.186   2.595  13.732  1.00  0.00    -0.199 F 
HETATM   14  F12 UNL     1      15.521   2.430  12.328  1.00  0.00    -0.199 F 
ENDROOT
BRANCH   1  15
HETATM   15  C2  UNL     1      16.533   5.347  13.560  1.00  0.00     0.195 C 
HETATM   16  C1  UNL     1      17.676   5.507  14.517  1.00  0.00     0.063 C 
HETATM   17  F1  UNL     1      16.321   6.710  13.126  1.00  0.00    -0.232 F 
BRANCH  15  18
HETATM   18  C3  UNL     1      15.354   5.149  14.426  1.00  0.00     0.258 C 
HETATM   19  O1  UNL     1      14.256   5.698  14.202  1.00  0.00    -0.270 OA
HETATM   20  N1  UNL     1      15.406   4.305  15.583  1.00  0.00    -0.358 N 
ATOM     21  H1  UNL     1      16.286   3.837  15.799  1.00  0.00     0.162 HD
BRANCH  20  22
HETATM   22  C4  UNL     1      14.296   4.084  16.448  1.00  0.00     0.122 C 
BRANCH  22  23
HETATM   23  C5  UNL     1      14.016   2.654  16.790  1.00  0.00     0.020 C 
BRANCH  23  24
HETATM   24  C6  UNL     1      15.157   1.981  17.532  1.00  0.00     0.010 C 
BRANCH  24  25
HETATM   25  C7  UNL     1      15.340   0.551  17.086  1.00  0.00     0.099 C 
BRANCH  25  26
HETATM   26  C8  UNL     1      16.482   0.459  16.156  1.00  0.00     0.231 C 
HETATM   27  N2  UNL     1      16.376  -0.289  14.967  1.00  0.00    -0.062 NA
HETATM   28  O2  UNL     1      17.550   1.047  16.423  1.00  0.00    -0.277 OA
ENDBRANCH  25  26
ENDBRANCH  24  25
ENDBRANCH  23  24
ENDBRANCH  22  23
ENDBRANCH  20  22
ENDBRANCH  15  18
ENDBRANCH   1  15
BRANCH   8  29
HETATM   29  C13 UNL     1      19.775   2.159  10.278  1.00  0.00     0.403 C 
HETATM   30  F6  UNL     1      20.440   2.720   9.184  1.00  0.00    -0.170 F 
HETATM   31  F7  UNL     1      20.685   2.029  11.273  1.00  0.00    -0.170 F 
HETATM   32  F8  UNL     1      19.353   0.912   9.860  1.00  0.00    -0.170 F 
ENDBRANCH   8  29
TORSDOF 8
ENDMDL
MODEL 2
REMARK VINA RESULT: -8.169433031      1.435      1.894
REMARK  8 active torsions:
REMARK  status: ('A' for Active; 'I' for Inactive)
REMARK    1  A    between atoms: C2_2  and  C3_4 
REMARK    2  A    between atoms: C2_2  and  C9_15 
REMARK       I    between atoms: C3_4  and  N1_6 
REMARK    3  A    between atoms: N1_6  and  C4_8 
REMARK    4  A    between atoms: C4_8  and  C5_9 
REMARK    5  A    between atoms: C5_9  and  C6_10 
REMARK    6  A    between atoms: C6_10  and  C7_11 
REMARK    7  A    between atoms: C7_11  and  C8_12 
REMARK    8  A    between atoms: C12_22  and  C13_23 
ROOT
HETATM    1  C9  UNL     1      17.918   5.387  12.534  1.00  0.00     0.192 C 
HETATM    2  C10 UNL     1      19.386   5.778  12.329  1.00  0.00     0.321 C 
HETATM    3  F2  UNL     1      19.916   6.470  13.394  1.00  0.00    -0.199 F 
HETATM    4  F3  UNL     1      19.424   6.735  11.293  1.00  0.00    -0.199 F 
HETATM    5  C11 UNL     1      20.263   4.685  11.836  1.00  0.00     0.326 C 
HETATM    6  F4  UNL     1      20.401   3.590  12.608  1.00  0.00    -0.199 F 
HETATM    7  F5  UNL     1      21.545   5.256  11.746  1.00  0.00    -0.199 F 
HETATM    8  C12 UNL     1      19.788   4.391  10.437  1.00  0.00     0.250 C 
HETATM    9  C14 UNL     1      18.378   3.942  10.447  1.00  0.00     0.326 C 
HETATM   10  F9  UNL     1      17.865   4.390   9.203  1.00  0.00    -0.199 F 
HETATM   11  F10 UNL     1      18.304   2.544  10.213  1.00  0.00    -0.199 F 
HETATM   12  C15 UNL     1      17.504   4.369  11.566  1.00  0.00     0.321 C 
HETATM   13  F11 UNL     1      17.110   3.158  12.175  1.00  0.00    -0.199 F 
HETATM   14  F12 UNL     1      16.298   4.750  10.918  1.00  0.00    -0.199 F 
ENDROOT
BRANCH   1  15
HETATM   15  C2  UNL     1      17.534   5.327  13.949  1.00  0.00     0.195 C 
HETATM   16  C1  UNL     1      18.344   4.513  14.915  1.00  0.00     0.063 C 
HETATM   17  F1  UNL     1      17.657   6.654  14.511  1.00  0.00    -0.232 F 
BRANCH  15  18
HETATM   18  C3  UNL     1      16.133   5.013  14.291  1.00  0.00     0.258 C 
HETATM   19  O1  UNL     1      15.167   5.628  13.794  1.00  0.00    -0.270 OA
HETATM   20  N1  UNL     1      15.800   3.974  15.218  1.00  0.00    -0.358 N 
ATOM     21  H1  UNL     1      16.563   3.447  15.645  1.00  0.00     0.162 HD
BRANCH  20  22
HETATM   22  C4  UNL     1      14.465   3.635  15.579  1.00  0.00     0.122 C 
BRANCH  22  23
HETATM   23  C5  UNL     1      14.299   2.988  16.919  1.00  0.00     0.020 C 
BRANCH  23  24
HETATM   24  C6  UNL     1      14.072   1.489  16.837  1.00  0.00     0.010 C 
BRANCH  24  25
HETATM   25  C7  UNL     1      15.262   0.720  17.352  1.00  0.00     0.099 C 
BRANCH  25  26
HETATM   26  C8  UNL     1      16.268   0.577  16.281  1.00  0.00     0.231 C 
HETATM   27  N2  UNL     1      17.424   1.382  16.275  1.00  0.00    -0.062 NA
HETATM   28  O2  UNL     1      16.096  -0.262  15.373  1.00  0.00    -0.277 OA
ENDBRANCH  25  26
ENDBRANCH  24  25
ENDBRANCH  23  24
ENDBRANCH  22  23
ENDBRANCH  20  22
ENDBRANCH  15  18
ENDBRANCH   1  15
BRANCH   8  29
HETATM   29  C13 UNL     1      20.674   3.417   9.714  1.00  0.00     0.403 C 
HETATM   30  F6  UNL     1      21.975   3.923   9.638  1.00  0.00    -0.170 F 
HETATM   31  F7  UNL     1      20.757   2.194  10.291  1.00  0.00    -0.170 F 
HETATM   32  F8  UNL     1      20.243   3.293   8.408  1.00  0.00    -0.170 F 
ENDBRANCH   8  29
TORSDOF 8
ENDMDL
MODEL 3
REMARK VINA RESULT: -8.158173874      2.369      4.996
REMARK  8 active torsions:
REMARK  status: ('A' for Active; 'I' for Inactive)
REMARK    1  A    between atoms: C2_2  and  C3_4 
REMARK    2  A    between atoms: C2_2  and  C9_15 
REMARK       I    between atoms: C3_4  and  N1_6 
REMARK    3  A    between atoms: N1_6  and  C4_8 
REMARK    4  A    between atoms: C4_8  and  C5_9 
REMARK    5  A    between atoms: C5_9  and  C6_10 
REMARK    6  A    between atoms: C6_10  and  C7_11 
REMARK    7  A    between atoms: C7_11  and  C8_12 
REMARK    8  A    between atoms: C12_22  and  C13_23 
ROOT
HETATM    1  C9  UNL     1      19.120   5.450  12.077  1.00  0.00     0.192 C 
HETATM    2  C10 UNL     1      17.787   5.862  11.443  1.00  0.00     0.321 C 
HETATM    3  F2  UNL     1      17.763   5.699  10.077  1.00  0.00    -0.199 F 
HETATM    4  F3  UNL     1      17.670   7.261  11.585  1.00  0.00    -0.199 F 
HETATM    5  C11 UNL     1      16.578   5.334  12.125  1.00  0.00     0.326 C 
HETATM    6  F4  UNL     1      16.423   3.997  12.188  1.00  0.00    -0.199 F 
HETATM    7  F5  UNL     1      15.492   5.811  11.371  1.00  0.00    -0.199 F 
HETATM    8  C12 UNL     1      16.545   6.016  13.468  1.00  0.00     0.250 C 
HETATM    9  C14 UNL     1      17.755   5.684  14.254  1.00  0.00     0.326 C 
HETATM   10  F9  UNL     1      17.972   6.835  15.054  1.00  0.00    -0.199 F 
HETATM   11  F10 UNL     1      17.434   4.767  15.289  1.00  0.00    -0.199 F 
HETATM   12  C15 UNL     1      18.989   5.300  13.528  1.00  0.00     0.321 C 
HETATM   13  F11 UNL     1      19.254   3.987  13.972  1.00  0.00    -0.199 F 
HETATM   14  F12 UNL     1      20.008   6.024  14.204  1.00  0.00    -0.199 F 
ENDROOT
BRANCH   1  15
HETATM   15  C2  UNL     1      19.874   4.496  11.254  1.00  0.00     0.195 C 
HETATM   16  C1  UNL     1      20.596   4.967  10.027  1.00  0.00     0.063 C 
HETATM   17  F1  UNL     1      20.961   3.969  12.050  1.00  0.00    -0.232 F 
BRANCH  15  18
HETATM   18  C3  UNL     1      19.211   3.247  10.833  1.00  0.00     0.258 C 
HETATM   19  O1  UNL     1      18.840   3.046   9.659  1.00  0.00    -0.270 OA
HETATM   20  N1  UNL     1      18.956   2.183  11.758  1.00  0.00    -0.358 N 
ATOM     21  H1  UNL     1      19.246   2.308  12.728  1.00  0.00     0.162 HD
BRANCH  20  22
HETATM   22  C4  UNL     1      18.320   0.960  11.400  1.00  0.00     0.122 C 
BRANCH  22  23
HETATM   23  C5  UNL     1      16.922   0.783  11.906  1.00  0.00     0.020 C 
BRANCH  23  24
HETATM   24  C6  UNL     1      16.863   0.254  13.328  1.00  0.00     0.010 C 
BRANCH  24  25
HETATM   25  C7  UNL     1      16.477   1.336  14.305  1.00  0.00     0.099 C 
BRANCH  25  26
HETATM   26  C8  UNL     1      16.553   0.816  15.684  1.00  0.00     0.231 C 
HETATM   27  N2  UNL     1      15.434   0.200  16.278  1.00  0.00    -0.062 NA
HETATM   28  O2  UNL     1      17.616   0.920  16.330  1.00  0.00    -0.277 OA
ENDBRANCH  25  26
ENDBRANCH  24  25
ENDBRANCH  23  24
ENDBRANCH  22  23
ENDBRANCH  20  22
ENDBRANCH  15  18
ENDBRANCH   1  15
BRANCH   8  29
HETATM   29  C13 UNL     1      15.288   5.726  14.238  1.00  0.00     0.403 C 
HETATM   30  F6  UNL     1      15.044   4.350  14.247  1.00  0.00    -0.170 F 
HETATM   31  F7  UNL     1      15.310   6.135  15.529  1.00  0.00    -0.170 F 
HETATM   32  F8  UNL     1      14.213   6.293  13.582  1.00  0.00    -0.170 F 
ENDBRANCH   8  29
TORSDOF 8
ENDMDL
MODEL 4
REMARK VINA RESULT: -8.014370783      3.086      6.054
REMARK  8 active torsions:
REMARK  status: ('A' for Active; 'I' for Inactive)
REMARK    1  A    between atoms: C2_2  and  C3_4 
REMARK    2  A    between atoms: C2_2  and  C9_15 
REMARK       I    between atoms: C3_4  and  N1_6 
REMARK    3  A    between atoms: N1_6  and  C4_8 
REMARK    4  A    between atoms: C4_8  and  C5_9 
REMARK    5  A    between atoms: C5_9  and  C6_10 
REMARK    6  A    between atoms: C6_10  and  C7_11 
REMARK    7  A    between atoms: C7_11  and  C8_12 
REMARK    8  A    between atoms: C12_22  and  C13_23 
ROOT
HETATM    1  C9  UNL     1      16.253   3.898  14.189  1.00  0.00     0.192 C 
HETATM    2  C10 UNL     1      16.577   2.402  14.259  1.00  0.00     0.321 C 
HETATM    3  F2  UNL     1      17.701   2.056  13.543  1.00  0.00    -0.199 F 
HETATM    4  F3  UNL     1      15.554   1.718  13.569  1.00  0.00    -0.199 F 
HETATM    5  C11 UNL     1      16.539   1.814  15.623  1.00  0.00     0.326 C 
HETATM    6  F4  UNL     1      17.395   2.299  16.543  1.00  0.00    -0.199 F 
HETATM    7  F5  UNL     1      16.885   0.462  15.450  1.00  0.00    -0.199 F 
HETATM    8  C12 UNL     1      15.093   1.872  16.043  1.00  0.00     0.250 C 
HETATM    9  C14 UNL     1      14.615   3.272  16.082  1.00  0.00     0.326 C 
HETATM   10  F9  UNL     1      13.237   3.174  15.763  1.00  0.00    -0.199 F 
HETATM   11  F10 UNL     1      14.488   3.712  17.425  1.00  0.00    -0.199 F 
HETATM   12  C15 UNL     1      15.289   4.276  15.225  1.00  0.00     0.321 C 
HETATM   13  F11 UNL     1      15.807   5.217  16.141  1.00  0.00    -0.199 F 
HETATM   14  F12 UNL     1      14.210   5.011  14.665  1.00  0.00    -0.199 F 
ENDROOT
BRANCH   1  15
HETATM   15  C2  UNL     1      17.424   4.722  13.867  1.00  0.00     0.195 C 
HETATM   16  C1  UNL     1      17.336   6.218  13.940  1.00  0.00     0.063 C 
HETATM   17  F1  UNL     1      18.458   4.442  14.838  1.00  0.00    -0.232 F 
BRANCH  15  18
HETATM   18  C3  UNL     1      18.151   4.459  12.609  1.00  0.00     0.258 C 
HETATM   19  O1  UNL     1      17.636   4.637  11.486  1.00  0.00    -0.270 OA
HETATM   20  N1  UNL     1      19.501   3.981  12.608  1.00  0.00    -0.358 N 
ATOM     21  H1  UNL     1      19.957   3.823  13.506  1.00  0.00     0.162 HD
BRANCH  20  22
HETATM   22  C4  UNL     1      20.242   3.712  11.421  1.00  0.00     0.122 C 
BRANCH  22  23
HETATM   23  C5  UNL     1      20.435   2.265  11.091  1.00  0.00     0.020 C 
BRANCH  23  24
HETATM   24  C6  UNL     1      19.192   1.613  10.510  1.00  0.00     0.010 C 
BRANCH  24  25
HETATM   25  C7  UNL     1      18.939   0.259  11.124  1.00  0.00     0.099 C 
BRANCH  25  26
HETATM   26  C8  UNL     1      17.507  -0.082  11.012  1.00  0.00     0.231 C 
HETATM   27  N2  UNL     1      16.842  -0.730  12.070  1.00  0.00    -0.062 NA
HETATM   28  O2  UNL     1      16.879   0.206   9.972  1.00  0.00    -0.277 OA
ENDBRANCH  25  26
ENDBRANCH  24  25
ENDBRANCH  23  24
ENDBRANCH  22  23
ENDBRANCH  20  22
ENDBRANCH  15  18
ENDBRANCH   1  15
BRANCH   8  29
HETATM   29  C13 UNL     1      14.837   1.163  17.343  1.00  0.00     0.403 C 
HETATM   30  F6  UNL     1      15.277  -0.161  17.257  1.00  0.00    -0.170 F 
HETATM   31  F7  UNL     1      15.447   1.716  18.417  1.00  0.00    -0.170 F 
HETATM   32  F8  UNL     1      13.475   1.091  17.559  1.00  0.00    -0.170 F 
ENDBRANCH   8  29
TORSDOF 8
ENDMDL
MODEL 5
REMARK VINA RESULT: -7.966783737      1.236      2.594
REMARK  8 active torsions:
REMARK  status: ('A' for Active; 'I' for Inactive)
REMARK    1  A    between atoms: C2_2  and  C3_4 
REMARK    2  A    between atoms: C2_2  and  C9_15 
REMARK       I    between atoms: C3_4  and  N1_6 
REMARK    3  A    between atoms: N1_6  and  C4_8 
REMARK    4  A    between atoms: C4_8  and  C5_9 
REMARK    5  A    between atoms: C5_9  and  C6_10 
REMARK    6  A    between atoms: C6_10  and  C7_11 
REMARK    7  A    between atoms: C7_11  and  C8_12 
REMARK    8  A    between atoms: C12_22  and  C13_23 
ROOT
HETATM    1  C9  UNL     1      17.813   4.361  13.561  1.00  0.00     0.192 C 
HETATM    2  C10 UNL     1      17.232   3.309  12.610  1.00  0.00     0.321 C 
HETATM    3  F2  UNL     1      15.859   3.223  12.670  1.00  0.00    -0.199 F 
HETATM    4  F3  UNL     1      17.638   2.045  13.084  1.00  0.00    -0.199 F 
HETATM    5  C11 UNL     1      17.762   3.356  11.223  1.00  0.00     0.326 C 
HETATM    6  F4  UNL     1      17.561   4.479  10.507  1.00  0.00    -0.199 F 
HETATM    7  F5  UNL     1      17.083   2.335  10.535  1.00  0.00    -0.199 F 
HETATM    8  C12 UNL     1      19.210   2.954  11.335  1.00  0.00     0.250 C 
HETATM    9  C14 UNL     1      19.952   3.906  12.193  1.00  0.00     0.326 C 
HETATM   10  F9  UNL     1      20.966   3.113  12.789  1.00  0.00    -0.199 F 
HETATM   11  F10 UNL     1      20.780   4.742  11.400  1.00  0.00    -0.199 F 
HETATM   12  C15 UNL     1      19.203   4.670  13.218  1.00  0.00     0.321 C 
HETATM   13  F11 UNL     1      19.392   6.019  12.848  1.00  0.00    -0.199 F 
HETATM   14  F12 UNL     1      20.035   4.586  14.367  1.00  0.00    -0.199 F 
ENDROOT
BRANCH   1  15
HETATM   15  C2  UNL     1      16.843   5.402  13.923  1.00  0.00     0.195 C 
HETATM   16  C1  UNL     1      17.273   6.576  14.752  1.00  0.00     0.063 C 
HETATM   17  F1  UNL     1      16.397   6.049  12.709  1.00  0.00    -0.232 F 
BRANCH  15  18
HETATM   18  C3  UNL     1      15.551   4.994  14.508  1.00  0.00     0.258 C 
HETATM   19  O1  UNL     1      14.457   5.414  14.079  1.00  0.00    -0.270 OA
HETATM   20  N1  UNL     1      15.480   4.081  15.609  1.00  0.00    -0.358 N 
ATOM     21  H1  UNL     1      16.353   3.714  15.987  1.00  0.00     0.162 HD
BRANCH  20  22
HETATM   22  C4  UNL     1      14.258   3.658  16.207  1.00  0.00     0.122 C 
BRANCH  22  23
HETATM   23  C5  UNL     1      14.394   2.741  17.382  1.00  0.00     0.020 C 
BRANCH  23  24
HETATM   24  C6  UNL     1      14.137   1.285  17.039  1.00  0.00     0.010 C 
BRANCH  24  25
HETATM   25  C7  UNL     1      15.339   0.424  17.340  1.00  0.00     0.099 C 
BRANCH  25  26
HETATM   26  C8  UNL     1      16.298   0.494  16.220  1.00  0.00     0.231 C 
HETATM   27  N2  UNL     1      17.367   1.410  16.251  1.00  0.00    -0.062 NA
HETATM   28  O2  UNL     1      16.164  -0.265  15.238  1.00  0.00    -0.277 OA
ENDBRANCH  25  26
ENDBRANCH  24  25
ENDBRANCH  23  24
ENDBRANCH  22  23
ENDBRANCH  20  22
ENDBRANCH  15  18
ENDBRANCH   1  15
BRANCH   8  29
HETATM   29  C13 UNL     1      19.872   2.783   9.997  1.00  0.00     0.403 C 
HETATM   30  F6  UNL     1      19.558   1.528   9.469  1.00  0.00    -0.170 F 
HETATM   31  F7  UNL     1      19.517   3.705   9.071  1.00  0.00    -0.170 F 
HETATM   32  F8  UNL     1      21.243   2.787  10.165  1.00  0.00    -0.170 F 
ENDBRANCH   8  29
TORSDOF 8
ENDMDL
