MODEL 1
REMARK VINA RESULT: -6.546041480      0.000      0.000
REMARK  6 active torsions:
REMARK  status: ('A' for Active; 'I' for Inactive)
REMARK    1  A    between atoms: C1_2  and  C2_4 
REMARK    2  A    between atoms: C2_4  and  C3_5 
REMARK    3  A    between atoms: C3_5  and  C4_6 
REMARK       I    between atoms: C4_6  and  N1_8 
REMARK    4  A    between atoms: N1_8  and  C5_10 
REMARK    5  A    between atoms: C5_10  and  C6_11 
REMARK    6  A    between atoms: C5_10  and  C11_17 
ROOT
HETATM    1  C4  UNL     1      15.308   3.221  15.360  1.00  0.00     0.227 C 
HETATM    2  O3  UNL     1      14.469   3.529  14.489  1.00  0.00    -0.273 OA
HETATM    3  N1  UNL     1      16.661   3.780  15.159  1.00  0.00    -0.351 N 
ATOM      4  H1  UNL     1      17.421   3.561  15.804  1.00  0.00     0.163 HD
ENDROOT
BRANCH   3   5
HETATM    5  C5  UNL     1      16.876   4.638  14.034  1.00  0.00     0.127 C 
BRANCH   5   6
HETATM    6  C6  UNL     1      17.263   3.951  12.747  1.00  0.00     0.083 C 
HETATM    7  N2  UNL     1      18.411   4.197  12.122  1.00  0.00    -0.391 N 
HETATM    8  C7  UNL     1      19.720   3.911  12.456  1.00  0.00     0.122 C 
HETATM    9  C10 UNL     1      18.347   4.139  10.644  1.00  0.00     0.122 C 
HETATM   10  C8  UNL     1      20.607   4.273  11.251  1.00  0.00     0.021 C 
HETATM   11  C9  UNL     1      19.635   4.891  10.289  1.00  0.00     0.021 C 
ENDBRANCH   5   6
BRANCH   5  12
HETATM   12  C11 UNL     1      17.819   5.772  14.382  1.00  0.00     0.013 A 
HETATM   13  C12 UNL     1      17.797   7.088  13.749  1.00  0.00     0.007 A 
HETATM   14  C13 UNL     1      17.282   6.898  15.204  1.00  0.00     0.007 A 
ENDBRANCH   5  12
ENDBRANCH   3   5
BRANCH   1  15
HETATM   15  C3  UNL     1      14.988   2.357  16.502  1.00  0.00     0.050 A 
HETATM   16  C14 UNL     1      14.957   2.902  17.896  1.00  0.00     0.021 A 
HETATM   17  C15 UNL     1      13.674   2.638  17.230  1.00  0.00     0.021 A 
BRANCH  15  18
HETATM   18  C2  UNL     1      15.054   0.824  16.253  1.00  0.00     0.132 C 
BRANCH  18  19
HETATM   19  C1  UNL     1      16.382   0.485  15.665  1.00  0.00     0.173 C 
HETATM   20  O1  UNL     1      16.427  -0.217  14.628  1.00  0.00    -0.648 OA
HETATM   21  O2  UNL     1      17.533   0.938  16.247  1.00  0.00    -0.648 OA
ENDBRANCH  18  19
ENDBRANCH  15  18
ENDBRANCH   1  15
TORSDOF 6
ENDMDL
MODEL 2
REMARK VINA RESULT: -6.540492031      2.210      3.759
REMARK  6 active torsions:
REMARK  status: ('A' for Active; 'I' for Inactive)
REMARK    1  A    between atoms: C1_2  and  C2_4 
REMARK    2  A    between atoms: C2_4  and  C3_5 
REMARK    3  A    between atoms: C3_5  and  C4_6 
REMARK       I    between atoms: C4_6  and  N1_8 
REMARK    4  A    between atoms: N1_8  and  C5_10 
REMARK    5  A    between atoms: C5_10  and  C6_11 
REMARK    6  A    between atoms: C5_10  and  C11_17 
ROOT
HETATM    1  C4  UNL     1      17.275   3.960  14.806  1.00  0.00     0.227 C 
HETATM    2  O3  UNL     1      18.399   3.769  15.314  1.00  0.00    -0.273 OA
HETATM    3  N1  UNL     1      17.203   5.068  13.830  1.00  0.00    -0.351 N 
ATOM      4  H1  UNL     1      16.320   5.317  13.384  1.00  0.00     0.163 HD
ENDROOT
BRANCH   3   5
HETATM    5  C5  UNL     1      18.407   5.781  13.529  1.00  0.00     0.127 C 
BRANCH   5   6
HETATM    6  C6  UNL     1      18.321   7.285  13.624  1.00  0.00     0.083 C 
HETATM    7  N2  UNL     1      19.360   8.041  13.966  1.00  0.00    -0.391 N 
HETATM    8  C7  UNL     1      20.542   8.332  13.313  1.00  0.00     0.122 C 
HETATM    9  C10 UNL     1      19.027   9.247  14.758  1.00  0.00     0.122 C 
HETATM   10  C8  UNL     1      21.277   9.417  14.121  1.00  0.00     0.021 C 
HETATM   11  C9  UNL     1      20.408   9.581  15.334  1.00  0.00     0.021 C 
ENDBRANCH   5   6
BRANCH   5  12
HETATM   12  C11 UNL     1      18.998   5.325  12.211  1.00  0.00     0.013 A 
HETATM   13  C12 UNL     1      19.718   4.068  12.021  1.00  0.00     0.007 A 
HETATM   14  C13 UNL     1      18.279   4.253  11.459  1.00  0.00     0.007 A 
ENDBRANCH   5  12
ENDBRANCH   3   5
BRANCH   1  15
HETATM   15  C3  UNL     1      16.099   3.154  15.152  1.00  0.00     0.050 A 
HETATM   16  C14 UNL     1      15.139   3.604  16.209  1.00  0.00     0.021 A 
HETATM   17  C15 UNL     1      14.734   3.745  14.804  1.00  0.00     0.021 A 
BRANCH  15  18
HETATM   18  C2  UNL     1      16.098   1.680  14.658  1.00  0.00     0.132 C 
BRANCH  18  19
HETATM   19  C1  UNL     1      16.344   0.779  15.821  1.00  0.00     0.173 C 
HETATM   20  O1  UNL     1      17.502   0.702  16.296  1.00  0.00    -0.648 OA
HETATM   21  O2  UNL     1      15.322   0.053  16.364  1.00  0.00    -0.648 OA
ENDBRANCH  18  19
ENDBRANCH  15  18
ENDBRANCH   1  15
TORSDOF 6
ENDMDL
MODEL 3
REMARK VINA RESULT: -6.497585168      1.758      3.227
REMARK  6 active torsions:
REMARK  status: ('A' for Active; 'I' for Inactive)
REMARK    1  A    between atoms: C1_2  and  C2_4 
REMARK    2  A    between atoms: C2_4  and  C3_5 
REMARK    3  A    between atoms: C3_5  and  C4_6 
REMARK       I    between atoms: C4_6  and  N1_8 
REMARK    4  A    between atoms: N1_8  and  C5_10 
REMARK    5  A    between atoms: C5_10  and  C6_11 
REMARK    6  A    between atoms: C5_10  and  C11_17 
ROOT
HETATM    1  C4  UNL     1      16.103   2.953  15.550  1.00  0.00     0.227 C 
HETATM    2  O3  UNL     1      17.248   3.306  15.897  1.00  0.00    -0.273 OA
HETATM    3  N1  UNL     1      15.904   2.799  14.093  1.00  0.00    -0.351 N 
ATOM      4  H1  UNL     1      14.994   2.541  13.713  1.00  0.00     0.163 HD
ENDROOT
BRANCH   3   5
HETATM    5  C5  UNL     1      17.026   3.023  13.232  1.00  0.00     0.127 C 
BRANCH   5   6
HETATM    6  C6  UNL     1      17.150   4.415  12.663  1.00  0.00     0.083 C 
HETATM    7  N2  UNL     1      17.869   5.367  13.250  1.00  0.00    -0.391 N 
HETATM    8  C7  UNL     1      19.231   5.515  13.426  1.00  0.00     0.122 C 
HETATM    9  C10 UNL     1      17.326   6.738  13.117  1.00  0.00     0.122 C 
HETATM   10  C8  UNL     1      19.484   6.915  14.015  1.00  0.00     0.021 C 
HETATM   11  C9  UNL     1      18.097   7.443  14.238  1.00  0.00     0.021 C 
ENDBRANCH   5   6
BRANCH   5  12
HETATM   12  C11 UNL     1      17.112   1.957  12.158  1.00  0.00     0.013 A 
HETATM   13  C12 UNL     1      16.557   0.613  12.284  1.00  0.00     0.007 A 
HETATM   14  C13 UNL     1      15.882   1.668  11.363  1.00  0.00     0.007 A 
ENDBRANCH   5  12
ENDBRANCH   3   5
BRANCH   1  15
HETATM   15  C3  UNL     1      15.019   2.713  16.509  1.00  0.00     0.050 A 
HETATM   16  C14 UNL     1      14.889   3.542  17.749  1.00  0.00     0.021 A 
HETATM   17  C15 UNL     1      13.962   3.808  16.641  1.00  0.00     0.021 A 
BRANCH  15  18
HETATM   18  C2  UNL     1      14.263   1.361  16.378  1.00  0.00     0.132 C 
BRANCH  18  19
HETATM   19  C1  UNL     1      15.219   0.245  16.631  1.00  0.00     0.173 C 
HETATM   20  O1  UNL     1      15.278  -0.256  17.779  1.00  0.00    -0.648 OA
HETATM   21  O2  UNL     1      16.015  -0.227  15.626  1.00  0.00    -0.648 OA
ENDBRANCH  18  19
ENDBRANCH  15  18
ENDBRANCH   1  15
TORSDOF 6
ENDMDL
MODEL 4
REMARK VINA RESULT: -6.477352955      2.078      3.998
REMARK  6 active torsions:
REMARK  status: ('A' for Active; 'I' for Inactive)
REMARK    1  A    between atoms: C1_2  and  C2_4 
REMARK    2  A    between atoms: C2_4  and  C3_5 
REMARK    3  A    between atoms: C3_5  and  C4_6 
REMARK       I    between atoms: C4_6  and  N1_8 
REMARK    4  A    between atoms: N1_8  and  C5_10 
REMARK    5  A    between atoms: C5_10  and  C6_11 
REMARK    6  A    between atoms: C5_10  and  C11_17 
ROOT
HETATM    1  C4  UNL     1      16.239   2.724  15.052  1.00  0.00     0.227 C 
HETATM    2  O3  UNL     1      17.430   2.903  15.375  1.00  0.00    -0.273 OA
HETATM    3  N1  UNL     1      16.000   2.503  13.610  1.00  0.00    -0.351 N 
ATOM      4  H1  UNL     1      15.056   2.375  13.248  1.00  0.00     0.163 HD
ENDROOT
BRANCH   3   5
HETATM    5  C5  UNL     1      17.135   2.473  12.737  1.00  0.00     0.127 C 
BRANCH   5   6
HETATM    6  C6  UNL     1      17.183   3.553  11.684  1.00  0.00     0.083 C 
HETATM    7  N2  UNL     1      17.098   4.846  11.982  1.00  0.00    -0.391 N 
HETATM    8  C7  UNL     1      17.966   5.699  12.636  1.00  0.00     0.122 C 
HETATM    9  C10 UNL     1      16.391   5.676  10.981  1.00  0.00     0.122 C 
HETATM   10  C8  UNL     1      17.408   7.128  12.515  1.00  0.00     0.021 C 
HETATM   11  C9  UNL     1      16.091   6.920  11.826  1.00  0.00     0.021 C 
ENDBRANCH   5   6
BRANCH   5  12
HETATM   12  C11 UNL     1      17.334   1.091  12.147  1.00  0.00     0.013 A 
HETATM   13  C12 UNL     1      16.779  -0.135  12.712  1.00  0.00     0.007 A 
HETATM   14  C13 UNL     1      16.189   0.477  11.409  1.00  0.00     0.007 A 
ENDBRANCH   5  12
ENDBRANCH   3   5
BRANCH   1  15
HETATM   15  C3  UNL     1      15.140   2.739  16.025  1.00  0.00     0.050 A 
HETATM   16  C14 UNL     1      14.438   1.477  16.416  1.00  0.00     0.021 A 
HETATM   17  C15 UNL     1      15.399   2.053  17.366  1.00  0.00     0.021 A 
BRANCH  15  18
HETATM   18  C2  UNL     1      14.508   4.126  16.336  1.00  0.00     0.132 C 
BRANCH  18  19
HETATM   19  C1  UNL     1      14.898   5.087  15.265  1.00  0.00     0.173 C 
HETATM   20  O1  UNL     1      14.330   5.017  14.150  1.00  0.00    -0.648 OA
HETATM   21  O2  UNL     1      15.857   6.032  15.497  1.00  0.00    -0.648 OA
ENDBRANCH  18  19
ENDBRANCH  15  18
ENDBRANCH   1  15
TORSDOF 6
ENDMDL
MODEL 5
REMARK VINA RESULT: -6.450262425      1.635      2.303
REMARK  6 active torsions:
REMARK  status: ('A' for Active; 'I' for Inactive)
REMARK    1  A    between atoms: C1_2  and  C2_4 
REMARK    2  A    between atoms: C2_4  and  C3_5 
REMARK    3  A    between atoms: C3_5  and  C4_6 
REMARK       I    between atoms: C4_6  and  N1_8 
REMARK    4  A    between atoms: N1_8  and  C5_10 
REMARK    5  A    between atoms: C5_10  and  C6_11 
REMARK    6  A    between atoms: C5_10  and  C11_17 
ROOT
HETATM    1  C4  UNL     1      15.310   3.061  15.446  1.00  0.00     0.227 C 
HETATM    2  O3  UNL     1      14.598   3.095  14.422  1.00  0.00    -0.273 OA
HETATM    3  N1  UNL     1      16.667   3.626  15.292  1.00  0.00    -0.351 N 
ATOM      4  H1  UNL     1      17.330   3.617  16.067  1.00  0.00     0.163 HD
ENDROOT
BRANCH   3   5
HETATM    5  C5  UNL     1      17.023   4.187  14.024  1.00  0.00     0.127 C 
BRANCH   5   6
HETATM    6  C6  UNL     1      17.698   3.247  13.056  1.00  0.00     0.083 C 
HETATM    7  N2  UNL     1      17.034   2.308  12.389  1.00  0.00    -0.391 N 
HETATM    8  C7  UNL     1      16.098   2.386  11.377  1.00  0.00     0.122 C 
HETATM    9  C10 UNL     1      17.787   1.056  12.150  1.00  0.00     0.122 C 
HETATM   10  C8  UNL     1      15.823   0.958  10.873  1.00  0.00     0.021 C 
HETATM   11  C9  UNL     1      16.630   0.108  11.810  1.00  0.00     0.021 C 
ENDBRANCH   5   6
BRANCH   5  12
HETATM   12  C11 UNL     1      17.793   5.481  14.196  1.00  0.00     0.013 A 
HETATM   13  C12 UNL     1      17.533   6.702  13.440  1.00  0.00     0.007 A 
HETATM   14  C13 UNL     1      17.129   6.594  14.938  1.00  0.00     0.007 A 
ENDBRANCH   5  12
ENDBRANCH   3   5
BRANCH   1  15
HETATM   15  C3  UNL     1      14.846   2.493  16.718  1.00  0.00     0.050 A 
HETATM   16  C14 UNL     1      14.529   3.374  17.886  1.00  0.00     0.021 A 
HETATM   17  C15 UNL     1      13.408   2.805  17.127  1.00  0.00     0.021 A 
BRANCH  15  18
HETATM   18  C2  UNL     1      15.056   0.964  16.913  1.00  0.00     0.132 C 
BRANCH  18  19
HETATM   19  C1  UNL     1      16.235   0.531  16.108  1.00  0.00     0.173 C 
HETATM   20  O1  UNL     1      16.065  -0.285  15.173  1.00  0.00    -0.648 OA
HETATM   21  O2  UNL     1      17.480   1.020  16.385  1.00  0.00    -0.648 OA
ENDBRANCH  18  19
ENDBRANCH  15  18
ENDBRANCH   1  15
TORSDOF 6
ENDMDL
