MODEL 1
REMARK VINA RESULT: -6.352804514      0.000      0.000
REMARK  2 active torsions:
REMARK  status: ('A' for Active; 'I' for Inactive)
REMARK       I    between atoms: C1_2  and  N3_4 
REMARK    1  A    between atoms: N3_4  and  N4_6 
REMARK    2  A    between atoms: N4_6  and  C2_8 
ROOT
HETATM    1  C2  UNL     1      40.328  16.694  31.688  1.00  0.00     0.715 A 
HETATM    2  N5  UNL     1      41.352  17.332  32.294  1.00  0.00    -0.127 N 
ATOM      3  H5  UNL     1      42.303  17.388  31.931  1.00  0.00     0.206 HD
HETATM    4  N6  UNL     1      40.942  17.872  33.425  1.00  0.00    -0.237 N 
ATOM      5  H6  UNL     1      41.520  18.410  34.072  1.00  0.00     0.192 HD
HETATM    6  C3  UNL     1      39.641  17.598  33.583  1.00  0.00     0.353 A 
HETATM    7  O1  UNL     1      38.898  17.954  34.560  1.00  0.00    -0.245 OA
HETATM    8  N7  UNL     1      39.277  16.873  32.509  1.00  0.00    -0.137 N 
ATOM      9  H7  UNL     1      38.338  16.512  32.341  1.00  0.00     0.189 HD
ENDROOT
BRANCH   1  10
HETATM   10  N4  UNL     1      40.286  16.047  30.591  1.00  0.00    -0.128 N 
ATOM     11  H4  UNL     1      40.236  15.030  30.660  1.00  0.00     0.205 HD
BRANCH  10  12
HETATM   12  N3  UNL     1      40.302  16.579  29.328  1.00  0.00    -0.262 N 
HETATM   13  C1  UNL     1      39.213  16.917  28.764  1.00  0.00     0.216 C 
HETATM   14  N1  UNL     1      37.987  16.749  29.434  1.00  0.00    -0.065 NA
HETATM   15  N2  UNL     1      39.236  17.460  27.469  1.00  0.00    -0.065 NA
ATOM     16  H3  UNL     1      41.188  16.703  28.839  1.00  0.00     0.190 HD
ENDBRANCH  10  12
ENDBRANCH   1  10
TORSDOF 2
ENDMDL
MODEL 2
REMARK VINA RESULT: -6.268593386      0.794      1.183
REMARK  2 active torsions:
REMARK  status: ('A' for Active; 'I' for Inactive)
REMARK       I    between atoms: C1_2  and  N3_4 
REMARK    1  A    between atoms: N3_4  and  N4_6 
REMARK    2  A    between atoms: N4_6  and  C2_8 
ROOT
HETATM    1  C2  UNL     1      40.450  16.745  31.959  1.00  0.00     0.715 A 
HETATM    2  N5  UNL     1      41.503  17.465  32.402  1.00  0.00    -0.127 N 
ATOM      3  H5  UNL     1      42.438  17.444  31.994  1.00  0.00     0.206 HD
HETATM    4  N6  UNL     1      41.147  18.198  33.438  1.00  0.00    -0.237 N 
ATOM      5  H6  UNL     1      41.756  18.832  33.956  1.00  0.00     0.192 HD
HETATM    6  C3  UNL     1      39.852  17.973  33.696  1.00  0.00     0.353 A 
HETATM    7  O1  UNL     1      39.155  18.503  34.627  1.00  0.00    -0.245 OA
HETATM    8  N7  UNL     1      39.437  17.078  32.780  1.00  0.00    -0.137 N 
ATOM      9  H7  UNL     1      38.489  16.706  32.718  1.00  0.00     0.189 HD
ENDROOT
BRANCH   1  10
HETATM   10  N4  UNL     1      40.356  15.918  30.994  1.00  0.00    -0.128 N 
ATOM     11  H4  UNL     1      41.208  15.422  30.731  1.00  0.00     0.205 HD
BRANCH  10  12
HETATM   12  N3  UNL     1      39.227  15.629  30.273  1.00  0.00    -0.262 N 
HETATM   13  C1  UNL     1      39.077  16.104  29.103  1.00  0.00     0.216 C 
HETATM   14  N1  UNL     1      40.069  16.928  28.541  1.00  0.00    -0.065 NA
HETATM   15  N2  UNL     1      37.917  15.804  28.370  1.00  0.00    -0.065 NA
ATOM     16  H3  UNL     1      38.506  15.031  30.676  1.00  0.00     0.190 HD
ENDBRANCH  10  12
ENDBRANCH   1  10
TORSDOF 2
ENDMDL
MODEL 3
REMARK VINA RESULT: -6.239353764      2.410      4.830
REMARK  2 active torsions:
REMARK  status: ('A' for Active; 'I' for Inactive)
REMARK       I    between atoms: C1_2  and  N3_4 
REMARK    1  A    between atoms: N3_4  and  N4_6 
REMARK    2  A    between atoms: N4_6  and  C2_8 
ROOT
HETATM    1  C2  UNL     1      39.386  16.423  31.589  1.00  0.00     0.715 A 
HETATM    2  N5  UNL     1      40.460  15.906  30.953  1.00  0.00    -0.127 N 
ATOM      3  H5  UNL     1      41.371  15.744  31.381  1.00  0.00     0.206 HD
HETATM    4  N6  UNL     1      40.157  15.641  29.698  1.00  0.00    -0.237 N 
ATOM      5  H6  UNL     1      40.791  15.244  29.003  1.00  0.00     0.192 HD
HETATM    6  C3  UNL     1      38.879  15.980  29.485  1.00  0.00     0.353 A 
HETATM    7  O1  UNL     1      38.231  15.870  28.389  1.00  0.00    -0.245 OA
HETATM    8  N7  UNL     1      38.418  16.459  30.656  1.00  0.00    -0.137 N 
ATOM      9  H7  UNL     1      37.470  16.800  30.812  1.00  0.00     0.189 HD
ENDROOT
BRANCH   1  10
HETATM   10  N4  UNL     1      39.243  16.811  32.794  1.00  0.00    -0.128 N 
ATOM     11  H4  UNL     1      38.616  16.261  33.382  1.00  0.00     0.205 HD
BRANCH  10  12
HETATM   12  N3  UNL     1      39.847  17.893  33.381  1.00  0.00    -0.262 N 
HETATM   13  C1  UNL     1      39.948  17.959  34.648  1.00  0.00     0.216 C 
HETATM   14  N1  UNL     1      39.442  16.922  35.453  1.00  0.00    -0.065 NA
HETATM   15  N2  UNL     1      40.567  19.070  35.242  1.00  0.00    -0.065 NA
ATOM     16  H3  UNL     1      40.216  18.646  32.801  1.00  0.00     0.190 HD
ENDBRANCH  10  12
ENDBRANCH   1  10
TORSDOF 2
ENDMDL
MODEL 4
REMARK VINA RESULT: -6.231599605      0.989      1.356
REMARK  2 active torsions:
REMARK  status: ('A' for Active; 'I' for Inactive)
REMARK       I    between atoms: C1_2  and  N3_4 
REMARK    1  A    between atoms: N3_4  and  N4_6 
REMARK    2  A    between atoms: N4_6  and  C2_8 
ROOT
HETATM    1  C2  UNL     1      40.212  16.649  31.741  1.00  0.00     0.715 A 
HETATM    2  N5  UNL     1      39.175  16.804  32.593  1.00  0.00    -0.127 N 
ATOM      3  H5  UNL     1      38.244  16.410  32.457  1.00  0.00     0.206 HD
HETATM    4  N6  UNL     1      39.543  17.538  33.624  1.00  0.00    -0.237 N 
ATOM      5  H6  UNL     1      38.947  17.801  34.410  1.00  0.00     0.192 HD
HETATM    6  C3  UNL     1      40.828  17.880  33.469  1.00  0.00     0.353 A 
HETATM    7  O1  UNL     1      41.532  18.589  34.266  1.00  0.00    -0.245 OA
HETATM    8  N7  UNL     1      41.226  17.327  32.308  1.00  0.00    -0.137 N 
ATOM      9  H7  UNL     1      42.164  17.410  31.915  1.00  0.00     0.189 HD
ENDROOT
BRANCH   1  10
HETATM   10  N4  UNL     1      40.291  16.021  30.635  1.00  0.00    -0.128 N 
ATOM     11  H4  UNL     1      40.337  15.003  30.689  1.00  0.00     0.205 HD
BRANCH  10  12
HETATM   12  N3  UNL     1      40.320  16.573  29.381  1.00  0.00    -0.262 N 
HETATM   13  C1  UNL     1      39.234  16.884  28.795  1.00  0.00     0.216 C 
HETATM   14  N1  UNL     1      37.999  16.664  29.430  1.00  0.00    -0.065 NA
HETATM   15  N2  UNL     1      39.272  17.449  27.510  1.00  0.00    -0.065 NA
ATOM     16  H3  UNL     1      41.213  16.736  28.918  1.00  0.00     0.190 HD
ENDBRANCH  10  12
ENDBRANCH   1  10
TORSDOF 2
ENDMDL
MODEL 5
REMARK VINA RESULT: -6.191095943      1.004      1.039
REMARK  2 active torsions:
REMARK  status: ('A' for Active; 'I' for Inactive)
REMARK       I    between atoms: C1_2  and  N3_4 
REMARK    1  A    between atoms: N3_4  and  N4_6 
REMARK    2  A    between atoms: N4_6  and  C2_8 
ROOT
HETATM    1  C2  UNL     1      39.702  16.452  31.689  1.00  0.00     0.715 A 
HETATM    2  N5  UNL     1      40.295  17.253  32.601  1.00  0.00    -0.127 N 
ATOM      3  H5  UNL     1      41.251  17.602  32.539  1.00  0.00     0.206 HD
HETATM    4  N6  UNL     1      39.456  17.518  33.583  1.00  0.00    -0.237 N 
ATOM      5  H6  UNL     1      39.657  18.101  34.397  1.00  0.00     0.192 HD
HETATM    6  C3  UNL     1      38.297  16.895  33.335  1.00  0.00     0.353 A 
HETATM    7  O1  UNL     1      37.246  16.917  34.063  1.00  0.00    -0.245 OA
HETATM    8  N7  UNL     1      38.462  16.245  32.168  1.00  0.00    -0.137 N 
ATOM      9  H7  UNL     1      37.749  15.675  31.713  1.00  0.00     0.189 HD
ENDROOT
BRANCH   1  10
HETATM   10  N4  UNL     1      40.148  15.963  30.600  1.00  0.00    -0.128 N 
ATOM     11  H4  UNL     1      40.404  14.975  30.612  1.00  0.00     0.205 HD
BRANCH  10  12
HETATM   12  N3  UNL     1      40.318  16.629  29.414  1.00  0.00    -0.262 N 
HETATM   13  C1  UNL     1      39.309  16.932  28.702  1.00  0.00     0.216 C 
HETATM   14  N1  UNL     1      38.013  16.588  29.127  1.00  0.00    -0.065 NA
HETATM   15  N2  UNL     1      39.491  17.614  27.487  1.00  0.00    -0.065 NA
ATOM     16  H3  UNL     1      41.256  16.881  29.103  1.00  0.00     0.190 HD
ENDBRANCH  10  12
ENDBRANCH   1  10
TORSDOF 2
ENDMDL
