MODEL 1
REMARK VINA RESULT: -4.787412655      0.000      0.000
REMARK  2 active torsions:
REMARK  status: ('A' for Active; 'I' for Inactive)
REMARK    1  A    between atoms: O1_2  and  C2_3 
REMARK    2  A    between atoms: C2_3  and  O2_4 
ROOT
HETATM    1  C2  UNL     1      16.055   0.851  16.108  1.00  0.00     0.191 C 
HETATM    2  C3  UNL     1      15.627   2.015  15.229  1.00  0.00     0.340 C 
HETATM    3  N1  UNL     1      14.825   2.885  16.080  1.00  0.00     0.093 N 
HETATM    4  C4  UNL     1      13.511   2.288  16.307  1.00  0.00     0.273 C 
HETATM    5  C5  UNL     1      13.676   0.921  16.899  1.00  0.00     0.040 C 
HETATM    6  C6  UNL     1      15.122   0.694  17.284  1.00  0.00     0.053 C 
HETATM    7  C7  UNL     1      15.469   1.856  18.222  1.00  0.00     0.040 C 
HETATM    8  C8  UNL     1      15.477   3.098  17.341  1.00  0.00     0.273 C 
ENDROOT
BRANCH   1   9
HETATM    9  O1  UNL     1      16.157  -0.269  15.330  1.00  0.00    -0.358 OA
HETATM   10  C1  UNL     1      16.682   0.109  14.095  1.00  0.00     0.205 C 
ENDBRANCH   1   9
BRANCH   1  11
HETATM   11  O2  UNL     1      17.309   1.178  16.625  1.00  0.00    -0.364 OA
ATOM     12  H2  UNL     1      17.832   0.390  16.716  1.00  0.00     0.213 HD
ENDBRANCH   1  11
TORSDOF 2
ENDMDL
MODEL 2
REMARK VINA RESULT: -4.647451029      4.633      6.013
REMARK  2 active torsions:
REMARK  status: ('A' for Active; 'I' for Inactive)
REMARK    1  A    between atoms: O1_2  and  C2_3 
REMARK    2  A    between atoms: C2_3  and  O2_4 
ROOT
HETATM    1  C2  UNL     1      18.217   1.882  11.421  1.00  0.00     0.191 C 
HETATM    2  C3  UNL     1      18.678   0.479  11.060  1.00  0.00     0.340 C 
HETATM    3  N1  UNL     1      17.479  -0.349  11.062  1.00  0.00     0.093 N 
HETATM    4  C4  UNL     1      17.052  -0.607  12.436  1.00  0.00     0.273 C 
HETATM    5  C5  UNL     1      16.837   0.695  13.147  1.00  0.00     0.040 C 
HETATM    6  C6  UNL     1      16.901   1.841  12.160  1.00  0.00     0.053 C 
HETATM    7  C7  UNL     1      15.857   1.502  11.091  1.00  0.00     0.040 C 
HETATM    8  C8  UNL     1      16.416   0.298  10.346  1.00  0.00     0.273 C 
ENDROOT
BRANCH   1   9
HETATM    9  O1  UNL     1      19.219   2.507  12.109  1.00  0.00    -0.358 OA
HETATM   10  C1  UNL     1      20.284   2.710  11.233  1.00  0.00     0.205 C 
ENDBRANCH   1   9
BRANCH   1  11
HETATM   11  O2  UNL     1      17.986   2.551  10.218  1.00  0.00    -0.364 OA
ATOM     12  H2  UNL     1      17.662   3.426  10.398  1.00  0.00     0.213 HD
ENDBRANCH   1  11
TORSDOF 2
ENDMDL
MODEL 3
REMARK VINA RESULT: -4.546419286      2.744      3.422
REMARK  2 active torsions:
REMARK  status: ('A' for Active; 'I' for Inactive)
REMARK    1  A    between atoms: O1_2  and  C2_3 
REMARK    2  A    between atoms: C2_3  and  O2_4 
ROOT
HETATM    1  C2  UNL     1      16.155   2.631  13.532  1.00  0.00     0.191 C 
HETATM    2  C3  UNL     1      17.187   3.701  13.215  1.00  0.00     0.340 C 
HETATM    3  N1  UNL     1      17.410   4.423  14.461  1.00  0.00     0.093 N 
HETATM    4  C4  UNL     1      16.272   5.295  14.743  1.00  0.00     0.273 C 
HETATM    5  C5  UNL     1      15.014   4.481  14.783  1.00  0.00     0.040 C 
HETATM    6  C6  UNL     1      15.351   3.006  14.754  1.00  0.00     0.053 C 
HETATM    7  C7  UNL     1      16.304   2.792  15.935  1.00  0.00     0.040 C 
HETATM    8  C8  UNL     1      17.592   3.506  15.551  1.00  0.00     0.273 C 
ENDROOT
BRANCH   1   9
HETATM    9  O1  UNL     1      15.396   2.412  12.416  1.00  0.00    -0.358 OA
HETATM   10  C1  UNL     1      16.148   1.645  11.526  1.00  0.00     0.205 C 
ENDBRANCH   1   9
BRANCH   1  11
HETATM   11  O2  UNL     1      16.863   1.471  13.852  1.00  0.00    -0.364 OA
ATOM     12  H2  UNL     1      17.712   1.705  14.210  1.00  0.00     0.213 HD
ENDBRANCH   1  11
TORSDOF 2
ENDMDL
MODEL 4
REMARK VINA RESULT: -4.377337064      1.618      2.594
REMARK  2 active torsions:
REMARK  status: ('A' for Active; 'I' for Inactive)
REMARK    1  A    between atoms: O1_2  and  C2_3 
REMARK    2  A    between atoms: C2_3  and  O2_4 
ROOT
HETATM    1  C2  UNL     1      16.245   1.254  15.763  1.00  0.00     0.191 C 
HETATM    2  C3  UNL     1      16.377   1.158  14.252  1.00  0.00     0.340 C 
HETATM    3  N1  UNL     1      16.556   2.525  13.779  1.00  0.00     0.093 N 
HETATM    4  C4  UNL     1      15.286   3.246  13.842  1.00  0.00     0.273 C 
HETATM    5  C5  UNL     1      14.753   3.201  15.242  1.00  0.00     0.040 C 
HETATM    6  C6  UNL     1      15.800   2.636  16.178  1.00  0.00     0.053 C 
HETATM    7  C7  UNL     1      17.032   3.524  15.978  1.00  0.00     0.040 C 
HETATM    8  C8  UNL     1      17.535   3.211  14.575  1.00  0.00     0.273 C 
ENDROOT
BRANCH   1   9
HETATM    9  O1  UNL     1      15.417   0.254  16.194  1.00  0.00    -0.358 OA
HETATM   10  C1  UNL     1      15.097   0.502  17.527  1.00  0.00     0.205 C 
ENDBRANCH   1   9
BRANCH   1  11
HETATM   11  O2  UNL     1      17.523   1.064  16.292  1.00  0.00    -0.364 OA
ATOM     12  H2  UNL     1      17.647   1.636  17.040  1.00  0.00     0.213 HD
ENDBRANCH   1  11
TORSDOF 2
ENDMDL
MODEL 5
REMARK VINA RESULT: -4.206410082      4.143      5.613
REMARK  2 active torsions:
REMARK  status: ('A' for Active; 'I' for Inactive)
REMARK    1  A    between atoms: O1_2  and  C2_3 
REMARK    2  A    between atoms: C2_3  and  O2_4 
ROOT
HETATM    1  C2  UNL     1      16.396   1.968  11.851  1.00  0.00     0.191 C 
HETATM    2  C3  UNL     1      16.306   2.834  13.098  1.00  0.00     0.340 C 
HETATM    3  N1  UNL     1      17.003   4.072  12.774  1.00  0.00     0.093 N 
HETATM    4  C4  UNL     1      18.447   3.847  12.769  1.00  0.00     0.273 C 
HETATM    5  C5  UNL     1      18.779   2.748  11.806  1.00  0.00     0.040 C 
HETATM    6  C6  UNL     1      17.559   2.390  10.985  1.00  0.00     0.053 C 
HETATM    7  C7  UNL     1      17.113   3.709  10.342  1.00  0.00     0.040 C 
HETATM    8  C8  UNL     1      16.591   4.563  11.489  1.00  0.00     0.273 C 
ENDROOT
BRANCH   1   9
HETATM    9  O1  UNL     1      16.440   0.656  12.234  1.00  0.00    -0.358 OA
HETATM   10  C1  UNL     1      16.564  -0.125  11.086  1.00  0.00     0.205 C 
ENDBRANCH   1   9
BRANCH   1  11
HETATM   11  O2  UNL     1      15.234   2.202  11.114  1.00  0.00    -0.364 OA
ATOM     12  H2  UNL     1      14.682   1.429  11.136  1.00  0.00     0.213 HD
ENDBRANCH   1  11
TORSDOF 2
ENDMDL
