MODEL 1
REMARK VINA RESULT: -6.979643061      0.000      0.000
REMARK  2 active torsions:
REMARK  status: ('A' for Active; 'I' for Inactive)
REMARK    1  A    between atoms: C4_9  and  N4_10 
REMARK       I    between atoms: N4_10  and  C5_12 
REMARK       I    between atoms: C5_12  and  N5_13 
REMARK       I    between atoms: C5_12  and  N6_17 
REMARK    2  A    between atoms: C6_21  and  N7_22 
ROOT
HETATM    1  C1  UNL     1      43.770   4.401  22.355  1.00  0.00     0.158 C 
HETATM    2  N1  UNL     1      44.226   3.059  22.007  1.00  0.00    -0.331 N 
HETATM    3  C2  UNL     1      43.827   1.908  22.575  1.00  0.00     0.185 A 
HETATM    4  N2  UNL     1      44.482   0.908  21.969  1.00  0.00    -0.335 N 
ATOM      5  H2  UNL     1      44.386  -0.083  22.189  1.00  0.00     0.168 HD
HETATM    6  C3  UNL     1      45.288   1.426  21.025  1.00  0.00     0.153 A 
HETATM    7  N3  UNL     1      46.155   0.877  20.135  1.00  0.00    -0.323 N 
ATOM      8  H3  UNL     1      46.271  -0.136  20.124  1.00  0.00     0.169 HD
HETATM    9  C4  UNL     1      46.862   1.611  19.274  1.00  0.00     0.150 A 
HETATM   10  C6  UNL     1      46.694   2.979  19.302  1.00  0.00     0.150 A 
HETATM   11  N8  UNL     1      45.837   3.546  20.180  1.00  0.00    -0.322 N 
ATOM     12  H8  UNL     1      45.722   4.560  20.190  1.00  0.00     0.169 HD
HETATM   13  C11 UNL     1      45.127   2.780  21.048  1.00  0.00     0.154 A 
ENDROOT
BRANCH   9  14
HETATM   14  N4  UNL     1      47.662   1.089  18.453  1.00  0.00    -0.324 N 
HETATM   15  C5  UNL     1      48.835   0.323  18.678  1.00  0.00     0.481 C 
HETATM   16  N5  UNL     1      48.438  -0.910  19.360  1.00  0.00    -0.033 N 
HETATM   17  N6  UNL     1      49.866   0.950  19.428  1.00  0.00    -0.033 N 
ATOM     18  H53 UNL     1      47.908  -0.738  20.214  1.00  0.00     0.278 HD
ATOM     19  H52 UNL     1      47.718  -1.428  18.856  1.00  0.00     0.278 HD
ATOM     20  H51 UNL     1      49.281  -1.461  19.521  1.00  0.00     0.278 HD
ATOM     21  H63 UNL     1      50.115   1.839  18.994  1.00  0.00     0.278 HD
ATOM     22  H62 UNL     1      49.493   1.277  20.319  1.00  0.00     0.278 HD
ATOM     23  H61 UNL     1      50.709   0.400  19.589  1.00  0.00     0.278 HD
ATOM     24  H4  UNL     1      47.431   1.242  17.471  1.00  0.00     0.165 HD
ENDBRANCH   9  14
BRANCH  10  25
HETATM   25  N7  UNL     1      47.383   3.875  18.443  1.00  0.00    -0.351 N 
HETATM   26  C7  UNL     1      48.092   5.206  18.306  1.00  0.00     0.156 A 
HETATM   27  C8  UNL     1      47.949   4.348  17.255  1.00  0.00     0.050 A 
HETATM   28  C9  UNL     1      47.394   4.353  15.933  1.00  0.00     0.035 A 
HETATM   29  C10 UNL     1      48.756   3.669  16.296  1.00  0.00     0.035 A 
ENDBRANCH  10  25
TORSDOF 2
ENDMDL
MODEL 2
REMARK VINA RESULT: -6.977028968      1.472      4.937
REMARK  2 active torsions:
REMARK  status: ('A' for Active; 'I' for Inactive)
REMARK    1  A    between atoms: C4_9  and  N4_10 
REMARK       I    between atoms: N4_10  and  C5_12 
REMARK       I    between atoms: C5_12  and  N5_13 
REMARK       I    between atoms: C5_12  and  N6_17 
REMARK    2  A    between atoms: C6_21  and  N7_22 
ROOT
HETATM    1  C1  UNL     1      47.630   5.685  18.109  1.00  0.00     0.158 C 
HETATM    2  N1  UNL     1      47.955   4.284  17.863  1.00  0.00    -0.331 N 
HETATM    3  C2  UNL     1      48.810   3.814  16.938  1.00  0.00     0.185 A 
HETATM    4  N2  UNL     1      48.823   2.478  17.039  1.00  0.00    -0.335 N 
ATOM      5  H2  UNL     1      49.379   1.845  16.465  1.00  0.00     0.168 HD
HETATM    6  C3  UNL     1      47.981   2.108  18.021  1.00  0.00     0.153 A 
HETATM    7  N3  UNL     1      47.618   0.905  18.535  1.00  0.00    -0.323 N 
ATOM      8  H3  UNL     1      48.030   0.059  18.142  1.00  0.00     0.169 HD
HETATM    9  C4  UNL     1      46.743   0.784  19.535  1.00  0.00     0.150 A 
HETATM   10  C6  UNL     1      46.194   1.937  20.055  1.00  0.00     0.150 A 
HETATM   11  N8  UNL     1      46.542   3.145  19.559  1.00  0.00    -0.322 N 
ATOM     12  H8  UNL     1      46.129   3.991  19.953  1.00  0.00     0.169 HD
HETATM   13  C11 UNL     1      47.435   3.245  18.541  1.00  0.00     0.154 A 
ENDROOT
BRANCH   9  14
HETATM   14  N4  UNL     1      46.415  -0.339  20.003  1.00  0.00    -0.324 N 
HETATM   15  C5  UNL     1      47.219  -1.378  20.537  1.00  0.00     0.481 C 
HETATM   16  N5  UNL     1      47.877  -0.860  21.739  1.00  0.00    -0.033 N 
HETATM   17  N6  UNL     1      48.207  -1.921  19.672  1.00  0.00    -0.033 N 
ATOM     18  H53 UNL     1      48.401  -0.003  21.565  1.00  0.00     0.278 HD
ATOM     19  H52 UNL     1      47.218  -0.480  22.418  1.00  0.00     0.278 HD
ATOM     20  H51 UNL     1      48.454  -1.607  22.123  1.00  0.00     0.278 HD
ATOM     21  H63 UNL     1      47.770  -2.237  18.807  1.00  0.00     0.278 HD
ATOM     22  H62 UNL     1      48.803  -1.173  19.318  1.00  0.00     0.278 HD
ATOM     23  H61 UNL     1      48.785  -2.669  20.056  1.00  0.00     0.278 HD
ATOM     24  H4  UNL     1      45.413  -0.531  19.996  1.00  0.00     0.165 HD
ENDBRANCH   9  14
BRANCH  10  25
HETATM   25  N7  UNL     1      45.253   1.952  21.117  1.00  0.00    -0.351 N 
HETATM   26  C7  UNL     1      44.002   1.340  21.709  1.00  0.00     0.156 A 
HETATM   27  C8  UNL     1      44.662   2.369  22.314  1.00  0.00     0.050 A 
HETATM   28  C9  UNL     1      44.388   3.701  22.766  1.00  0.00     0.035 A 
HETATM   29  C10 UNL     1      45.263   2.679  23.568  1.00  0.00     0.035 A 
ENDBRANCH  10  25
TORSDOF 2
ENDMDL
MODEL 3
REMARK VINA RESULT: -6.798113282      1.980      2.397
REMARK  2 active torsions:
REMARK  status: ('A' for Active; 'I' for Inactive)
REMARK    1  A    between atoms: C4_9  and  N4_10 
REMARK       I    between atoms: N4_10  and  C5_12 
REMARK       I    between atoms: C5_12  and  N5_13 
REMARK       I    between atoms: C5_12  and  N6_17 
REMARK    2  A    between atoms: C6_21  and  N7_22 
ROOT
HETATM    1  C1  UNL     1      43.848   2.719  22.871  1.00  0.00     0.158 C 
HETATM    2  N1  UNL     1      44.666   1.816  22.068  1.00  0.00    -0.331 N 
HETATM    3  C2  UNL     1      45.064   0.580  22.414  1.00  0.00     0.185 A 
HETATM    4  N2  UNL     1      45.795   0.090  21.404  1.00  0.00    -0.335 N 
ATOM      5  H2  UNL     1      46.233  -0.830  21.379  1.00  0.00     0.168 HD
HETATM    6  C3  UNL     1      45.857   1.013  20.426  1.00  0.00     0.153 A 
HETATM    7  N3  UNL     1      46.454   1.041  19.207  1.00  0.00    -0.323 N 
ATOM      8  H3  UNL     1      46.985   0.225  18.901  1.00  0.00     0.169 HD
HETATM    9  C4  UNL     1      46.375   2.094  18.392  1.00  0.00     0.150 A 
HETATM   10  C6  UNL     1      45.655   3.189  18.820  1.00  0.00     0.150 A 
HETATM   11  N8  UNL     1      45.053   3.182  20.030  1.00  0.00    -0.322 N 
ATOM     12  H8  UNL     1      44.523   3.999  20.334  1.00  0.00     0.169 HD
HETATM   13  C11 UNL     1      45.146   2.099  20.844  1.00  0.00     0.154 A 
ENDROOT
BRANCH   9  14
HETATM   14  N4  UNL     1      46.933   2.107  17.262  1.00  0.00    -0.324 N 
HETATM   15  C5  UNL     1      48.305   2.222  16.920  1.00  0.00     0.481 C 
HETATM   16  N5  UNL     1      48.999   1.049  17.456  1.00  0.00    -0.033 N 
HETATM   17  N6  UNL     1      48.972   3.394  17.367  1.00  0.00    -0.033 N 
ATOM     18  H53 UNL     1      48.850   0.925  18.458  1.00  0.00     0.278 HD
ATOM     19  H52 UNL     1      48.586   0.169  17.148  1.00  0.00     0.278 HD
ATOM     20  H51 UNL     1      49.984   1.132  17.210  1.00  0.00     0.278 HD
ATOM     21  H63 UNL     1      48.468   4.220  17.046  1.00  0.00     0.278 HD
ATOM     22  H62 UNL     1      48.860   3.489  18.377  1.00  0.00     0.278 HD
ATOM     23  H61 UNL     1      49.958   3.477  17.121  1.00  0.00     0.278 HD
ATOM     24  H4  UNL     1      46.298   2.021  16.468  1.00  0.00     0.165 HD
ENDBRANCH   9  14
BRANCH  10  25
HETATM   25  N7  UNL     1      45.491   4.372  18.054  1.00  0.00    -0.351 N 
HETATM   26  C7  UNL     1      46.132   5.636  17.522  1.00  0.00     0.156 A 
HETATM   27  C8  UNL     1      44.833   5.316  17.258  1.00  0.00     0.050 A 
HETATM   28  C9  UNL     1      43.530   5.888  17.432  1.00  0.00     0.035 A 
HETATM   29  C10 UNL     1      43.973   5.123  16.139  1.00  0.00     0.035 A 
ENDBRANCH  10  25
TORSDOF 2
ENDMDL
MODEL 4
REMARK VINA RESULT: -6.732443630      1.887      2.537
REMARK  2 active torsions:
REMARK  status: ('A' for Active; 'I' for Inactive)
REMARK    1  A    between atoms: C4_9  and  N4_10 
REMARK       I    between atoms: N4_10  and  C5_12 
REMARK       I    between atoms: C5_12  and  N5_13 
REMARK       I    between atoms: C5_12  and  N6_17 
REMARK    2  A    between atoms: C6_21  and  N7_22 
ROOT
HETATM    1  C1  UNL     1      44.647   0.915  23.754  1.00  0.00     0.158 C 
HETATM    2  N1  UNL     1      45.174   0.258  22.562  1.00  0.00    -0.331 N 
HETATM    3  C2  UNL     1      45.364  -1.062  22.398  1.00  0.00     0.185 A 
HETATM    4  N2  UNL     1      45.860  -1.250  21.167  1.00  0.00    -0.335 N 
ATOM      5  H2  UNL     1      46.106  -2.152  20.758  1.00  0.00     0.168 HD
HETATM    6  C3  UNL     1      45.982  -0.056  20.561  1.00  0.00     0.153 A 
HETATM    7  N3  UNL     1      46.422   0.327  19.334  1.00  0.00    -0.323 N 
ATOM      8  H3  UNL     1      46.745  -0.389  18.683  1.00  0.00     0.169 HD
HETATM    9  C4  UNL     1      46.450   1.603  18.947  1.00  0.00     0.150 A 
HETATM   10  C6  UNL     1      46.012   2.558  19.838  1.00  0.00     0.150 A 
HETATM   11  N8  UNL     1      45.569   2.199  21.064  1.00  0.00    -0.322 N 
ATOM     12  H8  UNL     1      45.247   2.916  21.714  1.00  0.00     0.169 HD
HETATM   13  C11 UNL     1      45.549   0.894  21.438  1.00  0.00     0.154 A 
ENDROOT
BRANCH   9  14
HETATM   14  N4  UNL     1      46.861   1.945  17.805  1.00  0.00    -0.324 N 
HETATM   15  C5  UNL     1      48.178   2.198  17.344  1.00  0.00     0.481 C 
HETATM   16  N5  UNL     1      48.936   0.950  17.448  1.00  0.00    -0.033 N 
HETATM   17  N6  UNL     1      48.895   3.227  18.013  1.00  0.00    -0.033 N 
ATOM     18  H53 UNL     1      48.915   0.550  18.386  1.00  0.00     0.278 HD
ATOM     19  H52 UNL     1      48.488   0.173  16.961  1.00  0.00     0.278 HD
ATOM     20  H51 UNL     1      49.882   1.132  17.116  1.00  0.00     0.278 HD
ATOM     21  H63 UNL     1      48.354   4.090  17.997  1.00  0.00     0.278 HD
ATOM     22  H62 UNL     1      48.912   3.037  19.015  1.00  0.00     0.278 HD
ATOM     23  H61 UNL     1      49.842   3.409  17.682  1.00  0.00     0.278 HD
ATOM     24  H4  UNL     1      46.131   2.057  17.102  1.00  0.00     0.165 HD
ENDBRANCH   9  14
BRANCH  10  25
HETATM   25  N7  UNL     1      45.989   3.949  19.555  1.00  0.00    -0.351 N 
HETATM   26  C7  UNL     1      46.380   5.340  20.005  1.00  0.00     0.156 A 
HETATM   27  C8  UNL     1      45.701   5.118  18.843  1.00  0.00     0.050 A 
HETATM   28  C9  UNL     1      44.470   5.517  18.226  1.00  0.00     0.035 A 
HETATM   29  C10 UNL     1      45.825   5.390  17.450  1.00  0.00     0.035 A 
ENDBRANCH  10  25
TORSDOF 2
ENDMDL
MODEL 5
REMARK VINA RESULT: -6.720616212      1.381      1.643
REMARK  2 active torsions:
REMARK  status: ('A' for Active; 'I' for Inactive)
REMARK    1  A    between atoms: C4_9  and  N4_10 
REMARK       I    between atoms: N4_10  and  C5_12 
REMARK       I    between atoms: C5_12  and  N5_13 
REMARK       I    between atoms: C5_12  and  N6_17 
REMARK    2  A    between atoms: C6_21  and  N7_22 
ROOT
HETATM    1  C1  UNL     1      43.657   5.253  21.848  1.00  0.00     0.158 C 
HETATM    2  N1  UNL     1      44.057   3.884  22.157  1.00  0.00    -0.331 N 
HETATM    3  C2  UNL     1      43.820   3.224  23.304  1.00  0.00     0.185 A 
HETATM    4  N2  UNL     1      44.350   1.998  23.183  1.00  0.00    -0.335 N 
ATOM      5  H2  UNL     1      44.327   1.269  23.896  1.00  0.00     0.168 HD
HETATM    6  C3  UNL     1      44.917   1.888  21.968  1.00  0.00     0.153 A 
HETATM    7  N3  UNL     1      45.580   0.886  21.336  1.00  0.00    -0.323 N 
ATOM      8  H3  UNL     1      45.714   0.001  21.825  1.00  0.00     0.169 HD
HETATM    9  C4  UNL     1      46.063   1.012  20.099  1.00  0.00     0.150 A 
HETATM   10  C6  UNL     1      45.873   2.214  19.451  1.00  0.00     0.150 A 
HETATM   11  N8  UNL     1      45.216   3.225  20.062  1.00  0.00    -0.322 N 
ATOM     12  H8  UNL     1      45.082   4.109  19.571  1.00  0.00     0.169 HD
HETATM   13  C11 UNL     1      44.732   3.075  21.322  1.00  0.00     0.154 A 
ENDROOT
BRANCH   9  14
HETATM   14  N4  UNL     1      46.676   0.073  19.523  1.00  0.00    -0.324 N 
HETATM   15  C5  UNL     1      47.952  -0.486  19.790  1.00  0.00     0.481 C 
HETATM   16  N5  UNL     1      47.906  -1.086  21.125  1.00  0.00    -0.033 N 
HETATM   17  N6  UNL     1      49.059   0.403  19.725  1.00  0.00    -0.033 N 
ATOM     18  H53 UNL     1      47.604  -0.429  21.844  1.00  0.00     0.278 HD
ATOM     19  H52 UNL     1      47.148  -1.760  21.231  1.00  0.00     0.278 HD
ATOM     20  H51 UNL     1      48.823  -1.488  21.316  1.00  0.00     0.278 HD
ATOM     21  H63 UNL     1      49.072   0.870  18.818  1.00  0.00     0.278 HD
ATOM     22  H62 UNL     1      48.897   1.199  20.341  1.00  0.00     0.278 HD
ATOM     23  H61 UNL     1      49.976   0.001  19.916  1.00  0.00     0.278 HD
ATOM     24  H4  UNL     1      46.176  -0.351  18.742  1.00  0.00     0.165 HD
ENDBRANCH   9  14
BRANCH  10  25
HETATM   25  N7  UNL     1      46.335   2.481  18.136  1.00  0.00    -0.351 N 
HETATM   26  C7  UNL     1      45.973   2.645  16.675  1.00  0.00     0.156 A 
HETATM   27  C8  UNL     1      47.255   2.774  17.124  1.00  0.00     0.050 A 
HETATM   28  C9  UNL     1      48.541   2.189  16.880  1.00  0.00     0.035 A 
HETATM   29  C10 UNL     1      48.317   3.723  17.104  1.00  0.00     0.035 A 
ENDBRANCH  10  25
TORSDOF 2
ENDMDL
