MODEL 1
REMARK VINA RESULT: -7.969965615      0.000      0.000
REMARK  5 active torsions:
REMARK  status: ('A' for Active; 'I' for Inactive)
REMARK    1  A    between atoms: O1_2  and  C2_3 
REMARK    2  A    between atoms: C5_6  and  C6_7 
REMARK    3  A    between atoms: C7_12  and  C8_13 
REMARK    4  A    between atoms: N3_16  and  C9_17 
REMARK    5  A    between atoms: C17_27  and  O2_28 
ROOT
HETATM    1  C9  UNL     1      27.099  -2.873  -3.469  1.00  0.00     0.081 A 
HETATM    2  C10 UNL     1      25.857  -3.497  -3.364  1.00  0.00     0.035 A 
HETATM    3  C11 UNL     1      25.735  -4.859  -3.188  1.00  0.00     0.025 A 
HETATM    4  C12 UNL     1      26.856  -5.669  -3.109  1.00  0.00     0.047 A 
HETATM    5  C13 UNL     1      26.735  -7.087  -2.926  1.00  0.00     0.099 C 
HETATM    6  N4  UNL     1      26.635  -8.231  -2.774  1.00  0.00    -0.191 NA
HETATM    7  C14 UNL     1      28.095  -5.074  -3.211  1.00  0.00     0.067 A 
HETATM    8  C15 UNL     1      28.212  -3.718  -3.386  1.00  0.00     0.145 A 
HETATM    9  F3  UNL     1      29.472  -3.218  -3.481  1.00  0.00    -0.204 F 
ENDROOT
BRANCH   1  10
HETATM   10  N3  UNL     1      27.247  -1.468  -3.605  1.00  0.00    -0.276 N 
HETATM   11  C6  UNL     1      27.014  -0.523  -2.702  1.00  0.00     0.139 A 
HETATM   12  N1  UNL     1      27.297   0.648  -3.385  1.00  0.00    -0.283 N 
HETATM   13  N2  UNL     1      27.671   0.394  -4.608  1.00  0.00    -0.282 N 
ATOM     14  H1  UNL     1      27.223   1.583  -2.985  1.00  0.00     0.188 HD
HETATM   15  C7  UNL     1      27.658  -0.924  -4.803  1.00  0.00     0.171 A 
ATOM     16  H2  UNL     1      27.932   1.093  -5.305  1.00  0.00     0.188 HD
BRANCH  11  17
HETATM   17  C5  UNL     1      26.553  -0.550  -1.329  1.00  0.00     0.013 A 
HETATM   18  C4  UNL     1      25.296  -0.819  -0.922  1.00  0.00     0.018 A 
HETATM   19  C3  UNL     1      24.931  -0.789   0.442  1.00  0.00     0.040 A 
HETATM   20  C2  UNL     1      25.859  -0.483   1.409  1.00  0.00     0.101 A 
HETATM   21  C17 UNL     1      27.136  -0.210   1.017  1.00  0.00     0.102 A 
HETATM   22  C16 UNL     1      27.481  -0.243  -0.335  1.00  0.00     0.055 A 
BRANCH  20  23
HETATM   23  O1  UNL     1      25.557  -0.440   2.757  1.00  0.00    -0.353 OA
HETATM   24  C1  UNL     1      25.410  -1.559   3.583  1.00  0.00     0.210 C 
ENDBRANCH  20  23
BRANCH  21  25
HETATM   25  O2  UNL     1      28.116   0.104   1.946  1.00  0.00    -0.353 OA
HETATM   26  C18 UNL     1      28.478   1.445   2.202  1.00  0.00     0.210 C 
ENDBRANCH  21  25
ENDBRANCH  11  17
BRANCH  15  27
HETATM   27  C8  UNL     1      28.006  -1.688  -6.034  1.00  0.00     0.422 C 
HETATM   28  F1  UNL     1      28.127  -0.892  -7.131  1.00  0.00    -0.206 F 
HETATM   29  F2  UNL     1      27.154  -2.755  -6.194  1.00  0.00    -0.206 F 
ENDBRANCH  15  27
ENDBRANCH   1  10
TORSDOF 5
ENDMDL
MODEL 2
REMARK VINA RESULT: -7.782414653      0.765      1.771
REMARK  5 active torsions:
REMARK  status: ('A' for Active; 'I' for Inactive)
REMARK    1  A    between atoms: O1_2  and  C2_3 
REMARK    2  A    between atoms: C5_6  and  C6_7 
REMARK    3  A    between atoms: C7_12  and  C8_13 
REMARK    4  A    between atoms: N3_16  and  C9_17 
REMARK    5  A    between atoms: C17_27  and  O2_28 
ROOT
HETATM    1  C9  UNL     1      27.150  -2.778  -3.487  1.00  0.00     0.081 A 
HETATM    2  C10 UNL     1      25.895  -3.364  -3.327  1.00  0.00     0.035 A 
HETATM    3  C11 UNL     1      25.743  -4.716  -3.109  1.00  0.00     0.025 A 
HETATM    4  C12 UNL     1      26.844  -5.554  -3.039  1.00  0.00     0.047 A 
HETATM    5  C13 UNL     1      26.691  -6.963  -2.811  1.00  0.00     0.099 C 
HETATM    6  N4  UNL     1      26.565  -8.099  -2.622  1.00  0.00    -0.191 NA
HETATM    7  C14 UNL     1      28.095  -4.997  -3.195  1.00  0.00     0.067 A 
HETATM    8  C15 UNL     1      28.243  -3.649  -3.413  1.00  0.00     0.145 A 
HETATM    9  F3  UNL     1      29.512  -3.187  -3.559  1.00  0.00    -0.204 F 
ENDROOT
BRANCH   1  10
HETATM   10  N3  UNL     1      27.331  -1.381  -3.669  1.00  0.00    -0.276 N 
HETATM   11  C6  UNL     1      27.178  -0.407  -2.779  1.00  0.00     0.139 A 
HETATM   12  N1  UNL     1      27.456   0.737  -3.508  1.00  0.00    -0.283 N 
HETATM   13  N2  UNL     1      27.752   0.442  -4.744  1.00  0.00    -0.282 N 
ATOM     14  H1  UNL     1      27.432   1.684  -3.129  1.00  0.00     0.188 HD
HETATM   15  C7  UNL     1      27.689  -0.879  -4.902  1.00  0.00     0.171 A 
ATOM     16  H2  UNL     1      27.992   1.114  -5.472  1.00  0.00     0.188 HD
BRANCH  11  17
HETATM   17  C5  UNL     1      26.797  -0.386  -1.382  1.00  0.00     0.013 A 
HETATM   18  C4  UNL     1      27.627  -0.177  -0.339  1.00  0.00     0.018 A 
HETATM   19  C3  UNL     1      27.168  -0.207   0.996  1.00  0.00     0.040 A 
HETATM   20  C2  UNL     1      25.845  -0.452   1.277  1.00  0.00     0.101 A 
HETATM   21  C17 UNL     1      24.990  -0.665   0.236  1.00  0.00     0.102 A 
HETATM   22  C16 UNL     1      25.460  -0.632  -1.079  1.00  0.00     0.055 A 
BRANCH  20  23
HETATM   23  O1  UNL     1      25.342  -0.492   2.563  1.00  0.00    -0.353 OA
HETATM   24  C1  UNL     1      25.456  -1.579   3.437  1.00  0.00     0.210 C 
ENDBRANCH  20  23
BRANCH  21  25
HETATM   25  O2  UNL     1      23.645  -0.915   0.456  1.00  0.00    -0.353 OA
HETATM   26  C18 UNL     1      22.683   0.114   0.346  1.00  0.00     0.210 C 
ENDBRANCH  21  25
ENDBRANCH  11  17
BRANCH  15  27
HETATM   27  C8  UNL     1      27.943  -1.685  -6.131  1.00  0.00     0.422 C 
HETATM   28  F1  UNL     1      28.013  -0.921  -7.255  1.00  0.00    -0.206 F 
HETATM   29  F2  UNL     1      27.059  -2.734  -6.208  1.00  0.00    -0.206 F 
ENDBRANCH  15  27
ENDBRANCH   1  10
TORSDOF 5
ENDMDL
MODEL 3
REMARK VINA RESULT: -7.513002815      3.383      6.338
REMARK  5 active torsions:
REMARK  status: ('A' for Active; 'I' for Inactive)
REMARK    1  A    between atoms: O1_2  and  C2_3 
REMARK    2  A    between atoms: C5_6  and  C6_7 
REMARK    3  A    between atoms: C7_12  and  C8_13 
REMARK    4  A    between atoms: N3_16  and  C9_17 
REMARK    5  A    between atoms: C17_27  and  O2_28 
ROOT
HETATM    1  C9  UNL     1      27.294  -1.474  -3.407  1.00  0.00     0.081 A 
HETATM    2  C10 UNL     1      26.334  -0.525  -3.060  1.00  0.00     0.035 A 
HETATM    3  C11 UNL     1      26.274   0.029  -1.799  1.00  0.00     0.025 A 
HETATM    4  C12 UNL     1      27.179  -0.341  -0.817  1.00  0.00     0.047 A 
HETATM    5  C13 UNL     1      27.122   0.233   0.497  1.00  0.00     0.099 C 
HETATM    6  N4  UNL     1      27.077   0.701   1.556  1.00  0.00    -0.191 NA
HETATM    7  C14 UNL     1      28.138  -1.278  -1.136  1.00  0.00     0.067 A 
HETATM    8  C15 UNL     1      28.193  -1.827  -2.393  1.00  0.00     0.145 A 
HETATM    9  F3  UNL     1      29.169  -2.746  -2.618  1.00  0.00    -0.204 F 
ENDROOT
BRANCH   1  10
HETATM   10  N3  UNL     1      27.400  -2.023  -4.711  1.00  0.00    -0.276 N 
HETATM   11  C6  UNL     1      27.301  -3.294  -5.082  1.00  0.00     0.139 A 
HETATM   12  N1  UNL     1      27.514  -3.246  -6.450  1.00  0.00    -0.283 N 
HETATM   13  N2  UNL     1      27.724  -2.020  -6.845  1.00  0.00    -0.282 N 
ATOM     14  H1  UNL     1      27.508  -4.059  -7.065  1.00  0.00     0.188 HD
HETATM   15  C7  UNL     1      27.663  -1.207  -5.791  1.00  0.00     0.171 A 
ATOM     16  H2  UNL     1      27.905  -1.731  -7.806  1.00  0.00     0.188 HD
BRANCH  11  17
HETATM   17  C5  UNL     1      27.064  -4.526  -4.358  1.00  0.00     0.013 A 
HETATM   18  C4  UNL     1      26.602  -4.624  -3.095  1.00  0.00     0.018 A 
HETATM   19  C3  UNL     1      26.432  -5.873  -2.458  1.00  0.00     0.040 A 
HETATM   20  C2  UNL     1      26.736  -7.042  -3.115  1.00  0.00     0.101 A 
HETATM   21  C17 UNL     1      27.203  -6.963  -4.394  1.00  0.00     0.102 A 
HETATM   22  C16 UNL     1      27.365  -5.720  -5.009  1.00  0.00     0.055 A 
BRANCH  20  23
HETATM   23  O1  UNL     1      26.589  -8.290  -2.541  1.00  0.00    -0.353 OA
HETATM   24  C1  UNL     1      27.637  -9.084  -2.065  1.00  0.00     0.210 C 
ENDBRANCH  20  23
BRANCH  21  25
HETATM   25  O2  UNL     1      27.524  -8.107  -5.108  1.00  0.00    -0.353 OA
HETATM   26  C18 UNL     1      26.533  -8.837  -5.801  1.00  0.00     0.210 C 
ENDBRANCH  21  25
ENDBRANCH  11  17
BRANCH  15  27
HETATM   27  C8  UNL     1      27.837   0.273  -5.745  1.00  0.00     0.422 C 
HETATM   28  F1  UNL     1      26.911   0.935  -6.490  1.00  0.00    -0.206 F 
HETATM   29  F2  UNL     1      29.140   0.613  -6.020  1.00  0.00    -0.206 F 
ENDBRANCH  15  27
ENDBRANCH   1  10
TORSDOF 5
ENDMDL
MODEL 4
REMARK VINA RESULT: -7.480563777      4.452      7.188
REMARK  5 active torsions:
REMARK  status: ('A' for Active; 'I' for Inactive)
REMARK    1  A    between atoms: O1_2  and  C2_3 
REMARK    2  A    between atoms: C5_6  and  C6_7 
REMARK    3  A    between atoms: C7_12  and  C8_13 
REMARK    4  A    between atoms: N3_16  and  C9_17 
REMARK    5  A    between atoms: C17_27  and  O2_28 
ROOT
HETATM    1  C9  UNL     1      25.295   1.248  -1.318  1.00  0.00     0.081 A 
HETATM    2  C10 UNL     1      25.259   2.167  -2.365  1.00  0.00     0.035 A 
HETATM    3  C11 UNL     1      24.073   2.606  -2.913  1.00  0.00     0.025 A 
HETATM    4  C12 UNL     1      22.856   2.144  -2.437  1.00  0.00     0.047 A 
HETATM    5  C13 UNL     1      21.618   2.598  -3.003  1.00  0.00     0.099 C 
HETATM    6  N4  UNL     1      20.620   2.970  -3.458  1.00  0.00    -0.191 NA
HETATM    7  C14 UNL     1      22.867   1.235  -1.401  1.00  0.00     0.067 A 
HETATM    8  C15 UNL     1      24.051   0.800  -0.858  1.00  0.00     0.145 A 
HETATM    9  F3  UNL     1      23.967  -0.099   0.156  1.00  0.00    -0.204 F 
ENDROOT
BRANCH   1  10
HETATM   10  N3  UNL     1      26.504   0.818  -0.710  1.00  0.00    -0.276 N 
HETATM   11  C6  UNL     1      27.262  -0.224  -1.030  1.00  0.00     0.139 A 
HETATM   12  N1  UNL     1      28.284  -0.174  -0.095  1.00  0.00    -0.283 N 
HETATM   13  N2  UNL     1      28.124   0.836   0.715  1.00  0.00    -0.282 N 
ATOM     14  H1  UNL     1      29.056  -0.838  -0.047  1.00  0.00     0.188 HD
HETATM   15  C7  UNL     1      27.019   1.497   0.374  1.00  0.00     0.171 A 
ATOM     16  H2  UNL     1      28.746   1.081   1.486  1.00  0.00     0.188 HD
BRANCH  11  17
HETATM   17  C5  UNL     1      27.164  -1.252  -2.045  1.00  0.00     0.013 A 
HETATM   18  C4  UNL     1      26.676  -2.497  -1.864  1.00  0.00     0.018 A 
HETATM   19  C3  UNL     1      26.651  -3.446  -2.909  1.00  0.00     0.040 A 
HETATM   20  C2  UNL     1      27.128  -3.126  -4.159  1.00  0.00     0.101 A 
HETATM   21  C17 UNL     1      27.625  -1.872  -4.360  1.00  0.00     0.102 A 
HETATM   22  C16 UNL     1      27.643  -0.946  -3.317  1.00  0.00     0.055 A 
BRANCH  20  23
HETATM   23  O1  UNL     1      27.127  -4.015  -5.216  1.00  0.00    -0.353 OA
HETATM   24  C1  UNL     1      26.212  -5.059  -5.388  1.00  0.00     0.210 C 
ENDBRANCH  20  23
BRANCH  21  25
HETATM   25  O2  UNL     1      28.118  -1.491  -5.598  1.00  0.00    -0.353 OA
HETATM   26  C18 UNL     1      28.253  -0.128  -5.942  1.00  0.00     0.210 C 
ENDBRANCH  21  25
ENDBRANCH  11  17
BRANCH  15  27
HETATM   27  C8  UNL     1      26.428   2.713   1.002  1.00  0.00     0.422 C 
HETATM   28  F1  UNL     1      25.191   2.489   1.521  1.00  0.00    -0.206 F 
HETATM   29  F2  UNL     1      26.501   3.782   0.141  1.00  0.00    -0.206 F 
ENDBRANCH  15  27
ENDBRANCH   1  10
TORSDOF 5
ENDMDL
MODEL 5
REMARK VINA RESULT: -7.444301704      4.343      7.100
REMARK  5 active torsions:
REMARK  status: ('A' for Active; 'I' for Inactive)
REMARK    1  A    between atoms: O1_2  and  C2_3 
REMARK    2  A    between atoms: C5_6  and  C6_7 
REMARK    3  A    between atoms: C7_12  and  C8_13 
REMARK    4  A    between atoms: N3_16  and  C9_17 
REMARK    5  A    between atoms: C17_27  and  O2_28 
ROOT
HETATM    1  C9  UNL     1      25.509   1.515  -2.065  1.00  0.00     0.081 A 
HETATM    2  C10 UNL     1      24.228   1.567  -1.516  1.00  0.00     0.035 A 
HETATM    3  C11 UNL     1      23.144   2.028  -2.232  1.00  0.00     0.025 A 
HETATM    4  C12 UNL     1      23.288   2.462  -3.540  1.00  0.00     0.047 A 
HETATM    5  C13 UNL     1      22.163   2.942  -4.291  1.00  0.00     0.099 C 
HETATM    6  N4  UNL     1      21.252   3.324  -4.896  1.00  0.00    -0.191 NA
HETATM    7  C14 UNL     1      24.545   2.420  -4.104  1.00  0.00     0.067 A 
HETATM    8  C15 UNL     1      25.623   1.960  -3.387  1.00  0.00     0.145 A 
HETATM    9  F3  UNL     1      26.825   1.958  -4.020  1.00  0.00    -0.204 F 
ENDROOT
BRANCH   1  10
HETATM   10  N3  UNL     1      26.629   1.002  -1.360  1.00  0.00    -0.276 N 
HETATM   11  C6  UNL     1      27.233  -0.170  -1.511  1.00  0.00     0.139 A 
HETATM   12  N1  UNL     1      28.232  -0.142  -0.552  1.00  0.00    -0.283 N 
HETATM   13  N2  UNL     1      28.206   0.981   0.112  1.00  0.00    -0.282 N 
ATOM     14  H1  UNL     1      28.898  -0.896  -0.388  1.00  0.00     0.188 HD
HETATM   15  C7  UNL     1      27.217   1.740  -0.354  1.00  0.00     0.171 A 
ATOM     16  H2  UNL     1      28.842   1.236   0.868  1.00  0.00     0.188 HD
BRANCH  11  17
HETATM   17  C5  UNL     1      27.005  -1.302  -2.387  1.00  0.00     0.013 A 
HETATM   18  C4  UNL     1      26.331  -2.425  -2.067  1.00  0.00     0.018 A 
HETATM   19  C3  UNL     1      26.188  -3.493  -2.979  1.00  0.00     0.040 A 
HETATM   20  C2  UNL     1      26.738  -3.419  -4.238  1.00  0.00     0.101 A 
HETATM   21  C17 UNL     1      27.423  -2.291  -4.579  1.00  0.00     0.102 A 
HETATM   22  C16 UNL     1      27.555  -1.243  -3.666  1.00  0.00     0.055 A 
BRANCH  20  23
HETATM   23  O1  UNL     1      26.628  -4.434  -5.169  1.00  0.00    -0.353 OA
HETATM   24  C1  UNL     1      26.508  -5.794  -4.866  1.00  0.00     0.210 C 
ENDBRANCH  20  23
BRANCH  21  25
HETATM   25  O2  UNL     1      27.998  -2.157  -5.833  1.00  0.00    -0.353 OA
HETATM   26  C18 UNL     1      27.778  -1.004  -6.618  1.00  0.00     0.210 C 
ENDBRANCH  21  25
ENDBRANCH  11  17
BRANCH  15  27
HETATM   27  C8  UNL     1      26.798   3.101   0.087  1.00  0.00     0.422 C 
HETATM   28  F1  UNL     1      27.855   3.920   0.343  1.00  0.00    -0.206 F 
HETATM   29  F2  UNL     1      25.883   3.015   1.108  1.00  0.00    -0.206 F 
ENDBRANCH  15  27
ENDBRANCH   1  10
TORSDOF 5
ENDMDL
