MODEL 1
REMARK VINA RESULT: -7.256812628      0.000      0.000
REMARK  7 active torsions:
REMARK  status: ('A' for Active; 'I' for Inactive)
REMARK       I    between atoms: C2_2  and  N1_4 
REMARK    1  A    between atoms: N1_4  and  C4_6 
REMARK    2  A    between atoms: C4_6  and  C5_7 
REMARK    3  A    between atoms: C5_7  and  C6_8 
REMARK    4  A    between atoms: C6_8  and  N2_9 
REMARK    5  A    between atoms: N2_9  and  S1_11 
REMARK    6  A    between atoms: S1_11  and  N3_14 
REMARK    7  A    between atoms: N3_14  and  C7_16 
ROOT
HETATM    1  S1  UNL     1      12.592 -14.309  21.213  1.00  0.00     0.320 S 
HETATM    2  O2  UNL     1      12.465 -14.084  19.681  1.00  0.00    -0.182 OA
HETATM    3  O3  UNL     1      12.023 -15.692  21.397  1.00  0.00    -0.182 OA
ENDROOT
BRANCH   1   4
HETATM    4  N2  UNL     1      14.316 -14.333  21.456  1.00  0.00    -0.302 N 
ATOM      5  H2  UNL     1      14.849 -13.549  21.834  1.00  0.00     0.173 HD
BRANCH   4   6
HETATM    6  C6  UNL     1      14.909 -15.601  21.058  1.00  0.00     0.135 C 
BRANCH   6   7
HETATM    7  C5  UNL     1      15.833 -15.268  19.913  1.00  0.00     0.040 C 
BRANCH   7   8
HETATM    8  C4  UNL     1      16.105 -13.819  19.722  1.00  0.00     0.127 C 
BRANCH   8   9
HETATM    9  N1  UNL     1      15.755 -13.433  18.378  1.00  0.00    -0.357 N 
HETATM   10  C2  UNL     1      16.010 -12.092  17.979  1.00  0.00     0.215 C 
HETATM   11  C1  UNL     1      15.675 -11.659  16.603  1.00  0.00     0.117 C 
HETATM   12  O1  UNL     1      16.521 -11.249  18.774  1.00  0.00    -0.274 OA
HETATM   13  C3  UNL     1      15.167 -14.354  17.424  1.00  0.00     0.152 C 
ENDBRANCH   8   9
ENDBRANCH   7   8
ENDBRANCH   6   7
ENDBRANCH   4   6
ENDBRANCH   1   4
BRANCH   1  14
HETATM   14  N3  UNL     1      11.931 -13.062  21.988  1.00  0.00    -0.253 N 
ATOM     15  H3  UNL     1      10.972 -13.373  22.141  1.00  0.00     0.182 HD
BRANCH  14  16
HETATM   16  C7  UNL     1      11.941 -11.956  22.493  1.00  0.00     0.121 A 
HETATM   17  N4  UNL     1      11.171 -11.745  23.632  1.00  0.00    -0.350 N 
HETATM   18  C8  UNL     1      11.118 -10.571  24.254  1.00  0.00     0.108 A 
ATOM     19  H4  UNL     1      10.625 -12.522  24.006  1.00  0.00     0.166 HD
HETATM   20  C9  UNL     1      11.816  -9.464  23.830  1.00  0.00     0.027 A 
HETATM   21 BR1  UNL     1      11.732  -7.796  24.726  1.00  0.00    -0.050 Br
HETATM   22  C10 UNL     1      12.591  -9.613  22.713  1.00  0.00     0.031 A 
HETATM   23  C11 UNL     1      12.642 -10.852  22.063  1.00  0.00    -0.016 A 
HETATM   24  C12 UNL     1      13.498 -10.961  20.856  1.00  0.00     0.052 C 
ENDBRANCH  14  16
ENDBRANCH   1  14
TORSDOF 7
ENDMDL
MODEL 2
REMARK VINA RESULT: -7.249340451      1.829      2.246
REMARK  7 active torsions:
REMARK  status: ('A' for Active; 'I' for Inactive)
REMARK       I    between atoms: C2_2  and  N1_4 
REMARK    1  A    between atoms: N1_4  and  C4_6 
REMARK    2  A    between atoms: C4_6  and  C5_7 
REMARK    3  A    between atoms: C5_7  and  C6_8 
REMARK    4  A    between atoms: C6_8  and  N2_9 
REMARK    5  A    between atoms: N2_9  and  S1_11 
REMARK    6  A    between atoms: S1_11  and  N3_14 
REMARK    7  A    between atoms: N3_14  and  C7_16 
ROOT
HETATM    1  S1  UNL     1      12.582 -14.308  21.176  1.00  0.00     0.320 S 
HETATM    2  O2  UNL     1      12.461 -14.136  19.637  1.00  0.00    -0.182 OA
HETATM    3  O3  UNL     1      12.025 -15.690  21.404  1.00  0.00    -0.182 OA
ENDROOT
BRANCH   1   4
HETATM    4  N2  UNL     1      14.304 -14.306  21.431  1.00  0.00    -0.302 N 
ATOM      5  H2  UNL     1      14.745 -14.380  22.348  1.00  0.00     0.173 HD
BRANCH   4   6
HETATM    6  C6  UNL     1      15.042 -14.186  20.182  1.00  0.00     0.135 C 
BRANCH   6   7
HETATM    7  C5  UNL     1      16.429 -14.694  20.487  1.00  0.00     0.040 C 
BRANCH   7   8
HETATM    8  C4  UNL     1      17.203 -13.875  21.457  1.00  0.00     0.127 C 
BRANCH   8   9
HETATM    9  N1  UNL     1      18.546 -13.685  20.970  1.00  0.00    -0.357 N 
HETATM   10  C2  UNL     1      18.871 -12.437  20.372  1.00  0.00     0.215 C 
HETATM   11  C1  UNL     1      20.243 -12.198  19.870  1.00  0.00     0.117 C 
HETATM   12  O1  UNL     1      18.011 -11.514  20.255  1.00  0.00    -0.274 OA
HETATM   13  C3  UNL     1      19.572 -14.706  21.077  1.00  0.00     0.152 C 
ENDBRANCH   8   9
ENDBRANCH   7   8
ENDBRANCH   6   7
ENDBRANCH   4   6
ENDBRANCH   1   4
BRANCH   1  14
HETATM   14  N3  UNL     1      11.904 -13.042  21.905  1.00  0.00    -0.253 N 
ATOM     15  H3  UNL     1      10.920 -13.308  21.955  1.00  0.00     0.182 HD
BRANCH  14  16
HETATM   16  C7  UNL     1      11.913 -11.945  22.429  1.00  0.00     0.121 A 
HETATM   17  N4  UNL     1      11.188 -11.770  23.604  1.00  0.00    -0.350 N 
HETATM   18  C8  UNL     1      11.139 -10.608  24.248  1.00  0.00     0.108 A 
ATOM     19  H4  UNL     1      10.674 -12.564  23.986  1.00  0.00     0.166 HD
HETATM   20  C9  UNL     1      11.797  -9.480  23.817  1.00  0.00     0.027 A 
HETATM   21 BR1  UNL     1      11.718  -7.830  24.746  1.00  0.00    -0.050 Br
HETATM   22  C10 UNL     1      12.527  -9.594  22.665  1.00  0.00     0.031 A 
HETATM   23  C11 UNL     1      12.574 -10.820  21.990  1.00  0.00    -0.016 A 
HETATM   24  C12 UNL     1      13.380 -10.891  20.747  1.00  0.00     0.052 C 
ENDBRANCH  14  16
ENDBRANCH   1  14
TORSDOF 7
ENDMDL
MODEL 3
REMARK VINA RESULT: -7.105366011      3.638      4.899
REMARK  7 active torsions:
REMARK  status: ('A' for Active; 'I' for Inactive)
REMARK       I    between atoms: C2_2  and  N1_4 
REMARK    1  A    between atoms: N1_4  and  C4_6 
REMARK    2  A    between atoms: C4_6  and  C5_7 
REMARK    3  A    between atoms: C5_7  and  C6_8 
REMARK    4  A    between atoms: C6_8  and  N2_9 
REMARK    5  A    between atoms: N2_9  and  S1_11 
REMARK    6  A    between atoms: S1_11  and  N3_14 
REMARK    7  A    between atoms: N3_14  and  C7_16 
ROOT
HETATM    1  S1  UNL     1      16.073 -12.093  18.800  1.00  0.00     0.320 S 
HETATM    2  O2  UNL     1      16.554 -11.153  17.660  1.00  0.00    -0.182 OA
HETATM    3  O3  UNL     1      15.996 -13.435  18.119  1.00  0.00    -0.182 OA
ENDROOT
BRANCH   1   4
HETATM    4  N2  UNL     1      17.410 -12.061  19.915  1.00  0.00    -0.302 N 
ATOM      5  H2  UNL     1      17.330 -11.778  20.892  1.00  0.00     0.173 HD
BRANCH   4   6
HETATM    6  C6  UNL     1      18.654 -12.487  19.291  1.00  0.00     0.135 C 
BRANCH   6   7
HETATM    7  C5  UNL     1      19.657 -12.568  20.414  1.00  0.00     0.040 C 
BRANCH   7   8
HETATM    8  C4  UNL     1      19.789 -13.906  21.048  1.00  0.00     0.127 C 
BRANCH   8   9
HETATM    9  N1  UNL     1      19.422 -13.822  22.440  1.00  0.00    -0.357 N 
HETATM   10  C2  UNL     1      20.460 -13.645  23.396  1.00  0.00     0.215 C 
HETATM   11  C1  UNL     1      20.123 -13.541  24.834  1.00  0.00     0.117 C 
HETATM   12  O1  UNL     1      21.676 -13.572  23.050  1.00  0.00    -0.274 OA
HETATM   13  C3  UNL     1      18.047 -13.899  22.896  1.00  0.00     0.152 C 
ENDBRANCH   8   9
ENDBRANCH   7   8
ENDBRANCH   6   7
ENDBRANCH   4   6
ENDBRANCH   1   4
BRANCH   1  14
HETATM   14  N3  UNL     1      14.756 -11.465  19.483  1.00  0.00    -0.253 N 
ATOM     15  H3  UNL     1      14.270 -11.042  18.691  1.00  0.00     0.182 HD
BRANCH  14  16
HETATM   16  C7  UNL     1      14.019 -11.215  20.417  1.00  0.00     0.121 A 
HETATM   17  N4  UNL     1      14.180 -10.001  21.076  1.00  0.00    -0.350 N 
HETATM   18  C8  UNL     1      13.422  -9.640  22.107  1.00  0.00     0.108 A 
ATOM     19  H4  UNL     1      14.908  -9.362  20.757  1.00  0.00     0.166 HD
HETATM   20  C9  UNL     1      12.415 -10.428  22.612  1.00  0.00     0.027 A 
HETATM   21 BR1  UNL     1      11.341  -9.901  24.082  1.00  0.00    -0.050 Br
HETATM   22  C10 UNL     1      12.210 -11.635  22.001  1.00  0.00     0.031 A 
HETATM   23  C11 UNL     1      13.013 -12.010  20.916  1.00  0.00    -0.016 A 
HETATM   24  C12 UNL     1      12.750 -13.328  20.289  1.00  0.00     0.052 C 
ENDBRANCH  14  16
ENDBRANCH   1  14
TORSDOF 7
ENDMDL
MODEL 4
REMARK VINA RESULT: -7.035037230      3.727      6.853
REMARK  7 active torsions:
REMARK  status: ('A' for Active; 'I' for Inactive)
REMARK       I    between atoms: C2_2  and  N1_4 
REMARK    1  A    between atoms: N1_4  and  C4_6 
REMARK    2  A    between atoms: C4_6  and  C5_7 
REMARK    3  A    between atoms: C5_7  and  C6_8 
REMARK    4  A    between atoms: C6_8  and  N2_9 
REMARK    5  A    between atoms: N2_9  and  S1_11 
REMARK    6  A    between atoms: S1_11  and  N3_14 
REMARK    7  A    between atoms: N3_14  and  C7_16 
ROOT
HETATM    1  S1  UNL     1      16.106 -12.131  18.420  1.00  0.00     0.320 S 
HETATM    2  O2  UNL     1      15.405 -13.132  17.462  1.00  0.00    -0.182 OA
HETATM    3  O3  UNL     1      16.508 -11.009  17.499  1.00  0.00    -0.182 OA
ENDROOT
BRANCH   1   4
HETATM    4  N2  UNL     1      14.807 -11.619  19.460  1.00  0.00    -0.302 N 
ATOM      5  H2  UNL     1      14.595 -10.643  19.669  1.00  0.00     0.173 HD
BRANCH   4   6
HETATM    6  C6  UNL     1      14.058 -12.746  19.997  1.00  0.00     0.135 C 
BRANCH   6   7
HETATM    7  C5  UNL     1      13.855 -12.431  21.458  1.00  0.00     0.040 C 
BRANCH   7   8
HETATM    8  C4  UNL     1      12.456 -12.109  21.846  1.00  0.00     0.127 C 
BRANCH   8   9
HETATM    9  N1  UNL     1      12.413 -10.814  22.477  1.00  0.00    -0.357 N 
HETATM   10  C2  UNL     1      11.573 -10.650  23.614  1.00  0.00     0.215 C 
HETATM   11  C1  UNL     1      11.511  -9.339  24.298  1.00  0.00     0.117 C 
HETATM   12  O1  UNL     1      10.870 -11.604  24.061  1.00  0.00    -0.274 OA
HETATM   13  C3  UNL     1      13.196  -9.685  22.010  1.00  0.00     0.152 C 
ENDBRANCH   8   9
ENDBRANCH   7   8
ENDBRANCH   6   7
ENDBRANCH   4   6
ENDBRANCH   1   4
BRANCH   1  14
HETATM   14  N3  UNL     1      17.232 -12.911  19.269  1.00  0.00    -0.253 N 
ATOM     15  H3  UNL     1      17.382 -13.758  18.721  1.00  0.00     0.182 HD
BRANCH  14  16
HETATM   16  C7  UNL     1      18.001 -13.051  20.200  1.00  0.00     0.121 A 
HETATM   17  N4  UNL     1      17.482 -13.440  21.431  1.00  0.00    -0.350 N 
HETATM   18  C8  UNL     1      18.245 -13.619  22.505  1.00  0.00     0.108 A 
ATOM     19  H4  UNL     1      16.478 -13.594  21.513  1.00  0.00     0.166 HD
HETATM   20  C9  UNL     1      19.608 -13.439  22.497  1.00  0.00     0.027 A 
HETATM   21 BR1  UNL     1      20.684 -13.697  24.036  1.00  0.00    -0.050 Br
HETATM   22  C10 UNL     1      20.174 -13.056  21.312  1.00  0.00     0.031 A 
HETATM   23  C11 UNL     1      19.365 -12.868  20.184  1.00  0.00    -0.016 A 
HETATM   24  C12 UNL     1      20.028 -12.454  18.923  1.00  0.00     0.052 C 
ENDBRANCH  14  16
ENDBRANCH   1  14
TORSDOF 7
ENDMDL
MODEL 5
REMARK VINA RESULT: -6.978472048      2.050      2.763
REMARK  7 active torsions:
REMARK  status: ('A' for Active; 'I' for Inactive)
REMARK       I    between atoms: C2_2  and  N1_4 
REMARK    1  A    between atoms: N1_4  and  C4_6 
REMARK    2  A    between atoms: C4_6  and  C5_7 
REMARK    3  A    between atoms: C5_7  and  C6_8 
REMARK    4  A    between atoms: C6_8  and  N2_9 
REMARK    5  A    between atoms: N2_9  and  S1_11 
REMARK    6  A    between atoms: S1_11  and  N3_14 
REMARK    7  A    between atoms: N3_14  and  C7_16 
ROOT
HETATM    1  S1  UNL     1      12.584 -14.275  21.165  1.00  0.00     0.320 S 
HETATM    2  O2  UNL     1      12.458 -14.119  19.624  1.00  0.00    -0.182 OA
HETATM    3  O3  UNL     1      12.062 -15.668  21.404  1.00  0.00    -0.182 OA
ENDROOT
BRANCH   1   4
HETATM    4  N2  UNL     1      14.306 -14.227  21.417  1.00  0.00    -0.302 N 
ATOM      5  H2  UNL     1      14.745 -14.013  22.312  1.00  0.00     0.173 HD
BRANCH   4   6
HETATM    6  C6  UNL     1      15.046 -14.528  20.200  1.00  0.00     0.135 C 
BRANCH   6   7
HETATM    7  C5  UNL     1      15.851 -13.286  19.905  1.00  0.00     0.040 C 
BRANCH   7   8
HETATM    8  C4  UNL     1      16.206 -12.466  21.093  1.00  0.00     0.127 C 
BRANCH   8   9
HETATM    9  N1  UNL     1      17.612 -12.606  21.377  1.00  0.00    -0.357 N 
HETATM   10  C2  UNL     1      18.002 -13.516  22.398  1.00  0.00     0.215 C 
HETATM   11  C1  UNL     1      19.437 -13.698  22.710  1.00  0.00     0.117 C 
HETATM   12  O1  UNL     1      17.147 -14.183  23.053  1.00  0.00    -0.274 OA
HETATM   13  C3  UNL     1      18.636 -11.869  20.660  1.00  0.00     0.152 C 
ENDBRANCH   8   9
ENDBRANCH   7   8
ENDBRANCH   6   7
ENDBRANCH   4   6
ENDBRANCH   1   4
BRANCH   1  14
HETATM   14  N3  UNL     1      11.875 -13.020  21.884  1.00  0.00    -0.253 N 
ATOM     15  H3  UNL     1      10.892 -13.295  21.902  1.00  0.00     0.182 HD
BRANCH  14  16
HETATM   16  C7  UNL     1      11.860 -11.928  22.417  1.00  0.00     0.121 A 
HETATM   17  N4  UNL     1      11.230 -11.806  23.652  1.00  0.00    -0.350 N 
HETATM   18  C8  UNL     1      11.163 -10.654  24.311  1.00  0.00     0.108 A 
ATOM     19  H4  UNL     1      10.803 -12.633  24.068  1.00  0.00     0.166 HD
HETATM   20  C9  UNL     1      11.708  -9.483  23.836  1.00  0.00     0.027 A 
HETATM   21 BR1  UNL     1      11.606  -7.847  24.787  1.00  0.00    -0.050 Br
HETATM   22  C10 UNL     1      12.341  -9.544  22.625  1.00  0.00     0.031 A 
HETATM   23  C11 UNL     1      12.407 -10.760  21.935  1.00  0.00    -0.016 A 
HETATM   24  C12 UNL     1      13.105 -10.772  20.626  1.00  0.00     0.052 C 
ENDBRANCH  14  16
ENDBRANCH   1  14
TORSDOF 7
ENDMDL
