MODEL 1
REMARK VINA RESULT: -6.197867528      0.000      0.000
REMARK  7 active torsions:
REMARK  status: ('A' for Active; 'I' for Inactive)
REMARK       I    between atoms: C2_2  and  N1_4 
REMARK    1  A    between atoms: N1_4  and  C3_6 
REMARK    2  A    between atoms: C3_6  and  C4_7 
REMARK    3  A    between atoms: C3_6  and  C12_17 
REMARK    4  A    between atoms: C4_7  and  C5_8 
REMARK    5  A    between atoms: C5_8  and  C7_10 
REMARK    6  A    between atoms: C12_17  and  N2_18 
REMARK    7  A    between atoms: C12_17  and  C13_22 
ROOT
HETATM    1  C3  UNL     1      14.526 -27.323  -8.482  1.00  0.00     0.141 C 
ENDROOT
BRANCH   1   2
HETATM    2  N1  UNL     1      15.783 -26.844  -8.913  1.00  0.00    -0.351 N 
HETATM    3  C2  UNL     1      16.850 -27.147  -9.707  1.00  0.00     0.214 C 
HETATM    4  C1  UNL     1      18.051 -26.203  -9.713  1.00  0.00     0.117 C 
HETATM    5  O1  UNL     1      17.046 -28.141 -10.481  1.00  0.00    -0.274 OA
ATOM      6  H1  UNL     1      15.956 -25.943  -8.468  1.00  0.00     0.163 HD
ENDBRANCH   1   2
BRANCH   1   7
HETATM    7  C4  UNL     1      14.070 -26.960  -7.140  1.00  0.00     0.005 C 
BRANCH   7   8
HETATM    8  C5  UNL     1      14.335 -27.714  -5.927  1.00  0.00    -0.055 C 
HETATM    9  C6  UNL     1      15.657 -27.442  -5.259  1.00  0.00     0.046 C 
BRANCH   8  10
HETATM   10  C7  UNL     1      13.286 -27.878  -4.888  1.00  0.00     0.177 C 
HETATM   11  C8  UNL     1      12.015 -27.127  -5.394  1.00  0.00     0.208 C 
HETATM   12  O2  UNL     1      11.362 -26.934  -4.206  1.00  0.00    -0.353 OA
HETATM   13  C9  UNL     1      12.232 -27.158  -3.163  1.00  0.00     0.157 C 
HETATM   14  C10 UNL     1      12.029 -28.488  -2.491  1.00  0.00     0.078 C 
HETATM   15  C11 UNL     1      12.047 -25.999  -2.206  1.00  0.00     0.078 C 
HETATM   16  O3  UNL     1      13.518 -27.159  -3.710  1.00  0.00    -0.344 OA
ENDBRANCH   8  10
ENDBRANCH   7   8
ENDBRANCH   1   7
BRANCH   1  17
HETATM   17  C12 UNL     1      13.462 -27.049  -9.561  1.00  0.00     0.233 C 
BRANCH  17  18
HETATM   18  N2  UNL     1      13.202 -28.294 -10.223  1.00  0.00    -0.070 N 
ATOM     19  H23 UNL     1      13.830 -28.470 -11.006  1.00  0.00     0.275 HD
ATOM     20  H22 UNL     1      13.459 -29.106  -9.663  1.00  0.00     0.275 HD
ATOM     21  H21 UNL     1      12.218 -28.290 -10.492  1.00  0.00     0.275 HD
ENDBRANCH  17  18
BRANCH  17  22
HETATM   22  C13 UNL     1      12.242 -26.422  -9.054  1.00  0.00     0.022 C 
HETATM   23  C14 UNL     1      11.701 -25.349  -9.610  1.00  0.00    -0.016 C 
HETATM   24  C15 UNL     1      12.286 -24.708 -10.792  1.00  0.00     0.056 C 
HETATM   25  S1  UNL     1      10.192 -24.625  -8.909  1.00  0.00    -0.058 SA
ENDBRANCH  17  22
ENDBRANCH   1  17
TORSDOF 7
ENDMDL
MODEL 2
REMARK VINA RESULT: -6.181991730      0.815      1.324
REMARK  7 active torsions:
REMARK  status: ('A' for Active; 'I' for Inactive)
REMARK       I    between atoms: C2_2  and  N1_4 
REMARK    1  A    between atoms: N1_4  and  C3_6 
REMARK    2  A    between atoms: C3_6  and  C4_7 
REMARK    3  A    between atoms: C3_6  and  C12_17 
REMARK    4  A    between atoms: C4_7  and  C5_8 
REMARK    5  A    between atoms: C5_8  and  C7_10 
REMARK    6  A    between atoms: C12_17  and  N2_18 
REMARK    7  A    between atoms: C12_17  and  C13_22 
ROOT
HETATM    1  C3  UNL     1      14.509 -27.355  -8.393  1.00  0.00     0.141 C 
ENDROOT
BRANCH   1   2
HETATM    2  N1  UNL     1      15.775 -26.855  -8.771  1.00  0.00    -0.351 N 
HETATM    3  C2  UNL     1      16.847 -27.101  -9.577  1.00  0.00     0.214 C 
HETATM    4  C1  UNL     1      18.057 -26.173  -9.492  1.00  0.00     0.117 C 
HETATM    5  O1  UNL     1      17.042 -28.030 -10.428  1.00  0.00    -0.274 OA
ATOM      6  H1  UNL     1      15.952 -25.995  -8.251  1.00  0.00     0.163 HD
ENDBRANCH   1   2
BRANCH   1   7
HETATM    7  C4  UNL     1      14.013 -27.042  -7.052  1.00  0.00     0.005 C 
BRANCH   7   8
HETATM    8  C5  UNL     1      13.570 -28.017  -6.069  1.00  0.00    -0.055 C 
HETATM    9  C6  UNL     1      14.274 -29.348  -6.101  1.00  0.00     0.046 C 
BRANCH   8  10
HETATM   10  C7  UNL     1      13.336 -27.620  -4.657  1.00  0.00     0.177 C 
HETATM   11  C8  UNL     1      13.617 -28.875  -3.773  1.00  0.00     0.208 C 
HETATM   12  O2  UNL     1      12.913 -28.537  -2.647  1.00  0.00    -0.353 OA
HETATM   13  C9  UNL     1      12.062 -27.494  -2.935  1.00  0.00     0.157 C 
HETATM   14  C10 UNL     1      12.552 -26.165  -2.428  1.00  0.00     0.078 C 
HETATM   15  C11 UNL     1      10.720 -27.872  -2.344  1.00  0.00     0.078 C 
HETATM   16  O3  UNL     1      11.993 -27.409  -4.329  1.00  0.00    -0.344 OA
ENDBRANCH   8  10
ENDBRANCH   7   8
ENDBRANCH   1   7
BRANCH   1  17
HETATM   17  C12 UNL     1      13.475 -27.047  -9.491  1.00  0.00     0.233 C 
BRANCH  17  18
HETATM   18  N2  UNL     1      13.204 -28.279 -10.173  1.00  0.00    -0.070 N 
ATOM     19  H23 UNL     1      13.104 -28.164 -11.181  1.00  0.00     0.275 HD
ATOM     20  H22 UNL     1      14.004 -28.910 -10.192  1.00  0.00     0.275 HD
ATOM     21  H21 UNL     1      12.380 -28.690  -9.734  1.00  0.00     0.275 HD
ENDBRANCH  17  18
BRANCH  17  22
HETATM   22  C13 UNL     1      12.256 -26.401  -9.003  1.00  0.00     0.022 C 
HETATM   23  C14 UNL     1      11.716 -25.347  -9.593  1.00  0.00    -0.016 C 
HETATM   24  C15 UNL     1      12.299 -24.746 -10.797  1.00  0.00     0.056 C 
HETATM   25  S1  UNL     1      10.209 -24.598  -8.914  1.00  0.00    -0.058 SA
ENDBRANCH  17  22
ENDBRANCH   1  17
TORSDOF 7
ENDMDL
MODEL 3
REMARK VINA RESULT: -6.104054244      3.382      5.445
REMARK  7 active torsions:
REMARK  status: ('A' for Active; 'I' for Inactive)
REMARK       I    between atoms: C2_2  and  N1_4 
REMARK    1  A    between atoms: N1_4  and  C3_6 
REMARK    2  A    between atoms: C3_6  and  C4_7 
REMARK    3  A    between atoms: C3_6  and  C12_17 
REMARK    4  A    between atoms: C4_7  and  C5_8 
REMARK    5  A    between atoms: C5_8  and  C7_10 
REMARK    6  A    between atoms: C12_17  and  N2_18 
REMARK    7  A    between atoms: C12_17  and  C13_22 
ROOT
HETATM    1  C3  UNL     1      15.584 -27.221  -8.828  1.00  0.00     0.141 C 
ENDROOT
BRANCH   1   2
HETATM    2  N1  UNL     1      15.510 -28.620  -9.016  1.00  0.00    -0.351 N 
HETATM    3  C2  UNL     1      15.495 -29.591  -9.974  1.00  0.00     0.214 C 
HETATM    4  C1  UNL     1      15.303 -31.043  -9.544  1.00  0.00     0.117 C 
HETATM    5  O1  UNL     1      15.602 -29.500 -11.241  1.00  0.00    -0.274 OA
ATOM      6  H1  UNL     1      15.445 -29.066  -8.101  1.00  0.00     0.163 HD
ENDBRANCH   1   2
BRANCH   1   7
HETATM    7  C4  UNL     1      14.574 -26.582  -7.984  1.00  0.00     0.005 C 
BRANCH   7   8
HETATM    8  C5  UNL     1      13.201 -27.030  -7.828  1.00  0.00    -0.055 C 
HETATM    9  C6  UNL     1      12.800 -27.449  -6.438  1.00  0.00     0.046 C 
BRANCH   8  10
HETATM   10  C7  UNL     1      12.081 -26.284  -8.458  1.00  0.00     0.177 C 
HETATM   11  C8  UNL     1      11.987 -26.759  -9.941  1.00  0.00     0.208 C 
HETATM   12  O2  UNL     1      11.316 -25.699 -10.490  1.00  0.00    -0.353 OA
HETATM   13  C9  UNL     1      11.350 -24.634  -9.618  1.00  0.00     0.157 C 
HETATM   14  C10 UNL     1      10.060 -24.429  -8.873  1.00  0.00     0.078 C 
HETATM   15  C11 UNL     1      11.730 -23.425 -10.448  1.00  0.00     0.078 C 
HETATM   16  O3  UNL     1      12.337 -24.926  -8.672  1.00  0.00    -0.344 OA
ENDBRANCH   8  10
ENDBRANCH   7   8
ENDBRANCH   1   7
BRANCH   1  17
HETATM   17  C12 UNL     1      17.019 -26.820  -8.437  1.00  0.00     0.233 C 
BRANCH  17  18
HETATM   18  N2  UNL     1      17.572 -27.910  -7.686  1.00  0.00    -0.070 N 
ATOM     19  H23 UNL     1      17.495 -27.780  -6.678  1.00  0.00     0.275 HD
ATOM     20  H22 UNL     1      17.016 -28.763  -7.751  1.00  0.00     0.275 HD
ATOM     21  H21 UNL     1      18.533 -28.035  -8.002  1.00  0.00     0.275 HD
ENDBRANCH  17  18
BRANCH  17  22
HETATM   22  C13 UNL     1      17.864 -26.439  -9.568  1.00  0.00     0.022 C 
HETATM   23  C14 UNL     1      18.699 -25.412  -9.527  1.00  0.00    -0.016 C 
HETATM   24  C15 UNL     1      18.847 -24.578  -8.329  1.00  0.00     0.056 C 
HETATM   25  S1  UNL     1      19.703 -24.998 -10.981  1.00  0.00    -0.058 SA
ENDBRANCH  17  22
ENDBRANCH   1  17
TORSDOF 7
ENDMDL
MODEL 4
REMARK VINA RESULT: -6.080917278      2.650      6.124
REMARK  7 active torsions:
REMARK  status: ('A' for Active; 'I' for Inactive)
REMARK       I    between atoms: C2_2  and  N1_4 
REMARK    1  A    between atoms: N1_4  and  C3_6 
REMARK    2  A    between atoms: C3_6  and  C4_7 
REMARK    3  A    between atoms: C3_6  and  C12_17 
REMARK    4  A    between atoms: C4_7  and  C5_8 
REMARK    5  A    between atoms: C5_8  and  C7_10 
REMARK    6  A    between atoms: C12_17  and  N2_18 
REMARK    7  A    between atoms: C12_17  and  C13_22 
ROOT
HETATM    1  C3  UNL     1      12.893 -27.789  -9.149  1.00  0.00     0.141 C 
ENDROOT
BRANCH   1   2
HETATM    2  N1  UNL     1      12.560 -26.601  -9.838  1.00  0.00    -0.351 N 
HETATM    3  C2  UNL     1      11.617 -25.618  -9.922  1.00  0.00     0.214 C 
HETATM    4  C1  UNL     1      11.768 -24.548 -11.000  1.00  0.00     0.117 C 
HETATM    5  O1  UNL     1      10.562 -25.427  -9.232  1.00  0.00    -0.274 OA
ATOM      6  H1  UNL     1      13.290 -26.408 -10.523  1.00  0.00     0.163 HD
ENDBRANCH   1   2
BRANCH   1   7
HETATM    7  C4  UNL     1      13.689 -28.796  -9.851  1.00  0.00     0.005 C 
BRANCH   7   8
HETATM    8  C5  UNL     1      14.875 -29.450  -9.323  1.00  0.00    -0.055 C 
HETATM    9  C6  UNL     1      14.835 -30.954  -9.286  1.00  0.00     0.046 C 
BRANCH   8  10
HETATM   10  C7  UNL     1      16.233 -29.005  -9.731  1.00  0.00     0.177 C 
HETATM   11  C8  UNL     1      17.115 -28.980  -8.445  1.00  0.00     0.208 C 
HETATM   12  O2  UNL     1      18.104 -28.124  -8.850  1.00  0.00    -0.353 OA
HETATM   13  C9  UNL     1      17.698 -27.459  -9.985  1.00  0.00     0.157 C 
HETATM   14  C10 UNL     1      18.324 -27.990 -11.245  1.00  0.00     0.078 C 
HETATM   15  C11 UNL     1      18.025 -25.998  -9.755  1.00  0.00     0.078 C 
HETATM   16  O3  UNL     1      16.318 -27.656 -10.090  1.00  0.00    -0.344 OA
ENDBRANCH   8  10
ENDBRANCH   7   8
ENDBRANCH   1   7
BRANCH   1  17
HETATM   17  C12 UNL     1      13.466 -27.446  -7.761  1.00  0.00     0.233 C 
BRANCH  17  18
HETATM   18  N2  UNL     1      14.401 -26.374  -7.943  1.00  0.00    -0.070 N 
ATOM     19  H23 UNL     1      14.664 -25.920  -7.069  1.00  0.00     0.275 HD
ATOM     20  H22 UNL     1      15.331 -26.696  -8.209  1.00  0.00     0.275 HD
ATOM     21  H21 UNL     1      13.992 -25.732  -8.621  1.00  0.00     0.275 HD
ENDBRANCH  17  18
BRANCH  17  22
HETATM   22  C13 UNL     1      12.451 -27.134  -6.754  1.00  0.00     0.022 C 
HETATM   23  C14 UNL     1      12.580 -27.463  -5.479  1.00  0.00    -0.016 C 
HETATM   24  C15 UNL     1      13.765 -28.165  -4.973  1.00  0.00     0.056 C 
HETATM   25  S1  UNL     1      11.267 -27.051  -4.296  1.00  0.00    -0.058 SA
ENDBRANCH  17  22
ENDBRANCH   1  17
TORSDOF 7
ENDMDL
MODEL 5
REMARK VINA RESULT: -6.003734189      1.191      1.203
REMARK  7 active torsions:
REMARK  status: ('A' for Active; 'I' for Inactive)
REMARK       I    between atoms: C2_2  and  N1_4 
REMARK    1  A    between atoms: N1_4  and  C3_6 
REMARK    2  A    between atoms: C3_6  and  C4_7 
REMARK    3  A    between atoms: C3_6  and  C12_17 
REMARK    4  A    between atoms: C4_7  and  C5_8 
REMARK    5  A    between atoms: C5_8  and  C7_10 
REMARK    6  A    between atoms: C12_17  and  N2_18 
REMARK    7  A    between atoms: C12_17  and  C13_22 
ROOT
HETATM    1  C3  UNL     1      13.851 -27.991  -7.865  1.00  0.00     0.141 C 
ENDROOT
BRANCH   1   2
HETATM    2  N1  UNL     1      15.195 -28.336  -8.134  1.00  0.00    -0.351 N 
HETATM    3  C2  UNL     1      16.451 -27.816  -8.245  1.00  0.00     0.214 C 
HETATM    4  C1  UNL     1      17.592 -28.739  -8.667  1.00  0.00     0.117 C 
HETATM    5  O1  UNL     1      16.869 -26.625  -8.066  1.00  0.00    -0.274 OA
ATOM      6  H1  UNL     1      15.244 -29.340  -8.307  1.00  0.00     0.163 HD
ENDBRANCH   1   2
BRANCH   1   7
HETATM    7  C4  UNL     1      13.547 -27.321  -6.600  1.00  0.00     0.005 C 
BRANCH   7   8
HETATM    8  C5  UNL     1      13.853 -27.840  -5.278  1.00  0.00    -0.055 C 
HETATM    9  C6  UNL     1      15.212 -27.489  -4.732  1.00  0.00     0.046 C 
BRANCH   8  10
HETATM   10  C7  UNL     1      12.852 -27.767  -4.183  1.00  0.00     0.177 C 
HETATM   11  C8  UNL     1      11.641 -26.941  -4.719  1.00  0.00     0.208 C 
HETATM   12  O2  UNL     1      11.079 -26.544  -3.536  1.00  0.00    -0.353 OA
HETATM   13  C9  UNL     1      11.977 -26.745  -2.512  1.00  0.00     0.157 C 
HETATM   14  C10 UNL     1      11.673 -27.959  -1.679  1.00  0.00     0.078 C 
HETATM   15  C11 UNL     1      11.968 -25.472  -1.691  1.00  0.00     0.078 C 
HETATM   16  O3  UNL     1      13.224 -26.950  -3.109  1.00  0.00    -0.344 OA
ENDBRANCH   8  10
ENDBRANCH   7   8
ENDBRANCH   1   7
BRANCH   1  17
HETATM   17  C12 UNL     1      13.245 -27.264  -9.079  1.00  0.00     0.233 C 
BRANCH  17  18
HETATM   18  N2  UNL     1      13.049 -28.246 -10.106  1.00  0.00    -0.070 N 
ATOM     19  H23 UNL     1      13.881 -28.806 -10.286  1.00  0.00     0.275 HD
ATOM     20  H22 UNL     1      12.437 -29.008  -9.819  1.00  0.00     0.275 HD
ATOM     21  H21 UNL     1      12.712 -27.752 -10.932  1.00  0.00     0.275 HD
ENDBRANCH  17  18
BRANCH  17  22
HETATM   22  C13 UNL     1      12.021 -26.519  -8.781  1.00  0.00     0.022 C 
HETATM   23  C14 UNL     1      11.669 -25.425  -9.437  1.00  0.00    -0.016 C 
HETATM   24  C15 UNL     1      12.482 -24.876 -10.528  1.00  0.00     0.056 C 
HETATM   25  S1  UNL     1      10.140 -24.552  -8.996  1.00  0.00    -0.058 SA
ENDBRANCH  17  22
ENDBRANCH   1  17
TORSDOF 7
ENDMDL
