MODEL 1
REMARK VINA RESULT: -8.380717209      0.000      0.000
REMARK  16 active torsions:
REMARK  status: ('A' for Active; 'I' for Inactive)
REMARK    1  A    between atoms: N1_2  and  C2_4 
REMARK    2  A    between atoms: C3_7  and  N3_8 
REMARK    3  A    between atoms: N3_8  and  C4_10 
REMARK    4  A    between atoms: C4_10  and  C5_11 
REMARK    5  A    between atoms: C8_14  and  N4_15 
REMARK       I    between atoms: N4_15  and  C9_17 
REMARK    6  A    between atoms: C9_17  and  C10_19 
REMARK    7  A    between atoms: C10_19  and  C11_20 
REMARK    8  A    between atoms: C11_20  and  C12_21 
REMARK    9  A    between atoms: C12_21  and  N5_22 
REMARK   10  A    between atoms: C17_29  and  N7_30 
REMARK   11  A    between atoms: N7_30  and  C18_32 
REMARK   12  A    between atoms: C18_32  and  C19_33 
REMARK   13  A    between atoms: C18_32  and  C23_39 
REMARK   14  A    between atoms: C19_33  and  N8_34 
REMARK   15  A    between atoms: N8_34  and  C20_36 
REMARK   16  A    between atoms: C23_39  and  C24_40 
ROOT
HETATM    1  C2  UNL     1      24.173  47.948  44.333  1.00  0.00     0.706 A 
HETATM    2  N2  UNL     1      23.202  47.273  44.961  1.00  0.00    -0.022 N 
ATOM      3  H2  UNL     1      23.230  46.254  44.962  1.00  0.00     0.203 HD
HETATM    4  C3  UNL     1      22.187  47.902  45.594  1.00  0.00     0.707 A 
HETATM    5  N6  UNL     1      22.214  49.236  45.552  1.00  0.00    -0.022 N 
ATOM      6  H6  UNL     1      21.465  49.749  46.017  1.00  0.00     0.203 HD
HETATM    7  C17 UNL     1      23.197  49.955  44.916  1.00  0.00     0.707 A 
HETATM    8  N9  UNL     1      24.183  49.289  44.302  1.00  0.00    -0.022 N 
ATOM      9  H9  UNL     1      24.927  49.792  43.820  1.00  0.00     0.203 HD
ENDROOT
BRANCH   4  10
HETATM   10  N3  UNL     1      21.248  47.251  46.203  1.00  0.00    -0.225 N 
ATOM     11  H3  UNL     1      20.796  47.644  47.028  1.00  0.00     0.177 HD
BRANCH  10  12
HETATM   12  C4  UNL     1      20.856  45.973  45.699  1.00  0.00     0.142 C 
BRANCH  12  13
HETATM   13  C5  UNL     1      19.659  46.042  44.777  1.00  0.00     0.004 C 
HETATM   14  C6  UNL     1      20.159  45.664  43.405  1.00  0.00     0.008 C 
HETATM   15  C7  UNL     1      18.961  45.637  42.488  1.00  0.00     0.026 C 
HETATM   16  C8  UNL     1      18.215  44.343  42.827  1.00  0.00     0.084 C 
HETATM   17  C15 UNL     1      18.498  43.942  44.259  1.00  0.00     0.026 C 
HETATM   18  C16 UNL     1      18.554  45.136  45.181  1.00  0.00     0.008 C 
BRANCH  16  19
HETATM   19  N4  UNL     1      16.823  44.632  42.672  1.00  0.00    -0.356 N 
HETATM   20  C9  UNL     1      16.106  44.436  41.461  1.00  0.00     0.217 C 
HETATM   21  O1  UNL     1      16.691  43.981  40.423  1.00  0.00    -0.274 OA
ATOM     22  H4  UNL     1      16.316  45.000  43.477  1.00  0.00     0.162 HD
BRANCH  20  23
HETATM   23  C10 UNL     1      14.682  44.760  41.395  1.00  0.00     0.104 C 
BRANCH  23  24
HETATM   24  C11 UNL     1      14.326  46.188  41.219  1.00  0.00     0.039 C 
BRANCH  24  25
HETATM   25  C12 UNL     1      15.163  46.973  40.270  1.00  0.00     0.271 C 
BRANCH  25  26
HETATM   26  N5  UNL     1      14.447  48.186  39.831  1.00  0.00     0.080 N 
HETATM   27  C13 UNL     1      13.289  47.759  39.083  1.00  0.00     0.309 C 
HETATM   28  C14 UNL     1      13.970  48.902  41.008  1.00  0.00     0.309 C 
ENDBRANCH  25  26
ENDBRANCH  24  25
ENDBRANCH  23  24
ENDBRANCH  20  23
ENDBRANCH  16  19
ENDBRANCH  12  13
ENDBRANCH  10  12
ENDBRANCH   4  10
BRANCH   1  29
HETATM   29  N1  UNL     1      25.128  47.325  43.738  1.00  0.00    -0.229 N 
HETATM   30  C1  UNL     1      25.861  46.237  44.306  1.00  0.00     0.165 C 
ATOM     31  H1  UNL     1      25.379  47.629  42.797  1.00  0.00     0.177 HD
ENDBRANCH   1  29
BRANCH   7  32
HETATM   32  N7  UNL     1      23.138  51.232  44.928  1.00  0.00    -0.219 N 
ATOM     33  H7  UNL     1      23.173  51.672  44.009  1.00  0.00     0.178 HD
BRANCH  32  34
HETATM   34  C18 UNL     1      23.031  52.136  46.020  1.00  0.00     0.120 C 
BRANCH  34  35
HETATM   35  C19 UNL     1      22.471  51.413  47.249  1.00  0.00     0.140 C 
BRANCH  35  36
HETATM   36  N8  UNL     1      23.501  51.159  48.219  1.00  0.00    -0.416 N 
ATOM     37  H8  UNL     1      24.386  51.666  48.189  1.00  0.00     0.153 HD
BRANCH  36  38
HETATM   38  C20 UNL     1      23.257  50.199  49.205  1.00  0.00     0.068 C 
HETATM   39  C21 UNL     1      23.753  50.473  50.579  1.00  0.00     0.031 C 
HETATM   40  C22 UNL     1      23.811  48.862  48.729  1.00  0.00     0.031 C 
ENDBRANCH  36  38
ENDBRANCH  35  36
ENDBRANCH  34  35
BRANCH  34  41
HETATM   41  C23 UNL     1      24.414  52.637  46.385  1.00  0.00     0.065 C 
BRANCH  41  42
HETATM   42  C24 UNL     1      24.665  54.034  45.980  1.00  0.00    -0.056 A 
HETATM   43  C25 UNL     1      23.672  54.888  45.550  1.00  0.00     0.007 A 
HETATM   44  C26 UNL     1      23.932  56.187  45.178  1.00  0.00     0.001 A 
HETATM   45  C27 UNL     1      25.213  56.710  45.217  1.00  0.00     0.000 A 
HETATM   46  C28 UNL     1      26.200  55.864  45.644  1.00  0.00     0.001 A 
HETATM   47  C29 UNL     1      25.960  54.566  46.019  1.00  0.00     0.007 A 
ENDBRANCH  41  42
ENDBRANCH  34  41
ENDBRANCH  32  34
ENDBRANCH   7  32
TORSDOF 16
ENDMDL
MODEL 2
REMARK VINA RESULT: -8.286538304      2.446      3.877
REMARK  16 active torsions:
REMARK  status: ('A' for Active; 'I' for Inactive)
REMARK    1  A    between atoms: N1_2  and  C2_4 
REMARK    2  A    between atoms: C3_7  and  N3_8 
REMARK    3  A    between atoms: N3_8  and  C4_10 
REMARK    4  A    between atoms: C4_10  and  C5_11 
REMARK    5  A    between atoms: C8_14  and  N4_15 
REMARK       I    between atoms: N4_15  and  C9_17 
REMARK    6  A    between atoms: C9_17  and  C10_19 
REMARK    7  A    between atoms: C10_19  and  C11_20 
REMARK    8  A    between atoms: C11_20  and  C12_21 
REMARK    9  A    between atoms: C12_21  and  N5_22 
REMARK   10  A    between atoms: C17_29  and  N7_30 
REMARK   11  A    between atoms: N7_30  and  C18_32 
REMARK   12  A    between atoms: C18_32  and  C19_33 
REMARK   13  A    between atoms: C18_32  and  C23_39 
REMARK   14  A    between atoms: C19_33  and  N8_34 
REMARK   15  A    between atoms: N8_34  and  C20_36 
REMARK   16  A    between atoms: C23_39  and  C24_40 
ROOT
HETATM    1  C2  UNL     1      24.887  46.368  44.517  1.00  0.00     0.706 A 
HETATM    2  N2  UNL     1      23.866  45.556  44.215  1.00  0.00    -0.022 N 
ATOM      3  H2  UNL     1      24.001  44.836  43.506  1.00  0.00     0.203 HD
HETATM    4  C3  UNL     1      22.663  45.663  44.821  1.00  0.00     0.707 A 
HETATM    5  N6  UNL     1      22.558  46.627  45.739  1.00  0.00    -0.022 N 
ATOM      6  H6  UNL     1      21.666  46.742  46.219  1.00  0.00     0.203 HD
HETATM    7  C17 UNL     1      23.588  47.474  46.070  1.00  0.00     0.707 A 
HETATM    8  N9  UNL     1      24.762  47.332  45.443  1.00  0.00    -0.022 N 
ATOM      9  H9  UNL     1      25.547  47.944  45.664  1.00  0.00     0.203 HD
ENDROOT
BRANCH   4  10
HETATM   10  N3  UNL     1      21.675  44.878  44.531  1.00  0.00    -0.225 N 
ATOM     11  H3  UNL     1      21.733  44.245  43.733  1.00  0.00     0.177 HD
BRANCH  10  12
HETATM   12  C4  UNL     1      20.503  44.913  45.347  1.00  0.00     0.142 C 
BRANCH  12  13
HETATM   13  C5  UNL     1      19.271  45.361  44.593  1.00  0.00     0.004 C 
HETATM   14  C6  UNL     1      19.698  45.556  43.159  1.00  0.00     0.008 C 
HETATM   15  C7  UNL     1      18.462  45.915  42.372  1.00  0.00     0.026 C 
HETATM   16  C8  UNL     1      17.687  44.604  42.207  1.00  0.00     0.084 C 
HETATM   17  C15 UNL     1      18.018  43.660  43.343  1.00  0.00     0.026 C 
HETATM   18  C16 UNL     1      18.154  44.386  44.660  1.00  0.00     0.008 C 
BRANCH  16  19
HETATM   19  N4  UNL     1      16.301  44.950  42.254  1.00  0.00    -0.356 N 
HETATM   20  C9  UNL     1      15.381  44.670  41.207  1.00  0.00     0.217 C 
HETATM   21  O1  UNL     1      15.764  44.080  40.143  1.00  0.00    -0.274 OA
ATOM     22  H4  UNL     1      15.952  45.425  43.086  1.00  0.00     0.162 HD
BRANCH  20  23
HETATM   23  C10 UNL     1      13.980  45.061  41.342  1.00  0.00     0.104 C 
BRANCH  23  24
HETATM   24  C11 UNL     1      13.643  46.470  41.028  1.00  0.00     0.039 C 
BRANCH  24  25
HETATM   25  C12 UNL     1      14.112  46.992  39.714  1.00  0.00     0.271 C 
BRANCH  25  26
HETATM   26  N5  UNL     1      14.668  48.349  39.866  1.00  0.00     0.080 N 
HETATM   27  C13 UNL     1      14.008  48.965  40.993  1.00  0.00     0.309 C 
HETATM   28  C14 UNL     1      16.085  48.244  40.192  1.00  0.00     0.309 C 
ENDBRANCH  25  26
ENDBRANCH  24  25
ENDBRANCH  23  24
ENDBRANCH  20  23
ENDBRANCH  16  19
ENDBRANCH  12  13
ENDBRANCH  10  12
ENDBRANCH   4  10
BRANCH   1  29
HETATM   29  N1  UNL     1      26.022  46.246  43.926  1.00  0.00    -0.229 N 
HETATM   30  C1  UNL     1      27.244  45.902  44.585  1.00  0.00     0.165 C 
ATOM     31  H1  UNL     1      26.053  46.404  42.919  1.00  0.00     0.177 HD
ENDBRANCH   1  29
BRANCH   7  32
HETATM   32  N7  UNL     1      23.393  48.369  46.961  1.00  0.00    -0.219 N 
ATOM     33  H7  UNL     1      22.922  48.041  47.804  1.00  0.00     0.178 HD
BRANCH  32  34
HETATM   34  C18 UNL     1      23.728  49.751  46.964  1.00  0.00     0.120 C 
BRANCH  34  35
HETATM   35  C19 UNL     1      23.550  50.338  45.559  1.00  0.00     0.140 C 
BRANCH  35  36
HETATM   36  N8  UNL     1      22.175  50.668  45.303  1.00  0.00    -0.416 N 
ATOM     37  H8  UNL     1      21.686  51.360  45.871  1.00  0.00     0.153 HD
BRANCH  36  38
HETATM   38  C20 UNL     1      21.525  50.013  44.254  1.00  0.00     0.068 C 
HETATM   39  C21 UNL     1      20.384  49.122  44.592  1.00  0.00     0.031 C 
HETATM   40  C22 UNL     1      22.557  49.225  43.457  1.00  0.00     0.031 C 
ENDBRANCH  36  38
ENDBRANCH  35  36
ENDBRANCH  34  35
BRANCH  34  41
HETATM   41  C23 UNL     1      22.776  50.489  47.883  1.00  0.00     0.065 C 
BRANCH  41  42
HETATM   42  C24 UNL     1      23.081  50.314  49.317  1.00  0.00    -0.056 A 
HETATM   43  C25 UNL     1      23.830  51.213  50.047  1.00  0.00     0.007 A 
HETATM   44  C26 UNL     1      24.100  51.028  51.383  1.00  0.00     0.001 A 
HETATM   45  C27 UNL     1      23.630  49.922  52.072  1.00  0.00     0.000 A 
HETATM   46  C28 UNL     1      22.887  49.029  51.350  1.00  0.00     0.001 A 
HETATM   47  C29 UNL     1      22.607  49.198  50.017  1.00  0.00     0.007 A 
ENDBRANCH  41  42
ENDBRANCH  34  41
ENDBRANCH  32  34
ENDBRANCH   7  32
TORSDOF 16
ENDMDL
MODEL 3
REMARK VINA RESULT: -8.081398810      3.333     10.766
REMARK  16 active torsions:
REMARK  status: ('A' for Active; 'I' for Inactive)
REMARK    1  A    between atoms: N1_2  and  C2_4 
REMARK    2  A    between atoms: C3_7  and  N3_8 
REMARK    3  A    between atoms: N3_8  and  C4_10 
REMARK    4  A    between atoms: C4_10  and  C5_11 
REMARK    5  A    between atoms: C8_14  and  N4_15 
REMARK       I    between atoms: N4_15  and  C9_17 
REMARK    6  A    between atoms: C9_17  and  C10_19 
REMARK    7  A    between atoms: C10_19  and  C11_20 
REMARK    8  A    between atoms: C11_20  and  C12_21 
REMARK    9  A    between atoms: C12_21  and  N5_22 
REMARK   10  A    between atoms: C17_29  and  N7_30 
REMARK   11  A    between atoms: N7_30  and  C18_32 
REMARK   12  A    between atoms: C18_32  and  C19_33 
REMARK   13  A    between atoms: C18_32  and  C23_39 
REMARK   14  A    between atoms: C19_33  and  N8_34 
REMARK   15  A    between atoms: N8_34  and  C20_36 
REMARK   16  A    between atoms: C23_39  and  C24_40 
ROOT
HETATM    1  C2  UNL     1      20.166  43.871  45.300  1.00  0.00     0.706 A 
HETATM    2  N2  UNL     1      21.171  44.319  44.537  1.00  0.00    -0.022 N 
ATOM      3  H2  UNL     1      22.131  44.114  44.813  1.00  0.00     0.203 HD
HETATM    4  C3  UNL     1      20.952  45.034  43.411  1.00  0.00     0.707 A 
HETATM    5  N6  UNL     1      19.672  45.265  43.110  1.00  0.00    -0.022 N 
ATOM      6  H6  UNL     1      19.462  45.802  42.268  1.00  0.00     0.203 HD
HETATM    7  C17 UNL     1      18.620  44.816  43.873  1.00  0.00     0.707 A 
HETATM    8  N9  UNL     1      18.885  44.112  44.980  1.00  0.00    -0.022 N 
ATOM      9  H9  UNL     1      18.129  43.766  45.569  1.00  0.00     0.203 HD
ENDROOT
BRANCH   4  10
HETATM   10  N3  UNL     1      21.922  45.467  42.672  1.00  0.00    -0.225 N 
ATOM     11  H3  UNL     1      22.547  44.813  42.201  1.00  0.00     0.177 HD
BRANCH  10  12
HETATM   12  C4  UNL     1      22.103  46.876  42.527  1.00  0.00     0.142 C 
BRANCH  12  13
HETATM   13  C5  UNL     1      22.489  47.560  43.820  1.00  0.00     0.004 C 
HETATM   14  C6  UNL     1      23.557  48.565  43.465  1.00  0.00     0.008 C 
HETATM   15  C7  UNL     1      23.891  49.322  44.727  1.00  0.00     0.026 C 
HETATM   16  C8  UNL     1      22.724  50.291  44.942  1.00  0.00     0.084 C 
HETATM   17  C15 UNL     1      21.467  49.739  44.305  1.00  0.00     0.026 C 
HETATM   18  C16 UNL     1      21.351  48.244  44.484  1.00  0.00     0.008 C 
BRANCH  16  19
HETATM   19  N4  UNL     1      22.544  50.392  46.357  1.00  0.00    -0.356 N 
HETATM   20  C9  UNL     1      23.247  51.315  47.178  1.00  0.00     0.217 C 
HETATM   21  O1  UNL     1      24.098  52.119  46.674  1.00  0.00    -0.274 OA
ATOM     22  H4  UNL     1      21.874  49.765  46.802  1.00  0.00     0.162 HD
BRANCH  20  23
HETATM   23  C10 UNL     1      22.998  51.347  48.618  1.00  0.00     0.104 C 
BRANCH  23  24
HETATM   24  C11 UNL     1      23.879  50.513  49.470  1.00  0.00     0.039 C 
BRANCH  24  25
HETATM   25  C12 UNL     1      23.324  49.210  49.932  1.00  0.00     0.271 C 
BRANCH  25  26
HETATM   26  N5  UNL     1      23.307  49.149  51.405  1.00  0.00     0.080 N 
HETATM   27  C13 UNL     1      23.452  50.498  51.897  1.00  0.00     0.309 C 
HETATM   28  C14 UNL     1      22.003  48.663  51.840  1.00  0.00     0.309 C 
ENDBRANCH  25  26
ENDBRANCH  24  25
ENDBRANCH  23  24
ENDBRANCH  20  23
ENDBRANCH  16  19
ENDBRANCH  12  13
ENDBRANCH  10  12
ENDBRANCH   4  10
BRANCH   1  29
HETATM   29  N1  UNL     1      20.402  43.192  46.366  1.00  0.00    -0.229 N 
HETATM   30  C1  UNL     1      21.588  42.425  46.591  1.00  0.00     0.165 C 
ATOM     31  H1  UNL     1      19.695  43.202  47.102  1.00  0.00     0.177 HD
ENDBRANCH   1  29
BRANCH   7  32
HETATM   32  N7  UNL     1      17.427  45.088  43.505  1.00  0.00    -0.219 N 
ATOM     33  H7  UNL     1      16.721  44.997  44.235  1.00  0.00     0.178 HD
BRANCH  32  34
HETATM   34  C18 UNL     1      16.927  45.496  42.238  1.00  0.00     0.120 C 
BRANCH  34  35
HETATM   35  C19 UNL     1      17.177  44.401  41.195  1.00  0.00     0.140 C 
BRANCH  35  36
HETATM   36  N8  UNL     1      15.992  43.620  40.965  1.00  0.00    -0.416 N 
ATOM     37  H8  UNL     1      15.528  43.133  41.733  1.00  0.00     0.153 HD
BRANCH  36  38
HETATM   38  C20 UNL     1      15.494  43.545  39.662  1.00  0.00     0.068 C 
HETATM   39  C21 UNL     1      15.584  42.239  38.958  1.00  0.00     0.031 C 
HETATM   40  C22 UNL     1      16.174  44.617  38.819  1.00  0.00     0.031 C 
ENDBRANCH  36  38
ENDBRANCH  35  36
ENDBRANCH  34  35
BRANCH  34  41
HETATM   41  C23 UNL     1      15.427  45.688  42.337  1.00  0.00     0.065 C 
BRANCH  41  42
HETATM   42  C24 UNL     1      14.878  46.614  41.326  1.00  0.00    -0.056 A 
HETATM   43  C25 UNL     1      15.628  47.595  40.712  1.00  0.00     0.007 A 
HETATM   44  C26 UNL     1      15.094  48.446  39.773  1.00  0.00     0.001 A 
HETATM   45  C27 UNL     1      13.765  48.362  39.390  1.00  0.00     0.000 A 
HETATM   46  C28 UNL     1      13.020  47.389  39.998  1.00  0.00     0.001 A 
HETATM   47  C29 UNL     1      13.536  46.531  40.936  1.00  0.00     0.007 A 
ENDBRANCH  41  42
ENDBRANCH  34  41
ENDBRANCH  32  34
ENDBRANCH   7  32
TORSDOF 16
ENDMDL
MODEL 4
REMARK VINA RESULT: -8.075381172      1.246      3.630
REMARK  16 active torsions:
REMARK  status: ('A' for Active; 'I' for Inactive)
REMARK    1  A    between atoms: N1_2  and  C2_4 
REMARK    2  A    between atoms: C3_7  and  N3_8 
REMARK    3  A    between atoms: N3_8  and  C4_10 
REMARK    4  A    between atoms: C4_10  and  C5_11 
REMARK    5  A    between atoms: C8_14  and  N4_15 
REMARK       I    between atoms: N4_15  and  C9_17 
REMARK    6  A    between atoms: C9_17  and  C10_19 
REMARK    7  A    between atoms: C10_19  and  C11_20 
REMARK    8  A    between atoms: C11_20  and  C12_21 
REMARK    9  A    between atoms: C12_21  and  N5_22 
REMARK   10  A    between atoms: C17_29  and  N7_30 
REMARK   11  A    between atoms: N7_30  and  C18_32 
REMARK   12  A    between atoms: C18_32  and  C19_33 
REMARK   13  A    between atoms: C18_32  and  C23_39 
REMARK   14  A    between atoms: C19_33  and  N8_34 
REMARK   15  A    between atoms: N8_34  and  C20_36 
REMARK   16  A    between atoms: C23_39  and  C24_40 
ROOT
HETATM    1  C2  UNL     1      23.076  47.566  43.066  1.00  0.00     0.706 A 
HETATM    2  N2  UNL     1      22.333  46.801  43.875  1.00  0.00    -0.022 N 
ATOM      3  H2  UNL     1      22.233  45.809  43.662  1.00  0.00     0.203 HD
HETATM    4  C3  UNL     1      21.711  47.304  44.965  1.00  0.00     0.707 A 
HETATM    5  N6  UNL     1      21.885  48.610  45.182  1.00  0.00    -0.022 N 
ATOM      6  H6  UNL     1      21.432  49.029  45.993  1.00  0.00     0.203 HD
HETATM    7  C17 UNL     1      22.642  49.419  44.370  1.00  0.00     0.707 A 
HETATM    8  N9  UNL     1      23.239  48.878  43.301  1.00  0.00    -0.022 N 
ATOM      9  H9  UNL     1      23.807  49.450  42.677  1.00  0.00     0.203 HD
ENDROOT
BRANCH   4  10
HETATM   10  N3  UNL     1      20.993  46.565  45.748  1.00  0.00    -0.225 N 
ATOM     11  H3  UNL     1      20.831  46.841  46.716  1.00  0.00     0.177 HD
BRANCH  10  12
HETATM   12  C4  UNL     1      20.432  45.356  45.234  1.00  0.00     0.142 C 
BRANCH  12  13
HETATM   13  C5  UNL     1      19.146  45.579  44.469  1.00  0.00     0.004 C 
HETATM   14  C6  UNL     1      19.517  45.571  43.006  1.00  0.00     0.008 C 
HETATM   15  C7  UNL     1      18.234  45.700  42.223  1.00  0.00     0.026 C 
HETATM   16  C8  UNL     1      17.567  44.323  42.301  1.00  0.00     0.084 C 
HETATM   17  C15 UNL     1      18.005  43.605  43.559  1.00  0.00     0.026 C 
HETATM   18  C16 UNL     1      18.117  44.544  44.736  1.00  0.00     0.008 C 
BRANCH  16  19
HETATM   19  N4  UNL     1      16.159  44.564  42.347  1.00  0.00    -0.356 N 
HETATM   20  C9  UNL     1      15.350  44.749  41.193  1.00  0.00     0.217 C 
HETATM   21  O1  UNL     1      15.862  44.710  40.026  1.00  0.00    -0.274 OA
ATOM     22  H4  UNL     1      15.708  44.605  43.262  1.00  0.00     0.162 HD
BRANCH  20  23
HETATM   23  C10 UNL     1      13.916  44.990  41.337  1.00  0.00     0.104 C 
BRANCH  23  24
HETATM   24  C11 UNL     1      13.413  46.317  40.910  1.00  0.00     0.039 C 
BRANCH  24  25
HETATM   25  C12 UNL     1      14.181  47.505  41.378  1.00  0.00     0.271 C 
BRANCH  25  26
HETATM   26  N5  UNL     1      14.502  48.392  40.244  1.00  0.00     0.080 N 
HETATM   27  C13 UNL     1      15.924  48.301  40.012  1.00  0.00     0.309 C 
HETATM   28  C14 UNL     1      13.831  47.891  39.051  1.00  0.00     0.309 C 
ENDBRANCH  25  26
ENDBRANCH  24  25
ENDBRANCH  23  24
ENDBRANCH  20  23
ENDBRANCH  16  19
ENDBRANCH  12  13
ENDBRANCH  10  12
ENDBRANCH   4  10
BRANCH   1  29
HETATM   29  N1  UNL     1      23.657  47.064  42.035  1.00  0.00    -0.229 N 
HETATM   30  C1  UNL     1      23.312  45.807  41.445  1.00  0.00     0.165 C 
ATOM     31  H1  UNL     1      24.415  47.597  41.609  1.00  0.00     0.177 HD
ENDBRANCH   1  29
BRANCH   7  32
HETATM   32  N7  UNL     1      22.750  50.660  44.658  1.00  0.00    -0.219 N 
ATOM     33  H7  UNL     1      22.313  51.295  43.990  1.00  0.00     0.178 HD
BRANCH  32  34
HETATM   34  C18 UNL     1      23.382  51.295  45.762  1.00  0.00     0.120 C 
BRANCH  34  35
HETATM   35  C19 UNL     1      23.633  52.773  45.445  1.00  0.00     0.140 C 
BRANCH  35  36
HETATM   36  N8  UNL     1      24.538  53.363  46.393  1.00  0.00    -0.416 N 
ATOM     37  H8  UNL     1      24.964  52.801  47.131  1.00  0.00     0.153 HD
BRANCH  36  38
HETATM   38  C20 UNL     1      24.817  54.727  46.278  1.00  0.00     0.068 C 
HETATM   39  C21 UNL     1      23.936  55.544  45.402  1.00  0.00     0.031 C 
HETATM   40  C22 UNL     1      26.263  54.892  45.829  1.00  0.00     0.031 C 
ENDBRANCH  36  38
ENDBRANCH  35  36
ENDBRANCH  34  35
BRANCH  34  41
HETATM   41  C23 UNL     1      22.455  51.243  46.959  1.00  0.00     0.065 C 
BRANCH  41  42
HETATM   42  C24 UNL     1      23.032  50.548  48.127  1.00  0.00    -0.056 A 
HETATM   43  C25 UNL     1      23.045  51.084  49.397  1.00  0.00     0.007 A 
HETATM   44  C26 UNL     1      23.589  50.416  50.470  1.00  0.00     0.001 A 
HETATM   45  C27 UNL     1      24.155  49.160  50.331  1.00  0.00     0.000 A 
HETATM   46  C28 UNL     1      24.143  48.626  49.072  1.00  0.00     0.001 A 
HETATM   47  C29 UNL     1      23.605  49.277  47.990  1.00  0.00     0.007 A 
ENDBRANCH  41  42
ENDBRANCH  34  41
ENDBRANCH  32  34
ENDBRANCH   7  32
TORSDOF 16
ENDMDL
MODEL 5
REMARK VINA RESULT: -8.001165833      2.795      4.011
REMARK  16 active torsions:
REMARK  status: ('A' for Active; 'I' for Inactive)
REMARK    1  A    between atoms: N1_2  and  C2_4 
REMARK    2  A    between atoms: C3_7  and  N3_8 
REMARK    3  A    between atoms: N3_8  and  C4_10 
REMARK    4  A    between atoms: C4_10  and  C5_11 
REMARK    5  A    between atoms: C8_14  and  N4_15 
REMARK       I    between atoms: N4_15  and  C9_17 
REMARK    6  A    between atoms: C9_17  and  C10_19 
REMARK    7  A    between atoms: C10_19  and  C11_20 
REMARK    8  A    between atoms: C11_20  and  C12_21 
REMARK    9  A    between atoms: C12_21  and  N5_22 
REMARK   10  A    between atoms: C17_29  and  N7_30 
REMARK   11  A    between atoms: N7_30  and  C18_32 
REMARK   12  A    between atoms: C18_32  and  C19_33 
REMARK   13  A    between atoms: C18_32  and  C23_39 
REMARK   14  A    between atoms: C19_33  and  N8_34 
REMARK   15  A    between atoms: N8_34  and  C20_36 
REMARK   16  A    between atoms: C23_39  and  C24_40 
ROOT
HETATM    1  C2  UNL     1      23.527  46.157  42.954  1.00  0.00     0.706 A 
HETATM    2  N2  UNL     1      22.526  45.298  43.183  1.00  0.00    -0.022 N 
ATOM      3  H2  UNL     1      22.109  44.805  42.394  1.00  0.00     0.203 HD
HETATM    4  C3  UNL     1      22.054  45.064  44.427  1.00  0.00     0.707 A 
HETATM    5  N6  UNL     1      22.647  45.744  45.411  1.00  0.00    -0.022 N 
ATOM      6  H6  UNL     1      22.319  45.598  46.366  1.00  0.00     0.203 HD
HETATM    7  C17 UNL     1      23.676  46.632  45.206  1.00  0.00     0.707 A 
HETATM    8  N9  UNL     1      24.111  46.832  43.956  1.00  0.00    -0.022 N 
ATOM      9  H9  UNL     1      24.873  47.484  43.769  1.00  0.00     0.203 HD
ENDROOT
BRANCH   4  10
HETATM   10  N3  UNL     1      21.087  44.233  44.650  1.00  0.00    -0.225 N 
ATOM     11  H3  UNL     1      21.110  43.293  44.254  1.00  0.00     0.177 HD
BRANCH  10  12
HETATM   12  C4  UNL     1      19.989  44.653  45.460  1.00  0.00     0.142 C 
BRANCH  12  13
HETATM   13  C5  UNL     1      18.828  45.189  44.653  1.00  0.00     0.004 C 
HETATM   14  C6  UNL     1      19.350  45.407  43.254  1.00  0.00     0.008 C 
HETATM   15  C7  UNL     1      18.182  45.855  42.409  1.00  0.00     0.026 C 
HETATM   16  C8  UNL     1      17.355  44.592  42.153  1.00  0.00     0.084 C 
HETATM   17  C15 UNL     1      17.568  43.596  43.273  1.00  0.00     0.026 C 
HETATM   18  C16 UNL     1      17.662  44.271  44.620  1.00  0.00     0.008 C 
BRANCH  16  19
HETATM   19  N4  UNL     1      15.987  45.008  42.131  1.00  0.00    -0.356 N 
HETATM   20  C9  UNL     1      15.070  44.651  41.106  1.00  0.00     0.217 C 
HETATM   21  O1  UNL     1      15.437  43.923  40.126  1.00  0.00    -0.274 OA
ATOM     22  H4  UNL     1      15.651  45.594  42.895  1.00  0.00     0.162 HD
BRANCH  20  23
HETATM   23  C10 UNL     1      13.688  45.124  41.166  1.00  0.00     0.104 C 
BRANCH  23  24
HETATM   24  C11 UNL     1      13.458  46.563  40.897  1.00  0.00     0.039 C 
BRANCH  24  25
HETATM   25  C12 UNL     1      14.014  47.102  39.624  1.00  0.00     0.271 C 
BRANCH  25  26
HETATM   26  N5  UNL     1      14.686  48.394  39.860  1.00  0.00     0.080 N 
HETATM   27  C13 UNL     1      14.056  49.008  41.005  1.00  0.00     0.309 C 
HETATM   28  C14 UNL     1      16.079  48.143  40.208  1.00  0.00     0.309 C 
ENDBRANCH  25  26
ENDBRANCH  24  25
ENDBRANCH  23  24
ENDBRANCH  20  23
ENDBRANCH  16  19
ENDBRANCH  12  13
ENDBRANCH  10  12
ENDBRANCH   4  10
BRANCH   1  29
HETATM   29  N1  UNL     1      23.959  46.362  41.760  1.00  0.00    -0.229 N 
HETATM   30  C1  UNL     1      23.494  45.664  40.601  1.00  0.00     0.165 C 
ATOM     31  H1  UNL     1      24.681  47.070  41.631  1.00  0.00     0.177 HD
ENDBRANCH   1  29
BRANCH   7  32
HETATM   32  N7  UNL     1      24.181  47.238  46.212  1.00  0.00    -0.219 N 
ATOM     33  H7  UNL     1      24.849  46.689  46.753  1.00  0.00     0.178 HD
BRANCH  32  34
HETATM   34  C18 UNL     1      23.960  48.557  46.695  1.00  0.00     0.120 C 
BRANCH  34  35
HETATM   35  C19 UNL     1      23.505  49.468  45.550  1.00  0.00     0.140 C 
BRANCH  35  36
HETATM   36  N8  UNL     1      22.129  49.853  45.707  1.00  0.00    -0.416 N 
ATOM     37  H8  UNL     1      21.779  50.197  46.602  1.00  0.00     0.153 HD
BRANCH  36  38
HETATM   38  C20 UNL     1      21.283  49.744  44.600  1.00  0.00     0.068 C 
HETATM   39  C21 UNL     1      20.365  50.877  44.313  1.00  0.00     0.031 C 
HETATM   40  C22 UNL     1      20.471  48.462  44.734  1.00  0.00     0.031 C 
ENDBRANCH  36  38
ENDBRANCH  35  36
ENDBRANCH  34  35
BRANCH  34  41
HETATM   41  C23 UNL     1      22.842  48.527  47.718  1.00  0.00     0.065 C 
BRANCH  41  42
HETATM   42  C24 UNL     1      23.140  49.292  48.945  1.00  0.00    -0.056 A 
HETATM   43  C25 UNL     1      23.719  50.543  48.936  1.00  0.00     0.007 A 
HETATM   44  C26 UNL     1      23.987  51.236  50.094  1.00  0.00     0.001 A 
HETATM   45  C27 UNL     1      23.686  50.711  51.340  1.00  0.00     0.000 A 
HETATM   46  C28 UNL     1      23.111  49.470  51.351  1.00  0.00     0.001 A 
HETATM   47  C29 UNL     1      22.836  48.764  50.206  1.00  0.00     0.007 A 
ENDBRANCH  41  42
ENDBRANCH  34  41
ENDBRANCH  32  34
ENDBRANCH   7  32
TORSDOF 16
ENDMDL
