MODEL 1
REMARK VINA RESULT: -7.063822929      0.000      0.000
REMARK  12 active torsions:
REMARK  status: ('A' for Active; 'I' for Inactive)
REMARK    1  A    between atoms: C3_3  and  C4_4 
REMARK    2  A    between atoms: C4_4  and  N1_5 
REMARK       I    between atoms: N1_5  and  C5_7 
REMARK    3  A    between atoms: C5_7  and  C6_9 
REMARK    4  A    between atoms: C6_9  and  C7_10 
REMARK    5  A    between atoms: C6_9  and  N5_23 
REMARK    6  A    between atoms: C7_10  and  C8_11 
REMARK    7  A    between atoms: C10_15  and  N3_16 
REMARK       I    between atoms: N3_16  and  C11_18 
REMARK       I    between atoms: N5_23  and  C13_25 
REMARK    8  A    between atoms: C13_25  and  C14_27 
REMARK    9  A    between atoms: C14_27  and  C15_28 
REMARK   10  A    between atoms: C14_27  and  N6_32 
REMARK   11  A    between atoms: C15_28  and  C16_29 
REMARK       I    between atoms: N6_32  and  C19_34 
REMARK   12  A    between atoms: C19_34  and  C20_36 
ROOT
HETATM    1  C1  UNL     1      27.710  14.533 -17.122  1.00  0.00     0.112 C 
HETATM    2  C2  UNL     1      28.634  14.064 -18.173  1.00  0.00    -0.109 C 
HETATM    3  C3  UNL     1      29.412  13.670 -19.020  1.00  0.00    -0.087 C 
ENDROOT
BRANCH   3   4
HETATM    4  C4  UNL     1      30.374  13.209 -20.024  1.00  0.00     0.217 C 
BRANCH   4   5
HETATM    5  N1  UNL     1      30.003  11.955 -20.604  1.00  0.00    -0.349 N 
HETATM    6  C5  UNL     1      30.393  11.632 -21.970  1.00  0.00     0.241 C 
HETATM    7  O1  UNL     1      31.067  12.483 -22.633  1.00  0.00    -0.271 OA
ATOM      8  H1  UNL     1      29.462  11.284 -20.059  1.00  0.00     0.163 HD
BRANCH   6   9
HETATM    9  C6  UNL     1      30.012  10.374 -22.544  1.00  0.00     0.182 C 
BRANCH   9  10
HETATM   10  C7  UNL     1      30.158  10.261 -24.022  1.00  0.00     0.094 C 
BRANCH  10  11
HETATM   11  C8  UNL     1      31.303   9.579 -24.622  1.00  0.00     0.045 A 
HETATM   12  C9  UNL     1      31.261   8.182 -24.927  1.00  0.00     0.131 A 
HETATM   13  N2  UNL     1      32.388   7.830 -25.561  1.00  0.00    -0.200 N 
HETATM   14  C10 UNL     1      33.147   8.938 -25.668  1.00  0.00     0.684 A 
ATOM     15  H2  UNL     1      32.627   6.898 -25.899  1.00  0.00     0.183 HD
HETATM   16  N4  UNL     1      32.481   9.967 -25.101  1.00  0.00    -0.194 N 
ATOM     17  H4  UNL     1      32.836  10.921 -25.047  1.00  0.00     0.184 HD
BRANCH  14  18
HETATM   18  N3  UNL     1      34.272   9.011 -26.258  1.00  0.00    -0.160 N 
HETATM   19  C11 UNL     1      34.672   8.047 -27.215  1.00  0.00     0.231 C 
HETATM   20  C12 UNL     1      34.351   8.243 -28.683  1.00  0.00     0.118 C 
HETATM   21  O2  UNL     1      35.297   7.018 -26.877  1.00  0.00    -0.273 OA
ATOM     22  H3  UNL     1      34.902   9.783 -26.036  1.00  0.00     0.187 HD
ENDBRANCH  14  18
ENDBRANCH  10  11
ENDBRANCH   9  10
BRANCH   9  23
HETATM   23  N5  UNL     1      28.605   9.973 -22.283  1.00  0.00    -0.346 N 
HETATM   24  C13 UNL     1      28.425   8.763 -21.601  1.00  0.00     0.241 C 
HETATM   25  O3  UNL     1      29.475   8.117 -21.215  1.00  0.00    -0.271 OA
ATOM     26  H5  UNL     1      27.817  10.546 -22.582  1.00  0.00     0.163 HD
BRANCH  24  27
HETATM   27  C14 UNL     1      27.104   8.135 -21.311  1.00  0.00     0.177 C 
BRANCH  27  28
HETATM   28  C15 UNL     1      26.669   8.910 -20.081  1.00  0.00     0.038 C 
BRANCH  28  29
HETATM   29  C16 UNL     1      25.758  10.016 -20.096  1.00  0.00    -0.020 C 
HETATM   30  C17 UNL     1      25.065  10.554 -21.267  1.00  0.00     0.009 C 
HETATM   31  C18 UNL     1      26.571  11.218 -19.485  1.00  0.00     0.009 C 
ENDBRANCH  28  29
ENDBRANCH  27  28
BRANCH  27  32
HETATM   32  N6  UNL     1      27.458   6.773 -20.858  1.00  0.00    -0.346 N 
HETATM   33  C19 UNL     1      26.477   5.770 -20.972  1.00  0.00     0.237 C 
HETATM   34  O4  UNL     1      25.321   6.047 -21.457  1.00  0.00    -0.272 OA
ATOM     35  H6  UNL     1      28.381   6.567 -20.476  1.00  0.00     0.163 HD
BRANCH  33  36
HETATM   36  C20 UNL     1      26.668   4.367 -20.563  1.00  0.00     0.091 C 
HETATM   37  C21 UNL     1      28.137   4.080 -20.479  1.00  0.00     0.037 C 
HETATM   38  C22 UNL     1      26.014   4.076 -19.207  1.00  0.00     0.037 C 
HETATM   39 BR1  UNL     1      25.820   3.157 -21.829  1.00  0.00    -0.076 Br
ENDBRANCH  33  36
ENDBRANCH  27  32
ENDBRANCH  24  27
ENDBRANCH   9  23
ENDBRANCH   6   9
ENDBRANCH   4   5
ENDBRANCH   3   4
TORSDOF 12
ENDMDL
MODEL 2
REMARK VINA RESULT: -7.036080867      1.483      3.026
REMARK  12 active torsions:
REMARK  status: ('A' for Active; 'I' for Inactive)
REMARK    1  A    between atoms: C3_3  and  C4_4 
REMARK    2  A    between atoms: C4_4  and  N1_5 
REMARK       I    between atoms: N1_5  and  C5_7 
REMARK    3  A    between atoms: C5_7  and  C6_9 
REMARK    4  A    between atoms: C6_9  and  C7_10 
REMARK    5  A    between atoms: C6_9  and  N5_23 
REMARK    6  A    between atoms: C7_10  and  C8_11 
REMARK    7  A    between atoms: C10_15  and  N3_16 
REMARK       I    between atoms: N3_16  and  C11_18 
REMARK       I    between atoms: N5_23  and  C13_25 
REMARK    8  A    between atoms: C13_25  and  C14_27 
REMARK    9  A    between atoms: C14_27  and  C15_28 
REMARK   10  A    between atoms: C14_27  and  N6_32 
REMARK   11  A    between atoms: C15_28  and  C16_29 
REMARK       I    between atoms: N6_32  and  C19_34 
REMARK   12  A    between atoms: C19_34  and  C20_36 
ROOT
HETATM    1  C1  UNL     1      27.695  14.506 -17.108  1.00  0.00     0.112 C 
HETATM    2  C2  UNL     1      28.630  14.041 -18.150  1.00  0.00    -0.109 C 
HETATM    3  C3  UNL     1      29.418  13.648 -18.989  1.00  0.00    -0.087 C 
ENDROOT
BRANCH   3   4
HETATM    4  C4  UNL     1      30.391  13.188 -19.983  1.00  0.00     0.217 C 
BRANCH   4   5
HETATM    5  N1  UNL     1      30.146  11.845 -20.411  1.00  0.00    -0.349 N 
HETATM    6  C5  UNL     1      30.401  11.455 -21.790  1.00  0.00     0.241 C 
HETATM    7  O1  UNL     1      30.846  12.327 -22.603  1.00  0.00    -0.271 OA
ATOM      8  H1  UNL     1      29.789  11.158 -19.746  1.00  0.00     0.163 HD
BRANCH   6   9
HETATM    9  C6  UNL     1      30.147  10.106 -22.210  1.00  0.00     0.182 C 
BRANCH   9  10
HETATM   10  C7  UNL     1      30.079   9.884 -23.681  1.00  0.00     0.094 C 
BRANCH  10  11
HETATM   11  C8  UNL     1      31.214   9.338 -24.421  1.00  0.00     0.045 A 
HETATM   12  C9  UNL     1      31.201   7.999 -24.924  1.00  0.00     0.131 A 
HETATM   13  N2  UNL     1      32.307   7.783 -25.649  1.00  0.00    -0.200 N 
HETATM   14  C10 UNL     1      33.027   8.923 -25.625  1.00  0.00     0.684 A 
ATOM     15  H2  UNL     1      32.558   6.919 -26.128  1.00  0.00     0.183 HD
HETATM   16  N4  UNL     1      32.357   9.834 -24.887  1.00  0.00    -0.194 N 
ATOM     17  H4  UNL     1      32.686  10.783 -24.709  1.00  0.00     0.184 HD
BRANCH  14  18
HETATM   18  N3  UNL     1      34.121   9.121 -26.244  1.00  0.00    -0.160 N 
HETATM   19  C11 UNL     1      34.577   8.231 -27.247  1.00  0.00     0.231 C 
HETATM   20  C12 UNL     1      34.191   8.447 -28.697  1.00  0.00     0.118 C 
HETATM   21  O2  UNL     1      35.306   7.254 -26.966  1.00  0.00    -0.273 OA
ATOM     22  H3  UNL     1      34.683   9.940 -26.011  1.00  0.00     0.187 HD
ENDBRANCH  14  18
ENDBRANCH  10  11
ENDBRANCH   9  10
BRANCH   9  23
HETATM   23  N5  UNL     1      28.884   9.522 -21.691  1.00  0.00    -0.346 N 
HETATM   24  C13 UNL     1      28.920   8.158 -21.373  1.00  0.00     0.241 C 
HETATM   25  O3  UNL     1      30.040   7.529 -21.506  1.00  0.00    -0.271 OA
ATOM     26  H5  UNL     1      28.040  10.082 -21.573  1.00  0.00     0.163 HD
BRANCH  24  27
HETATM   27  C14 UNL     1      27.748   7.357 -20.918  1.00  0.00     0.177 C 
BRANCH  27  28
HETATM   28  C15 UNL     1      27.740   6.233 -21.939  1.00  0.00     0.038 C 
BRANCH  28  29
HETATM   29  C16 UNL     1      27.222   4.919 -21.698  1.00  0.00    -0.020 C 
HETATM   30  C17 UNL     1      25.822   4.569 -21.455  1.00  0.00     0.009 C 
HETATM   31  C18 UNL     1      28.023   4.390 -20.450  1.00  0.00     0.009 C 
ENDBRANCH  28  29
ENDBRANCH  27  28
BRANCH  27  32
HETATM   32  N6  UNL     1      26.592   8.225 -21.226  1.00  0.00    -0.346 N 
HETATM   33  C19 UNL     1      25.483   8.169 -20.362  1.00  0.00     0.237 C 
HETATM   34  O4  UNL     1      25.494   7.386 -19.344  1.00  0.00    -0.272 OA
ATOM     35  H6  UNL     1      26.597   8.843 -22.037  1.00  0.00     0.163 HD
BRANCH  33  36
HETATM   36  C20 UNL     1      24.253   8.964 -20.529  1.00  0.00     0.091 C 
HETATM   37  C21 UNL     1      23.236   8.503 -19.529  1.00  0.00     0.037 C 
HETATM   38  C22 UNL     1      24.514  10.463 -20.336  1.00  0.00     0.037 C 
HETATM   39 BR1  UNL     1      23.550   8.778 -22.333  1.00  0.00    -0.076 Br
ENDBRANCH  33  36
ENDBRANCH  27  32
ENDBRANCH  24  27
ENDBRANCH   9  23
ENDBRANCH   6   9
ENDBRANCH   4   5
ENDBRANCH   3   4
TORSDOF 12
ENDMDL
MODEL 3
REMARK VINA RESULT: -7.021569261      2.643      5.918
REMARK  12 active torsions:
REMARK  status: ('A' for Active; 'I' for Inactive)
REMARK    1  A    between atoms: C3_3  and  C4_4 
REMARK    2  A    between atoms: C4_4  and  N1_5 
REMARK       I    between atoms: N1_5  and  C5_7 
REMARK    3  A    between atoms: C5_7  and  C6_9 
REMARK    4  A    between atoms: C6_9  and  C7_10 
REMARK    5  A    between atoms: C6_9  and  N5_23 
REMARK    6  A    between atoms: C7_10  and  C8_11 
REMARK    7  A    between atoms: C10_15  and  N3_16 
REMARK       I    between atoms: N3_16  and  C11_18 
REMARK       I    between atoms: N5_23  and  C13_25 
REMARK    8  A    between atoms: C13_25  and  C14_27 
REMARK    9  A    between atoms: C14_27  and  C15_28 
REMARK   10  A    between atoms: C14_27  and  N6_32 
REMARK   11  A    between atoms: C15_28  and  C16_29 
REMARK       I    between atoms: N6_32  and  C19_34 
REMARK   12  A    between atoms: C19_34  and  C20_36 
ROOT
HETATM    1  C1  UNL     1      22.814   8.949 -20.165  1.00  0.00     0.112 C 
HETATM    2  C2  UNL     1      24.259   8.651 -20.148  1.00  0.00    -0.109 C 
HETATM    3  C3  UNL     1      25.447   8.385 -20.152  1.00  0.00    -0.087 C 
ENDROOT
BRANCH   3   4
HETATM    4  C4  UNL     1      26.868   8.033 -20.153  1.00  0.00     0.217 C 
BRANCH   4   5
HETATM    5  N1  UNL     1      27.635   8.854 -21.039  1.00  0.00    -0.349 N 
HETATM    6  C5  UNL     1      28.705   8.273 -21.837  1.00  0.00     0.241 C 
HETATM    7  O1  UNL     1      28.944   7.027 -21.732  1.00  0.00    -0.271 OA
ATOM      8  H1  UNL     1      27.432   9.850 -21.111  1.00  0.00     0.163 HD
BRANCH   6   9
HETATM    9  C6  UNL     1      29.473   9.105 -22.720  1.00  0.00     0.182 C 
BRANCH   9  10
HETATM   10  C7  UNL     1      30.811   8.582 -23.110  1.00  0.00     0.094 C 
BRANCH  10  11
HETATM   11  C8  UNL     1      31.135   8.286 -24.503  1.00  0.00     0.045 A 
HETATM   12  C9  UNL     1      30.111   8.024 -25.467  1.00  0.00     0.131 A 
HETATM   13  N2  UNL     1      30.663   7.887 -26.680  1.00  0.00    -0.200 N 
HETATM   14  C10 UNL     1      31.994   8.044 -26.531  1.00  0.00     0.684 A 
ATOM     15  H2  UNL     1      30.170   7.699 -27.552  1.00  0.00     0.183 HD
HETATM   16  N4  UNL     1      32.251   8.279 -25.227  1.00  0.00    -0.194 N 
ATOM     17  H4  UNL     1      33.184   8.432 -24.844  1.00  0.00     0.184 HD
BRANCH  14  18
HETATM   18  N3  UNL     1      32.851   8.032 -27.472  1.00  0.00    -0.160 N 
HETATM   19  C11 UNL     1      34.229   8.240 -27.221  1.00  0.00     0.231 C 
HETATM   20  C12 UNL     1      35.142   7.068 -26.925  1.00  0.00     0.118 C 
HETATM   21  O2  UNL     1      34.725   9.389 -27.241  1.00  0.00    -0.273 OA
ATOM     22  H3  UNL     1      32.537   7.867 -28.428  1.00  0.00     0.187 HD
ENDBRANCH  14  18
ENDBRANCH  10  11
ENDBRANCH   9  10
BRANCH   9  23
HETATM   23  N5  UNL     1      29.747  10.470 -22.203  1.00  0.00    -0.346 N 
HETATM   24  C13 UNL     1      29.389  11.532 -23.042  1.00  0.00     0.241 C 
HETATM   25  O3  UNL     1      28.812  11.255 -24.165  1.00  0.00    -0.271 OA
ATOM     26  H5  UNL     1      30.173  10.625 -21.289  1.00  0.00     0.163 HD
BRANCH  24  27
HETATM   27  C14 UNL     1      29.651  12.972 -22.757  1.00  0.00     0.177 C 
BRANCH  27  28
HETATM   28  C15 UNL     1      31.123  13.084 -23.110  1.00  0.00     0.038 C 
BRANCH  28  29
HETATM   29  C16 UNL     1      31.646  13.886 -24.176  1.00  0.00    -0.020 C 
HETATM   30  C17 UNL     1      30.912  14.892 -24.945  1.00  0.00     0.009 C 
HETATM   31  C18 UNL     1      32.195  12.852 -25.229  1.00  0.00     0.009 C 
ENDBRANCH  28  29
ENDBRANCH  27  28
BRANCH  27  32
HETATM   32  N6  UNL     1      29.554  13.059 -21.285  1.00  0.00    -0.346 N 
HETATM   33  C19 UNL     1      28.288  13.312 -20.725  1.00  0.00     0.237 C 
HETATM   34  O4  UNL     1      27.263  13.459 -21.484  1.00  0.00    -0.272 OA
ATOM     35  H6  UNL     1      30.377  12.939 -20.694  1.00  0.00     0.163 HD
BRANCH  33  36
HETATM   36  C20 UNL     1      28.023  13.432 -19.281  1.00  0.00     0.091 C 
HETATM   37  C21 UNL     1      29.173  14.144 -18.633  1.00  0.00     0.037 C 
HETATM   38  C22 UNL     1      26.726  14.201 -19.002  1.00  0.00     0.037 C 
HETATM   39 BR1  UNL     1      27.781  11.679 -18.474  1.00  0.00    -0.076 Br
ENDBRANCH  33  36
ENDBRANCH  27  32
ENDBRANCH  24  27
ENDBRANCH   9  23
ENDBRANCH   6   9
ENDBRANCH   4   5
ENDBRANCH   3   4
TORSDOF 12
ENDMDL
MODEL 4
REMARK VINA RESULT: -7.009216512      2.614      6.553
REMARK  12 active torsions:
REMARK  status: ('A' for Active; 'I' for Inactive)
REMARK    1  A    between atoms: C3_3  and  C4_4 
REMARK    2  A    between atoms: C4_4  and  N1_5 
REMARK       I    between atoms: N1_5  and  C5_7 
REMARK    3  A    between atoms: C5_7  and  C6_9 
REMARK    4  A    between atoms: C6_9  and  C7_10 
REMARK    5  A    between atoms: C6_9  and  N5_23 
REMARK    6  A    between atoms: C7_10  and  C8_11 
REMARK    7  A    between atoms: C10_15  and  N3_16 
REMARK       I    between atoms: N3_16  and  C11_18 
REMARK       I    between atoms: N5_23  and  C13_25 
REMARK    8  A    between atoms: C13_25  and  C14_27 
REMARK    9  A    between atoms: C14_27  and  C15_28 
REMARK   10  A    between atoms: C14_27  and  N6_32 
REMARK   11  A    between atoms: C15_28  and  C16_29 
REMARK       I    between atoms: N6_32  and  C19_34 
REMARK   12  A    between atoms: C19_34  and  C20_36 
ROOT
HETATM    1  C1  UNL     1      28.058   2.433 -21.892  1.00  0.00     0.112 C 
HETATM    2  C2  UNL     1      27.865   3.841 -21.495  1.00  0.00    -0.109 C 
HETATM    3  C3  UNL     1      27.689   5.004 -21.187  1.00  0.00    -0.087 C 
ENDROOT
BRANCH   3   4
HETATM    4  C4  UNL     1      27.479   6.413 -20.848  1.00  0.00     0.217 C 
BRANCH   4   5
HETATM    5  N1  UNL     1      28.471   7.269 -21.422  1.00  0.00    -0.349 N 
HETATM    6  C5  UNL     1      28.132   8.146 -22.535  1.00  0.00     0.241 C 
HETATM    7  O1  UNL     1      26.942   8.135 -22.984  1.00  0.00    -0.271 OA
ATOM      8  H1  UNL     1      29.421   7.265 -21.051  1.00  0.00     0.163 HD
BRANCH   6   9
HETATM    9  C6  UNL     1      29.136   8.997 -23.107  1.00  0.00     0.182 C 
BRANCH   9  10
HETATM   10  C7  UNL     1      30.503   8.416 -23.209  1.00  0.00     0.094 C 
BRANCH  10  11
HETATM   11  C8  UNL     1      31.303   8.563 -24.423  1.00  0.00     0.045 A 
HETATM   12  C9  UNL     1      31.890   9.818 -24.780  1.00  0.00     0.131 A 
HETATM   13  N2  UNL     1      32.653   9.660 -25.871  1.00  0.00    -0.200 N 
HETATM   14  C10 UNL     1      32.572   8.362 -26.227  1.00  0.00     0.684 A 
ATOM     15  H2  UNL     1      33.192  10.385 -26.343  1.00  0.00     0.183 HD
HETATM   16  N4  UNL     1      31.762   7.730 -25.351  1.00  0.00    -0.194 N 
ATOM     17  H4  UNL     1      31.532   6.737 -25.396  1.00  0.00     0.184 HD
BRANCH  14  18
HETATM   18  N3  UNL     1      33.202   7.818 -27.190  1.00  0.00    -0.160 N 
HETATM   19  C11 UNL     1      34.547   8.156 -27.480  1.00  0.00     0.231 C 
HETATM   20  C12 UNL     1      35.687   7.389 -26.839  1.00  0.00     0.118 C 
HETATM   21  O2  UNL     1      34.826   9.085 -28.269  1.00  0.00    -0.273 OA
ATOM     22  H3  UNL     1      32.728   7.123 -27.765  1.00  0.00     0.187 HD
ENDBRANCH  14  18
ENDBRANCH  10  11
ENDBRANCH   9  10
BRANCH   9  23
HETATM   23  N5  UNL     1      29.337  10.285 -22.394  1.00  0.00    -0.346 N 
HETATM   24  C13 UNL     1      28.995  11.443 -23.103  1.00  0.00     0.241 C 
HETATM   25  O3  UNL     1      28.494  11.309 -24.287  1.00  0.00    -0.271 OA
ATOM     26  H5  UNL     1      29.702  10.323 -21.442  1.00  0.00     0.163 HD
BRANCH  24  27
HETATM   27  C14 UNL     1      29.194  12.836 -22.611  1.00  0.00     0.177 C 
BRANCH  27  28
HETATM   28  C15 UNL     1      30.678  13.033 -22.863  1.00  0.00     0.038 C 
BRANCH  28  29
HETATM   29  C16 UNL     1      31.246  13.423 -24.119  1.00  0.00    -0.020 C 
HETATM   30  C17 UNL     1      32.622  13.865 -24.350  1.00  0.00     0.009 C 
HETATM   31  C18 UNL     1      30.324  14.591 -24.634  1.00  0.00     0.009 C 
ENDBRANCH  28  29
ENDBRANCH  27  28
BRANCH  27  32
HETATM   32  N6  UNL     1      29.018  12.717 -21.148  1.00  0.00    -0.346 N 
HETATM   33  C19 UNL     1      28.249  13.700 -20.499  1.00  0.00     0.237 C 
HETATM   34  O4  UNL     1      27.723  14.659 -21.172  1.00  0.00    -0.272 OA
ATOM     35  H6  UNL     1      29.440  11.949 -20.627  1.00  0.00     0.163 HD
BRANCH  33  36
HETATM   36  C20 UNL     1      27.982  13.729 -19.051  1.00  0.00     0.091 C 
HETATM   37  C21 UNL     1      29.013  14.589 -18.383  1.00  0.00     0.037 C 
HETATM   38  C22 UNL     1      26.583  14.277 -18.740  1.00  0.00     0.037 C 
HETATM   39 BR1  UNL     1      28.022  11.933 -18.304  1.00  0.00    -0.076 Br
ENDBRANCH  33  36
ENDBRANCH  27  32
ENDBRANCH  24  27
ENDBRANCH   9  23
ENDBRANCH   6   9
ENDBRANCH   4   5
ENDBRANCH   3   4
TORSDOF 12
ENDMDL
MODEL 5
REMARK VINA RESULT: -6.960768707      3.465      5.792
REMARK  12 active torsions:
REMARK  status: ('A' for Active; 'I' for Inactive)
REMARK    1  A    between atoms: C3_3  and  C4_4 
REMARK    2  A    between atoms: C4_4  and  N1_5 
REMARK       I    between atoms: N1_5  and  C5_7 
REMARK    3  A    between atoms: C5_7  and  C6_9 
REMARK    4  A    between atoms: C6_9  and  C7_10 
REMARK    5  A    between atoms: C6_9  and  N5_23 
REMARK    6  A    between atoms: C7_10  and  C8_11 
REMARK    7  A    between atoms: C10_15  and  N3_16 
REMARK       I    between atoms: N3_16  and  C11_18 
REMARK       I    between atoms: N5_23  and  C13_25 
REMARK    8  A    between atoms: C13_25  and  C14_27 
REMARK    9  A    between atoms: C14_27  and  C15_28 
REMARK   10  A    between atoms: C14_27  and  N6_32 
REMARK   11  A    between atoms: C15_28  and  C16_29 
REMARK       I    between atoms: N6_32  and  C19_34 
REMARK   12  A    between atoms: C19_34  and  C20_36 
ROOT
HETATM    1  C1  UNL     1      33.830   9.453 -26.689  1.00  0.00     0.112 C 
HETATM    2  C2  UNL     1      32.835   9.181 -25.634  1.00  0.00    -0.109 C 
HETATM    3  C3  UNL     1      32.009   8.933 -24.776  1.00  0.00    -0.087 C 
ENDROOT
BRANCH   3   4
HETATM    4  C4  UNL     1      30.992   8.627 -23.767  1.00  0.00     0.217 C 
BRANCH   4   5
HETATM    5  N1  UNL     1      30.582   9.785 -23.033  1.00  0.00    -0.349 N 
HETATM    6  C5  UNL     1      29.449  10.579 -23.486  1.00  0.00     0.241 C 
HETATM    7  O1  UNL     1      28.833  10.226 -24.541  1.00  0.00    -0.271 OA
ATOM      8  H1  UNL     1      31.087  10.055 -22.189  1.00  0.00     0.163 HD
BRANCH   6   9
HETATM    9  C6  UNL     1      29.048  11.742 -22.745  1.00  0.00     0.182 C 
BRANCH   9  10
HETATM   10  C7  UNL     1      30.119  12.737 -22.464  1.00  0.00     0.094 C 
BRANCH  10  11
HETATM   11  C8  UNL     1      30.773  13.475 -23.542  1.00  0.00     0.045 A 
HETATM   12  C9  UNL     1      30.055  14.423 -24.337  1.00  0.00     0.131 A 
HETATM   13  N2  UNL     1      30.901  15.032 -25.178  1.00  0.00    -0.200 N 
HETATM   14  C10 UNL     1      32.124  14.511 -24.959  1.00  0.00     0.684 A 
ATOM     15  H2  UNL     1      30.664  15.755 -25.858  1.00  0.00     0.183 HD
HETATM   16  N4  UNL     1      32.023  13.585 -23.981  1.00  0.00    -0.194 N 
ATOM     17  H4  UNL     1      32.807  13.039 -23.624  1.00  0.00     0.184 HD
BRANCH  14  18
HETATM   18  N3  UNL     1      33.199  14.875 -25.535  1.00  0.00    -0.160 N 
HETATM   19  C11 UNL     1      33.330  16.161 -26.115  1.00  0.00     0.231 C 
HETATM   20  C12 UNL     1      33.858  17.322 -25.296  1.00  0.00     0.118 C 
HETATM   21  O2  UNL     1      33.020  16.368 -27.309  1.00  0.00    -0.273 OA
ATOM     22  H3  UNL     1      33.984  14.226 -25.579  1.00  0.00     0.187 HD
ENDBRANCH  14  18
ENDBRANCH  10  11
ENDBRANCH   9  10
BRANCH   9  23
HETATM   23  N5  UNL     1      28.455  11.454 -21.413  1.00  0.00    -0.346 N 
HETATM   24  C13 UNL     1      27.081  11.692 -21.286  1.00  0.00     0.241 C 
HETATM   25  O3  UNL     1      26.431  12.092 -22.328  1.00  0.00    -0.271 OA
ATOM     26  H5  UNL     1      29.017  11.104 -20.637  1.00  0.00     0.163 HD
BRANCH  24  27
HETATM   27  C14 UNL     1      26.304  11.552 -20.021  1.00  0.00     0.177 C 
BRANCH  27  28
HETATM   28  C15 UNL     1      27.371  11.842 -18.981  1.00  0.00     0.038 C 
BRANCH  28  29
HETATM   29  C16 UNL     1      27.507  13.084 -18.279  1.00  0.00    -0.020 C 
HETATM   30  C17 UNL     1      26.633  14.252 -18.404  1.00  0.00     0.009 C 
HETATM   31  C18 UNL     1      28.957  13.589 -18.628  1.00  0.00     0.009 C 
ENDBRANCH  28  29
ENDBRANCH  27  28
BRANCH  27  32
HETATM   32  N6  UNL     1      26.016  10.104 -19.948  1.00  0.00    -0.346 N 
HETATM   33  C19 UNL     1      24.678   9.694 -20.098  1.00  0.00     0.237 C 
HETATM   34  O4  UNL     1      23.753  10.563 -20.293  1.00  0.00    -0.272 OA
ATOM     35  H6  UNL     1      26.761   9.425 -19.795  1.00  0.00     0.163 HD
BRANCH  33  36
HETATM   36  C20 UNL     1      24.224   8.293 -20.048  1.00  0.00     0.091 C 
HETATM   37  C21 UNL     1      25.246   7.476 -19.316  1.00  0.00     0.037 C 
HETATM   38  C22 UNL     1      22.867   8.160 -19.344  1.00  0.00     0.037 C 
HETATM   39 BR1  UNL     1      23.960   7.586 -21.841  1.00  0.00    -0.076 Br
ENDBRANCH  33  36
ENDBRANCH  27  32
ENDBRANCH  24  27
ENDBRANCH   9  23
ENDBRANCH   6   9
ENDBRANCH   4   5
ENDBRANCH   3   4
TORSDOF 12
ENDMDL
