MODEL 1
REMARK VINA RESULT: -6.996702827      0.000      0.000
REMARK  2 active torsions:
REMARK  status: ('A' for Active; 'I' for Inactive)
REMARK    1  A    between atoms: N1_1  and  N2_4 
REMARK       I    between atoms: N2_4  and  C1_6 
REMARK       I    between atoms: C1_6  and  N3_8 
REMARK    2  A    between atoms: C4_15  and  N6_16 
ROOT
HETATM    1  N2  UNL     1      33.670  18.649 -17.544  1.00  0.00    -0.257 N 
ATOM      2  H2  UNL     1      33.289  17.716 -17.699  1.00  0.00     0.191 HD
HETATM    3  C1  UNL     1      34.923  18.781 -16.904  1.00  0.00     0.350 C 
HETATM    4  O1  UNL     1      35.324  19.988 -16.750  1.00  0.00    -0.244 OA
HETATM    5  N3  UNL     1      35.729  17.709 -16.443  1.00  0.00    -0.196 N 
HETATM    6  C2  UNL     1      35.536  16.380 -16.484  1.00  0.00     0.351 A 
HETATM    7  O2  UNL     1      34.545  15.794 -16.969  1.00  0.00    -0.244 OA
HETATM    8  N4  UNL     1      36.610  15.762 -15.904  1.00  0.00    -0.243 N 
ATOM      9  H4  UNL     1      36.739  14.756 -15.795  1.00  0.00     0.192 HD
HETATM   10  N5  UNL     1      37.451  16.701 -15.512  1.00  0.00    -0.244 N 
HETATM   11  C3  UNL     1      38.655  16.901 -14.901  1.00  0.00     0.154 A 
HETATM   12  C4  UNL     1      38.913  18.251 -14.827  1.00  0.00     0.124 A 
HETATM   13  C5  UNL     1      37.820  18.853 -15.415  1.00  0.00     0.088 A 
HETATM   14  C6  UNL     1      36.926  17.891 -15.834  1.00  0.00     0.144 A 
ENDROOT
BRANCH   1  15
HETATM   15  N1  UNL     1      32.941  19.761 -17.967  1.00  0.00    -0.341 N 
ATOM     16  H12 UNL     1      33.457  20.593 -18.254  1.00  0.00     0.177 HD
ATOM     17  H11 UNL     1      31.921  19.757 -17.994  1.00  0.00     0.177 HD
ENDBRANCH   1  15
BRANCH  12  18
HETATM   18  N6  UNL     1      40.059  18.867 -14.263  1.00  0.00    -0.114 N 
HETATM   19  O3  UNL     1      40.379  20.048 -14.488  1.00  0.00    -0.532 OA
HETATM   20  O4  UNL     1      40.865  18.140 -13.427  1.00  0.00    -0.532 OA
ENDBRANCH  12  18
TORSDOF 2
ENDMDL
MODEL 2
REMARK VINA RESULT: -6.221146757      0.926      1.208
REMARK  2 active torsions:
REMARK  status: ('A' for Active; 'I' for Inactive)
REMARK    1  A    between atoms: N1_1  and  N2_4 
REMARK       I    between atoms: N2_4  and  C1_6 
REMARK       I    between atoms: C1_6  and  N3_8 
REMARK    2  A    between atoms: C4_15  and  N6_16 
ROOT
HETATM    1  N2  UNL     1      33.125  19.269 -17.707  1.00  0.00    -0.257 N 
ATOM      2  H2  UNL     1      32.729  18.440 -18.151  1.00  0.00     0.191 HD
HETATM    3  C1  UNL     1      34.349  19.157 -17.010  1.00  0.00     0.350 C 
HETATM    4  O1  UNL     1      34.771  20.247 -16.485  1.00  0.00    -0.244 OA
HETATM    5  N3  UNL     1      35.106  17.967 -16.861  1.00  0.00    -0.196 N 
HETATM    6  C2  UNL     1      34.883  16.720 -17.307  1.00  0.00     0.351 A 
HETATM    7  O2  UNL     1      33.903  16.342 -17.983  1.00  0.00    -0.244 OA
HETATM    8  N4  UNL     1      35.913  15.916 -16.899  1.00  0.00    -0.243 N 
ATOM      9  H4  UNL     1      36.012  14.920 -17.092  1.00  0.00     0.192 HD
HETATM   10  N5  UNL     1      36.756  16.663 -16.211  1.00  0.00    -0.244 N 
HETATM   11  C3  UNL     1      37.934  16.626 -15.522  1.00  0.00     0.154 A 
HETATM   12  C4  UNL     1      38.221  17.882 -15.037  1.00  0.00     0.124 A 
HETATM   13  C5  UNL     1      37.172  18.673 -15.459  1.00  0.00     0.088 A 
HETATM   14  C6  UNL     1      36.276  17.914 -16.180  1.00  0.00     0.144 A 
ENDROOT
BRANCH   1  15
HETATM   15  N1  UNL     1      32.443  20.484 -17.805  1.00  0.00    -0.341 N 
ATOM     16  H12 UNL     1      32.441  20.961 -18.707  1.00  0.00     0.177 HD
ATOM     17  H11 UNL     1      31.957  20.893 -17.007  1.00  0.00     0.177 HD
ENDBRANCH   1  15
BRANCH  12  18
HETATM   18  N6  UNL     1      39.353  18.259 -14.270  1.00  0.00    -0.114 N 
HETATM   19  O3  UNL     1      39.737  17.633 -13.266  1.00  0.00    -0.532 OA
HETATM   20  O4  UNL     1      40.072  19.365 -14.641  1.00  0.00    -0.532 OA
ENDBRANCH  12  18
TORSDOF 2
ENDMDL
MODEL 3
REMARK VINA RESULT: -6.073521943      1.724      5.323
REMARK  2 active torsions:
REMARK  status: ('A' for Active; 'I' for Inactive)
REMARK    1  A    between atoms: N1_1  and  N2_4 
REMARK       I    between atoms: N2_4  and  C1_6 
REMARK       I    between atoms: C1_6  and  N3_8 
REMARK    2  A    between atoms: C4_15  and  N6_16 
ROOT
HETATM    1  N2  UNL     1      40.713  18.565 -14.130  1.00  0.00    -0.257 N 
ATOM      2  H2  UNL     1      40.869  17.626 -13.763  1.00  0.00     0.191 HD
HETATM    3  C1  UNL     1      39.459  18.881 -14.698  1.00  0.00     0.350 C 
HETATM    4  O1  UNL     1      39.353  20.081 -15.133  1.00  0.00    -0.244 OA
HETATM    5  N3  UNL     1      38.359  17.993 -14.812  1.00  0.00    -0.196 N 
HETATM    6  C2  UNL     1      38.221  16.709 -14.441  1.00  0.00     0.351 A 
HETATM    7  O2  UNL     1      39.090  16.004 -13.887  1.00  0.00    -0.244 OA
HETATM    8  N4  UNL     1      36.960  16.290 -14.769  1.00  0.00    -0.243 N 
ATOM      9  H4  UNL     1      36.573  15.361 -14.605  1.00  0.00     0.192 HD
HETATM   10  N5  UNL     1      36.334  17.305 -15.335  1.00  0.00    -0.244 N 
HETATM   11  C3  UNL     1      35.147  17.679 -15.897  1.00  0.00     0.154 A 
HETATM   12  C4  UNL     1      35.224  18.992 -16.301  1.00  0.00     0.124 A 
HETATM   13  C5  UNL     1      36.500  19.393 -15.961  1.00  0.00     0.088 A 
HETATM   14  C6  UNL     1      37.175  18.348 -15.368  1.00  0.00     0.144 A 
ENDROOT
BRANCH   1  15
HETATM   15  N1  UNL     1      41.745  19.502 -14.057  1.00  0.00    -0.341 N 
ATOM     16  H12 UNL     1      41.851  20.033 -13.193  1.00  0.00     0.177 HD
ATOM     17  H11 UNL     1      42.382  19.662 -14.838  1.00  0.00     0.177 HD
ENDBRANCH   1  15
BRANCH  12  18
HETATM   18  N6  UNL     1      34.202  19.750 -16.928  1.00  0.00    -0.114 N 
HETATM   19  O3  UNL     1      33.147  20.078 -16.357  1.00  0.00    -0.532 OA
HETATM   20  O4  UNL     1      34.370  20.148 -18.228  1.00  0.00    -0.532 OA
ENDBRANCH  12  18
TORSDOF 2
ENDMDL
MODEL 4
REMARK VINA RESULT: -6.001831166      1.536      5.429
REMARK  2 active torsions:
REMARK  status: ('A' for Active; 'I' for Inactive)
REMARK    1  A    between atoms: N1_1  and  N2_4 
REMARK       I    between atoms: N2_4  and  C1_6 
REMARK       I    between atoms: C1_6  and  N3_8 
REMARK    2  A    between atoms: C4_15  and  N6_16 
ROOT
HETATM    1  N2  UNL     1      41.213  19.180 -14.146  1.00  0.00    -0.257 N 
ATOM      2  H2  UNL     1      41.602  18.355 -13.689  1.00  0.00     0.191 HD
HETATM    3  C1  UNL     1      39.881  19.140 -14.617  1.00  0.00     0.350 C 
HETATM    4  O1  UNL     1      39.476  20.219 -15.177  1.00  0.00    -0.244 OA
HETATM    5  N3  UNL     1      39.003  18.031 -14.512  1.00  0.00    -0.196 N 
HETATM    6  C2  UNL     1      39.185  16.811 -13.979  1.00  0.00     0.351 A 
HETATM    7  O2  UNL     1      40.228  16.391 -13.437  1.00  0.00    -0.244 OA
HETATM    8  N4  UNL     1      38.029  16.092 -14.125  1.00  0.00    -0.243 N 
ATOM      9  H4  UNL     1      37.874  15.133 -13.814  1.00  0.00     0.192 HD
HETATM   10  N5  UNL     1      37.151  16.862 -14.740  1.00  0.00    -0.244 N 
HETATM   11  C3  UNL     1      35.873  16.893 -15.218  1.00  0.00     0.154 A 
HETATM   12  C4  UNL     1      35.623  18.125 -15.780  1.00  0.00     0.124 A 
HETATM   13  C5  UNL     1      36.798  18.830 -15.622  1.00  0.00     0.088 A 
HETATM   14  C6  UNL     1      37.732  18.045 -14.982  1.00  0.00     0.144 A 
ENDROOT
BRANCH   1  15
HETATM   15  N1  UNL     1      42.010  20.316 -14.291  1.00  0.00    -0.341 N 
ATOM     16  H12 UNL     1      41.913  21.062 -13.601  1.00  0.00     0.177 HD
ATOM     17  H11 UNL     1      42.675  20.413 -15.059  1.00  0.00     0.177 HD
ENDBRANCH   1  15
BRANCH  12  18
HETATM   18  N6  UNL     1      34.414  18.553 -16.385  1.00  0.00    -0.114 N 
HETATM   19  O3  UNL     1      33.920  18.005 -17.386  1.00  0.00    -0.532 OA
HETATM   20  O4  UNL     1      33.744  19.623 -15.853  1.00  0.00    -0.532 OA
ENDBRANCH  12  18
TORSDOF 2
ENDMDL
MODEL 5
REMARK VINA RESULT: -5.755302815      1.707      2.855
REMARK  2 active torsions:
REMARK  status: ('A' for Active; 'I' for Inactive)
REMARK    1  A    between atoms: N1_1  and  N2_4 
REMARK       I    between atoms: N2_4  and  C1_6 
REMARK       I    between atoms: C1_6  and  N3_8 
REMARK    2  A    between atoms: C4_15  and  N6_16 
ROOT
HETATM    1  N2  UNL     1      33.703  16.737 -18.494  1.00  0.00    -0.257 N 
ATOM      2  H2  UNL     1      33.275  17.646 -18.668  1.00  0.00     0.191 HD
HETATM    3  C1  UNL     1      34.814  16.655 -17.625  1.00  0.00     0.350 C 
HETATM    4  O1  UNL     1      35.286  15.474 -17.466  1.00  0.00    -0.244 OA
HETATM    5  N3  UNL     1      35.412  17.748 -16.948  1.00  0.00    -0.196 N 
HETATM    6  C2  UNL     1      35.110  19.056 -16.949  1.00  0.00     0.351 A 
HETATM    7  O2  UNL     1      34.183  19.599 -17.586  1.00  0.00    -0.244 OA
HETATM    8  N4  UNL     1      35.989  19.711 -16.128  1.00  0.00    -0.243 N 
ATOM      9  H4  UNL     1      36.000  20.712 -15.935  1.00  0.00     0.192 HD
HETATM   10  N5  UNL     1      36.820  18.813 -15.632  1.00  0.00    -0.244 N 
HETATM   11  C3  UNL     1      37.895  18.661 -14.805  1.00  0.00     0.154 A 
HETATM   12  C4  UNL     1      38.256  17.334 -14.761  1.00  0.00     0.124 A 
HETATM   13  C5  UNL     1      37.359  16.695 -15.592  1.00  0.00     0.088 A 
HETATM   14  C6  UNL     1      36.480  17.614 -16.124  1.00  0.00     0.144 A 
ENDROOT
BRANCH   1  15
HETATM   15  N1  UNL     1      33.175  15.607 -19.122  1.00  0.00    -0.341 N 
ATOM     16  H12 UNL     1      32.978  15.662 -20.121  1.00  0.00     0.177 HD
ATOM     17  H11 UNL     1      32.988  14.745 -18.609  1.00  0.00     0.177 HD
ENDBRANCH   1  15
BRANCH  12  18
HETATM   18  N6  UNL     1      39.322  16.767 -14.017  1.00  0.00    -0.114 N 
HETATM   19  O3  UNL     1      39.445  15.545 -13.823  1.00  0.00    -0.532 OA
HETATM   20  O4  UNL     1      40.273  17.593 -13.478  1.00  0.00    -0.532 OA
ENDBRANCH  12  18
TORSDOF 2
ENDMDL
