MODEL 1
REMARK VINA RESULT: -6.443898236      0.000      0.000
REMARK  4 active torsions:
REMARK  status: ('A' for Active; 'I' for Inactive)
REMARK    1  A    between atoms: C3_3  and  C4_4 
REMARK    2  A    between atoms: C3_3  and  N3_12 
REMARK    3  A    between atoms: C4_4  and  N1_5 
REMARK    4  A    between atoms: C4_4  and  C5_9 
ROOT
HETATM    1  C1  UNL     1      33.716  19.725 -16.524  1.00  0.00     0.014 C 
HETATM    2  C2  UNL     1      34.305  18.885 -15.887  1.00  0.00    -0.087 C 
HETATM    3  C3  UNL     1      35.040  17.866 -15.131  1.00  0.00     0.230 C 
ENDROOT
BRANCH   3   4
HETATM    4  C4  UNL     1      34.559  16.516 -15.602  1.00  0.00     0.308 C 
BRANCH   4   5
HETATM    5  N1  UNL     1      34.952  15.445 -14.716  1.00  0.00    -0.064 N 
ATOM      6  H13 UNL     1      35.934  15.527 -14.455  1.00  0.00     0.275 HD
ATOM      7  H12 UNL     1      34.527  15.556 -13.795  1.00  0.00     0.275 HD
ATOM      8  H11 UNL     1      34.752  14.522 -15.102  1.00  0.00     0.275 HD
ENDBRANCH   4   5
BRANCH   4   9
HETATM    9  C5  UNL     1      35.088  16.227 -16.955  1.00  0.00     0.264 C 
HETATM   10  N2  UNL     1      34.212  16.238 -18.068  1.00  0.00    -0.060 NA
HETATM   11  O1  UNL     1      36.316  15.978 -17.069  1.00  0.00    -0.274 OA
ENDBRANCH   4   9
ENDBRANCH   3   4
BRANCH   3  12
HETATM   12  N3  UNL     1      36.460  18.015 -15.213  1.00  0.00    -0.219 N 
HETATM   13  N4  UNL     1      37.137  18.736 -16.120  1.00  0.00    -0.233 N 
HETATM   14  N5  UNL     1      38.412  18.600 -15.835  1.00  0.00    -0.247 N 
ATOM     15  H4  UNL     1      36.738  19.283 -16.882  1.00  0.00     0.208 HD
HETATM   16  C6  UNL     1      38.592  17.808 -14.762  1.00  0.00     0.330 A 
ATOM     17  H5  UNL     1      39.168  19.039 -16.359  1.00  0.00     0.192 HD
HETATM   18  O2  UNL     1      39.683  17.461 -14.211  1.00  0.00    -0.260 OA
HETATM   19  C7  UNL     1      37.325  17.433 -14.367  1.00  0.00     0.334 A 
HETATM   20  O3  UNL     1      37.086  16.681 -13.380  1.00  0.00    -0.260 OA
ENDBRANCH   3  12
TORSDOF 4
ENDMDL
MODEL 2
REMARK VINA RESULT: -6.392113946      2.096      4.390
REMARK  4 active torsions:
REMARK  status: ('A' for Active; 'I' for Inactive)
REMARK    1  A    between atoms: C3_3  and  C4_4 
REMARK    2  A    between atoms: C3_3  and  N3_12 
REMARK    3  A    between atoms: C4_4  and  N1_5 
REMARK    4  A    between atoms: C4_4  and  C5_9 
ROOT
HETATM    1  C1  UNL     1      35.565  16.705 -12.855  1.00  0.00     0.014 C 
HETATM    2  C2  UNL     1      36.054  17.208 -13.838  1.00  0.00    -0.087 C 
HETATM    3  C3  UNL     1      36.637  17.802 -15.046  1.00  0.00     0.230 C 
ENDROOT
BRANCH   3   4
HETATM    4  C4  UNL     1      38.009  17.203 -15.228  1.00  0.00     0.308 C 
BRANCH   4   5
HETATM    5  N1  UNL     1      38.139  15.908 -14.600  1.00  0.00    -0.064 N 
ATOM      6  H13 UNL     1      37.323  15.326 -14.791  1.00  0.00     0.275 HD
ATOM      7  H12 UNL     1      38.854  15.347 -15.062  1.00  0.00     0.275 HD
ATOM      8  H11 UNL     1      38.315  15.974 -13.598  1.00  0.00     0.275 HD
ENDBRANCH   4   5
BRANCH   4   9
HETATM    9  C5  UNL     1      39.041  18.105 -14.667  1.00  0.00     0.264 C 
HETATM   10  N2  UNL     1      40.017  17.589 -13.780  1.00  0.00    -0.060 NA
HETATM   11  O1  UNL     1      39.013  19.318 -15.002  1.00  0.00    -0.274 OA
ENDBRANCH   4   9
ENDBRANCH   3   4
BRANCH   3  12
HETATM   12  N3  UNL     1      35.806  17.662 -16.202  1.00  0.00    -0.219 N 
HETATM   13  N4  UNL     1      35.511  18.619 -17.095  1.00  0.00    -0.233 N 
HETATM   14  N5  UNL     1      34.723  18.069 -17.991  1.00  0.00    -0.247 N 
ATOM     15  H4  UNL     1      35.837  19.585 -17.080  1.00  0.00     0.208 HD
HETATM   16  C6  UNL     1      34.492  16.774 -17.710  1.00  0.00     0.330 A 
ATOM     17  H5  UNL     1      34.337  18.561 -18.796  1.00  0.00     0.192 HD
HETATM   18  O2  UNL     1      33.782  15.940 -18.355  1.00  0.00    -0.260 OA
HETATM   19  C7  UNL     1      35.196  16.519 -16.552  1.00  0.00     0.334 A 
HETATM   20  O3  UNL     1      35.223  15.395 -15.974  1.00  0.00    -0.260 OA
ENDBRANCH   3  12
TORSDOF 4
ENDMDL
MODEL 3
REMARK VINA RESULT: -6.336138063      2.365      4.564
REMARK  4 active torsions:
REMARK  status: ('A' for Active; 'I' for Inactive)
REMARK    1  A    between atoms: C3_3  and  C4_4 
REMARK    2  A    between atoms: C3_3  and  N3_12 
REMARK    3  A    between atoms: C4_4  and  N1_5 
REMARK    4  A    between atoms: C4_4  and  C5_9 
ROOT
HETATM    1  C1  UNL     1      35.486  16.417 -13.050  1.00  0.00     0.014 C 
HETATM    2  C2  UNL     1      35.900  17.102 -13.954  1.00  0.00    -0.087 C 
HETATM    3  C3  UNL     1      36.390  17.919 -15.069  1.00  0.00     0.230 C 
ENDROOT
BRANCH   3   4
HETATM    4  C4  UNL     1      37.756  17.401 -15.444  1.00  0.00     0.308 C 
BRANCH   4   5
HETATM    5  N1  UNL     1      37.957  16.026 -15.049  1.00  0.00    -0.064 N 
ATOM      6  H13 UNL     1      37.187  15.695 -14.469  1.00  0.00     0.275 HD
ATOM      7  H12 UNL     1      37.847  15.396 -15.844  1.00  0.00     0.275 HD
ATOM      8  H11 UNL     1      38.854  15.877 -14.587  1.00  0.00     0.275 HD
ENDBRANCH   4   5
BRANCH   4   9
HETATM    9  C5  UNL     1      38.809  18.231 -14.815  1.00  0.00     0.264 C 
HETATM   10  N2  UNL     1      39.689  17.651 -13.870  1.00  0.00    -0.060 NA
HETATM   11  O1  UNL     1      38.885  19.443 -15.148  1.00  0.00    -0.274 OA
ENDBRANCH   4   9
ENDBRANCH   3   4
BRANCH   3  12
HETATM   12  N3  UNL     1      35.485  17.965 -16.176  1.00  0.00    -0.219 N 
HETATM   13  N4  UNL     1      35.527  17.198 -17.276  1.00  0.00    -0.233 N 
HETATM   14  N5  UNL     1      34.519  17.567 -18.032  1.00  0.00    -0.247 N 
ATOM     15  H4  UNL     1      36.210  16.470 -17.483  1.00  0.00     0.208 HD
HETATM   16  C6  UNL     1      33.813  18.557 -17.458  1.00  0.00     0.330 A 
ATOM     17  H5  UNL     1      34.299  17.155 -18.939  1.00  0.00     0.192 HD
HETATM   18  O2  UNL     1      32.782  19.153 -17.902  1.00  0.00    -0.260 OA
HETATM   19  C7  UNL     1      34.445  18.809 -16.258  1.00  0.00     0.334 A 
HETATM   20  O3  UNL     1      34.066  19.685 -15.430  1.00  0.00    -0.260 OA
ENDBRANCH   3  12
TORSDOF 4
ENDMDL
MODEL 4
REMARK VINA RESULT: -6.215684795      1.735      2.351
REMARK  4 active torsions:
REMARK  status: ('A' for Active; 'I' for Inactive)
REMARK    1  A    between atoms: C3_3  and  C4_4 
REMARK    2  A    between atoms: C3_3  and  N3_12 
REMARK    3  A    between atoms: C4_4  and  N1_5 
REMARK    4  A    between atoms: C4_4  and  C5_9 
ROOT
HETATM    1  C1  UNL     1      35.506  16.542 -12.964  1.00  0.00     0.014 C 
HETATM    2  C2  UNL     1      35.870  16.868 -14.068  1.00  0.00    -0.087 C 
HETATM    3  C3  UNL     1      36.324  17.284 -15.399  1.00  0.00     0.230 C 
ENDROOT
BRANCH   3   4
HETATM    4  C4  UNL     1      35.236  18.135 -16.004  1.00  0.00     0.308 C 
BRANCH   4   5
HETATM    5  N1  UNL     1      34.319  18.652 -15.013  1.00  0.00    -0.064 N 
ATOM      6  H13 UNL     1      33.417  18.179 -15.068  1.00  0.00     0.275 HD
ATOM      7  H12 UNL     1      34.598  18.370 -14.074  1.00  0.00     0.275 HD
ATOM      8  H11 UNL     1      34.206  19.664 -15.073  1.00  0.00     0.275 HD
ENDBRANCH   4   5
BRANCH   4   9
HETATM    9  C5  UNL     1      34.466  17.352 -16.997  1.00  0.00     0.264 C 
HETATM   10  N2  UNL     1      34.760  15.981 -17.190  1.00  0.00    -0.060 NA
HETATM   11  O1  UNL     1      33.563  17.944 -17.645  1.00  0.00    -0.274 OA
ENDBRANCH   4   9
ENDBRANCH   3   4
BRANCH   3  12
HETATM   12  N3  UNL     1      37.600  17.932 -15.383  1.00  0.00    -0.219 N 
HETATM   13  N4  UNL     1      37.841  19.227 -15.638  1.00  0.00    -0.233 N 
HETATM   14  N5  UNL     1      39.138  19.400 -15.516  1.00  0.00    -0.247 N 
ATOM     15  H4  UNL     1      37.152  19.938 -15.879  1.00  0.00     0.208 HD
HETATM   16  C6  UNL     1      39.756  18.251 -15.187  1.00  0.00     0.330 A 
ATOM     17  H5  UNL     1      39.615  20.291 -15.652  1.00  0.00     0.192 HD
HETATM   18  O2  UNL     1      40.995  18.049 -14.989  1.00  0.00    -0.260 OA
HETATM   19  C7  UNL     1      38.754  17.307 -15.104  1.00  0.00     0.334 A 
HETATM   20  O3  UNL     1      38.949  16.093 -14.812  1.00  0.00    -0.260 OA
ENDBRANCH   3  12
TORSDOF 4
ENDMDL
MODEL 5
REMARK VINA RESULT: -6.210903521      1.403      1.644
REMARK  4 active torsions:
REMARK  status: ('A' for Active; 'I' for Inactive)
REMARK    1  A    between atoms: C3_3  and  C4_4 
REMARK    2  A    between atoms: C3_3  and  N3_12 
REMARK    3  A    between atoms: C4_4  and  N1_5 
REMARK    4  A    between atoms: C4_4  and  C5_9 
ROOT
HETATM    1  C1  UNL     1      33.728  19.928 -15.722  1.00  0.00     0.014 C 
HETATM    2  C2  UNL     1      34.593  19.087 -15.751  1.00  0.00    -0.087 C 
HETATM    3  C3  UNL     1      35.661  18.082 -15.795  1.00  0.00     0.230 C 
ENDROOT
BRANCH   3   4
HETATM    4  C4  UNL     1      35.537  17.347 -17.106  1.00  0.00     0.308 C 
BRANCH   4   5
HETATM    5  N1  UNL     1      34.954  18.161 -18.148  1.00  0.00    -0.064 N 
ATOM      6  H13 UNL     1      34.214  17.657 -18.636  1.00  0.00     0.275 HD
ATOM      7  H12 UNL     1      34.402  18.922 -17.752  1.00  0.00     0.275 HD
ATOM      8  H11 UNL     1      35.649  18.516 -18.804  1.00  0.00     0.275 HD
ENDBRANCH   4   5
BRANCH   4   9
HETATM    9  C5  UNL     1      34.706  16.133 -16.936  1.00  0.00     0.264 C 
HETATM   10  N2  UNL     1      33.949  15.642 -18.027  1.00  0.00    -0.060 NA
HETATM   11  O1  UNL     1      34.702  15.572 -15.809  1.00  0.00    -0.274 OA
ENDBRANCH   4   9
ENDBRANCH   3   4
BRANCH   3  12
HETATM   12  N3  UNL     1      36.964  18.633 -15.582  1.00  0.00    -0.219 N 
HETATM   13  N4  UNL     1      37.357  19.886 -15.857  1.00  0.00    -0.233 N 
HETATM   14  N5  UNL     1      38.622  19.969 -15.510  1.00  0.00    -0.247 N 
ATOM     15  H4  UNL     1      36.785  20.629 -16.258  1.00  0.00     0.208 HD
HETATM   16  C6  UNL     1      39.071  18.803 -15.013  1.00  0.00     0.330 A 
ATOM     17  H5  UNL     1      39.189  20.811 -15.605  1.00  0.00     0.192 HD
HETATM   18  O2  UNL     1      40.233  18.523 -14.583  1.00  0.00    -0.260 OA
HETATM   19  C7  UNL     1      37.993  17.944 -15.064  1.00  0.00     0.334 A 
HETATM   20  O3  UNL     1      38.028  16.741 -14.677  1.00  0.00    -0.260 OA
ENDBRANCH   3  12
TORSDOF 4
ENDMDL
