MODEL 1
REMARK VINA RESULT: -8.428993740      0.000      0.000
REMARK  5 active torsions:
REMARK  status: ('A' for Active; 'I' for Inactive)
REMARK    1  A    between atoms: C1_4  and  C2_6 
REMARK    2  A    between atoms: C3_11  and  N5_12 
REMARK    3  A    between atoms: N5_12  and  N6_14 
REMARK    4  A    between atoms: C4_16  and  C5_17 
REMARK    5  A    between atoms: N7_23  and  N8_24 
ROOT
HETATM    1  C2  UNL     1     -11.077 -28.167 -26.392  1.00  0.00     0.201 A 
HETATM    2  N3  UNL     1     -11.056 -27.234 -27.354  1.00  0.00    -0.266 N 
ATOM      3  H3  UNL     1     -10.235 -26.711 -27.659  1.00  0.00     0.189 HD
HETATM    4  N4  UNL     1     -12.274 -27.105 -27.838  1.00  0.00    -0.127 N 
ATOM      5  H4  UNL     1     -12.561 -26.468 -28.581  1.00  0.00     0.206 HD
HETATM    6  C3  UNL     1     -13.064 -27.955 -27.184  1.00  0.00     0.734 A 
HETATM    7  N7  UNL     1     -12.335 -28.618 -26.286  1.00  0.00    -0.069 N 
ENDROOT
BRANCH   6   8
HETATM    8  N5  UNL     1     -14.315 -28.093 -27.402  1.00  0.00    -0.129 N 
ATOM      9  H5  UNL     1     -14.565 -28.799 -28.094  1.00  0.00     0.205 HD
BRANCH   8  10
HETATM   10  N6  UNL     1     -15.346 -27.439 -26.848  1.00  0.00    -0.297 N 
HETATM   11  C4  UNL     1     -16.574 -27.600 -26.715  1.00  0.00     0.119 C 
ATOM     12  H6  UNL     1     -15.039 -26.569 -26.415  1.00  0.00     0.186 HD
BRANCH  11  13
HETATM   13  C5  UNL     1     -17.434 -28.671 -27.158  1.00  0.00    -0.019 A 
HETATM   14  C6  UNL     1     -17.605 -28.964 -28.468  1.00  0.00     0.013 A 
HETATM   15  C7  UNL     1     -18.433 -29.997 -28.911  1.00  0.00     0.001 A 
HETATM   16  C8  UNL     1     -19.105 -30.748 -27.983  1.00  0.00     0.000 A 
HETATM   17  C9  UNL     1     -18.961 -30.484 -26.639  1.00  0.00     0.001 A 
HETATM   18  C10 UNL     1     -18.136 -29.459 -26.243  1.00  0.00     0.013 A 
ENDBRANCH  11  13
ENDBRANCH   8  10
ENDBRANCH   6   8
BRANCH   7  19
HETATM   19  N8  UNL     1     -12.752 -29.613 -25.374  1.00  0.00    -0.322 N 
ATOM     20  H82 UNL     1     -12.197 -30.351 -24.939  1.00  0.00     0.178 HD
ATOM     21  H81 UNL     1     -13.706 -29.713 -25.026  1.00  0.00     0.178 HD
ENDBRANCH   7  19
BRANCH   1  22
HETATM   22  C1  UNL     1      -9.924 -28.607 -25.603  1.00  0.00     0.158 C 
HETATM   23  N1  UNL     1      -9.435 -27.844 -24.685  1.00  0.00    -0.385 N 
ATOM     24  H12 UNL     1      -8.631 -28.150 -24.136  1.00  0.00     0.157 HD
ATOM     25  H11 UNL     1      -9.848 -26.929 -24.503  1.00  0.00     0.157 HD
HETATM   26  N2  UNL     1      -9.349 -29.879 -25.856  1.00  0.00    -0.079 NA
ENDBRANCH   1  22
TORSDOF 5
ENDMDL
MODEL 2
REMARK VINA RESULT: -8.307924163      1.196      2.191
REMARK  5 active torsions:
REMARK  status: ('A' for Active; 'I' for Inactive)
REMARK    1  A    between atoms: C1_4  and  C2_6 
REMARK    2  A    between atoms: C3_11  and  N5_12 
REMARK    3  A    between atoms: N5_12  and  N6_14 
REMARK    4  A    between atoms: C4_16  and  C5_17 
REMARK    5  A    between atoms: N7_23  and  N8_24 
ROOT
HETATM    1  C2  UNL     1     -11.218 -28.952 -26.018  1.00  0.00     0.201 A 
HETATM    2  N3  UNL     1     -12.239 -29.698 -25.574  1.00  0.00    -0.266 N 
ATOM      3  H3  UNL     1     -12.199 -30.364 -24.803  1.00  0.00     0.189 HD
HETATM    4  N4  UNL     1     -13.303 -29.428 -26.302  1.00  0.00    -0.127 N 
ATOM      5  H4  UNL     1     -14.227 -29.845 -26.194  1.00  0.00     0.206 HD
HETATM    6  C3  UNL     1     -12.957 -28.511 -27.205  1.00  0.00     0.734 A 
HETATM    7  N7  UNL     1     -11.668 -28.209 -27.040  1.00  0.00    -0.069 N 
ENDROOT
BRANCH   6   8
HETATM    8  N5  UNL     1     -13.749 -28.019 -28.076  1.00  0.00    -0.129 N 
ATOM      9  H5  UNL     1     -13.725 -27.003 -28.167  1.00  0.00     0.205 HD
BRANCH   8  10
HETATM   10  N6  UNL     1     -14.608 -28.650 -28.889  1.00  0.00    -0.297 N 
HETATM   11  C4  UNL     1     -15.831 -28.884 -28.934  1.00  0.00     0.119 C 
ATOM     12  H6  UNL     1     -14.127 -29.050 -29.694  1.00  0.00     0.186 HD
BRANCH  11  13
HETATM   13  C5  UNL     1     -16.891 -28.518 -28.025  1.00  0.00    -0.019 A 
HETATM   14  C6  UNL     1     -18.179 -28.875 -28.237  1.00  0.00     0.013 A 
HETATM   15  C7  UNL     1     -19.214 -28.527 -27.366  1.00  0.00     0.001 A 
HETATM   16  C8  UNL     1     -18.917 -27.794 -26.248  1.00  0.00     0.000 A 
HETATM   17  C9  UNL     1     -17.619 -27.409 -25.993  1.00  0.00     0.001 A 
HETATM   18  C10 UNL     1     -16.628 -27.771 -26.874  1.00  0.00     0.013 A 
ENDBRANCH  11  13
ENDBRANCH   8  10
ENDBRANCH   6   8
BRANCH   7  19
HETATM   19  N8  UNL     1     -10.878 -27.293 -27.769  1.00  0.00    -0.322 N 
ATOM     20  H82 UNL     1     -10.985 -26.281 -27.847  1.00  0.00     0.178 HD
ATOM     21  H81 UNL     1     -10.066 -27.551 -28.330  1.00  0.00     0.178 HD
ENDBRANCH   7  19
BRANCH   1  22
HETATM   22  C1  UNL     1      -9.858 -28.957 -25.477  1.00  0.00     0.158 C 
HETATM   23  N1  UNL     1      -9.421 -27.945 -24.806  1.00  0.00    -0.385 N 
ATOM     24  H12 UNL     1      -8.473 -27.948 -24.429  1.00  0.00     0.157 HD
ATOM     25  H11 UNL     1     -10.021 -27.134 -24.649  1.00  0.00     0.157 HD
HETATM   26  N2  UNL     1      -9.023 -30.083 -25.696  1.00  0.00    -0.079 NA
ENDBRANCH   1  22
TORSDOF 5
ENDMDL
MODEL 3
REMARK VINA RESULT: -8.069820430      0.510      1.481
REMARK  5 active torsions:
REMARK  status: ('A' for Active; 'I' for Inactive)
REMARK    1  A    between atoms: C1_4  and  C2_6 
REMARK    2  A    between atoms: C3_11  and  N5_12 
REMARK    3  A    between atoms: N5_12  and  N6_14 
REMARK    4  A    between atoms: C4_16  and  C5_17 
REMARK    5  A    between atoms: N7_23  and  N8_24 
ROOT
HETATM    1  C2  UNL     1     -11.524 -28.850 -25.770  1.00  0.00     0.201 A 
HETATM    2  N3  UNL     1     -12.401 -29.712 -25.236  1.00  0.00    -0.266 N 
ATOM      3  H3  UNL     1     -12.172 -30.480 -24.606  1.00  0.00     0.189 HD
HETATM    4  N4  UNL     1     -13.607 -29.400 -25.663  1.00  0.00    -0.127 N 
ATOM      5  H4  UNL     1     -14.473 -29.882 -25.423  1.00  0.00     0.206 HD
HETATM    6  C3  UNL     1     -13.494 -28.342 -26.466  1.00  0.00     0.734 A 
HETATM    7  N7  UNL     1     -12.209 -27.993 -26.540  1.00  0.00    -0.069 N 
ENDROOT
BRANCH   6   8
HETATM    8  N5  UNL     1     -14.474 -27.775 -27.056  1.00  0.00    -0.129 N 
ATOM      9  H5  UNL     1     -14.405 -27.726 -28.073  1.00  0.00     0.205 HD
BRANCH   8  10
HETATM   10  N6  UNL     1     -15.580 -27.234 -26.527  1.00  0.00    -0.297 N 
HETATM   11  C4  UNL     1     -16.797 -27.495 -26.470  1.00  0.00     0.119 C 
ATOM     12  H6  UNL     1     -15.366 -26.367 -26.033  1.00  0.00     0.186 HD
BRANCH  11  13
HETATM   13  C5  UNL     1     -17.545 -28.602 -27.015  1.00  0.00    -0.019 A 
HETATM   14  C6  UNL     1     -17.622 -28.837 -28.346  1.00  0.00     0.013 A 
HETATM   15  C7  UNL     1     -18.341 -29.904 -28.886  1.00  0.00     0.001 A 
HETATM   16  C8  UNL     1     -19.001 -30.753 -28.037  1.00  0.00     0.000 A 
HETATM   17  C9  UNL     1     -18.951 -30.552 -26.675  1.00  0.00     0.001 A 
HETATM   18  C10 UNL     1     -18.231 -29.489 -26.182  1.00  0.00     0.013 A 
ENDBRANCH  11  13
ENDBRANCH   8  10
ENDBRANCH   6   8
BRANCH   7  19
HETATM   19  N8  UNL     1     -11.625 -26.935 -27.271  1.00  0.00    -0.322 N 
ATOM     20  H82 UNL     1     -11.452 -25.975 -26.973  1.00  0.00     0.178 HD
ATOM     21  H81 UNL     1     -11.290 -27.014 -28.232  1.00  0.00     0.178 HD
ENDBRANCH   7  19
BRANCH   1  22
HETATM   22  C1  UNL     1     -10.077 -28.855 -25.545  1.00  0.00     0.158 C 
HETATM   23  N1  UNL     1      -9.509 -27.866 -24.942  1.00  0.00    -0.385 N 
ATOM     24  H12 UNL     1      -8.501 -27.869 -24.785  1.00  0.00     0.157 HD
ATOM     25  H11 UNL     1     -10.065 -27.074 -24.617  1.00  0.00     0.157 HD
HETATM   26  N2  UNL     1      -9.304 -29.955 -25.997  1.00  0.00    -0.079 NA
ENDBRANCH   1  22
TORSDOF 5
ENDMDL
MODEL 4
REMARK VINA RESULT: -8.059296128      0.533      1.859
REMARK  5 active torsions:
REMARK  status: ('A' for Active; 'I' for Inactive)
REMARK    1  A    between atoms: C1_4  and  C2_6 
REMARK    2  A    between atoms: C3_11  and  N5_12 
REMARK    3  A    between atoms: N5_12  and  N6_14 
REMARK    4  A    between atoms: C4_16  and  C5_17 
REMARK    5  A    between atoms: N7_23  and  N8_24 
ROOT
HETATM    1  C2  UNL     1     -11.540 -28.863 -25.749  1.00  0.00     0.201 A 
HETATM    2  N3  UNL     1     -12.417 -29.743 -25.244  1.00  0.00    -0.266 N 
ATOM      3  H3  UNL     1     -12.187 -30.530 -24.638  1.00  0.00     0.189 HD
HETATM    4  N4  UNL     1     -13.623 -29.419 -25.662  1.00  0.00    -0.127 N 
ATOM      5  H4  UNL     1     -14.488 -29.910 -25.438  1.00  0.00     0.206 HD
HETATM    6  C3  UNL     1     -13.511 -28.337 -26.430  1.00  0.00     0.734 A 
HETATM    7  N7  UNL     1     -12.227 -27.983 -26.492  1.00  0.00    -0.069 N 
ENDROOT
BRANCH   6   8
HETATM    8  N5  UNL     1     -14.491 -27.753 -27.004  1.00  0.00    -0.129 N 
ATOM      9  H5  UNL     1     -14.423 -27.674 -28.018  1.00  0.00     0.205 HD
BRANCH   8  10
HETATM   10  N6  UNL     1     -15.598 -27.228 -26.458  1.00  0.00    -0.297 N 
HETATM   11  C4  UNL     1     -16.812 -27.499 -26.399  1.00  0.00     0.119 C 
ATOM     12  H6  UNL     1     -15.387 -26.369 -25.951  1.00  0.00     0.186 HD
BRANCH  11  13
HETATM   13  C5  UNL     1     -17.556 -28.602 -26.957  1.00  0.00    -0.019 A 
HETATM   14  C6  UNL     1     -18.253 -29.468 -26.184  1.00  0.00     0.013 A 
HETATM   15  C7  UNL     1     -18.977 -30.539 -26.711  1.00  0.00     0.001 A 
HETATM   16  C8  UNL     1     -18.985 -30.727 -28.068  1.00  0.00     0.000 A 
HETATM   17  C9  UNL     1     -18.289 -29.870 -28.893  1.00  0.00     0.001 A 
HETATM   18  C10 UNL     1     -17.589 -28.827 -28.336  1.00  0.00     0.013 A 
ENDBRANCH  11  13
ENDBRANCH   8  10
ENDBRANCH   6   8
BRANCH   7  19
HETATM   19  N8  UNL     1     -11.644 -26.901 -27.189  1.00  0.00    -0.322 N 
ATOM     20  H82 UNL     1     -11.032 -26.168 -26.830  1.00  0.00     0.178 HD
ATOM     21  H81 UNL     1     -11.774 -26.719 -28.185  1.00  0.00     0.178 HD
ENDBRANCH   7  19
BRANCH   1  22
HETATM   22  C1  UNL     1     -10.094 -28.872 -25.523  1.00  0.00     0.158 C 
HETATM   23  N1  UNL     1      -9.517 -27.862 -24.964  1.00  0.00    -0.385 N 
ATOM     24  H12 UNL     1      -8.508 -27.869 -24.807  1.00  0.00     0.157 HD
ATOM     25  H11 UNL     1     -10.064 -27.051 -24.676  1.00  0.00     0.157 HD
HETATM   26  N2  UNL     1      -9.331 -29.999 -25.924  1.00  0.00    -0.079 NA
ENDBRANCH   1  22
TORSDOF 5
ENDMDL
MODEL 5
REMARK VINA RESULT: -8.050143340      0.998      1.530
REMARK  5 active torsions:
REMARK  status: ('A' for Active; 'I' for Inactive)
REMARK    1  A    between atoms: C1_4  and  C2_6 
REMARK    2  A    between atoms: C3_11  and  N5_12 
REMARK    3  A    between atoms: N5_12  and  N6_14 
REMARK    4  A    between atoms: C4_16  and  C5_17 
REMARK    5  A    between atoms: N7_23  and  N8_24 
ROOT
HETATM    1  C2  UNL     1     -10.922 -28.180 -26.437  1.00  0.00     0.201 A 
HETATM    2  N3  UNL     1     -10.799 -27.352 -27.484  1.00  0.00    -0.266 N 
ATOM      3  H3  UNL     1      -9.922 -26.972 -27.842  1.00  0.00     0.189 HD
HETATM    4  N4  UNL     1     -11.999 -27.112 -27.971  1.00  0.00    -0.127 N 
ATOM      5  H4  UNL     1     -12.214 -26.515 -28.770  1.00  0.00     0.206 HD
HETATM    6  C3  UNL     1     -12.880 -27.786 -27.235  1.00  0.00     0.734 A 
HETATM    7  N7  UNL     1     -12.226 -28.451 -26.281  1.00  0.00    -0.069 N 
ENDROOT
BRANCH   6   8
HETATM    8  N5  UNL     1     -14.142 -27.779 -27.431  1.00  0.00    -0.129 N 
ATOM      9  H5  UNL     1     -14.681 -27.190 -26.797  1.00  0.00     0.205 HD
BRANCH   8  10
HETATM   10  N6  UNL     1     -14.857 -28.438 -28.353  1.00  0.00    -0.297 N 
HETATM   11  C4  UNL     1     -16.048 -28.743 -28.551  1.00  0.00     0.119 C 
ATOM     12  H6  UNL     1     -14.259 -28.787 -29.102  1.00  0.00     0.186 HD
BRANCH  11  13
HETATM   13  C5  UNL     1     -17.229 -28.466 -27.769  1.00  0.00    -0.019 A 
HETATM   14  C6  UNL     1     -18.444 -28.966 -28.095  1.00  0.00     0.013 A 
HETATM   15  C7  UNL     1     -19.595 -28.705 -27.348  1.00  0.00     0.001 A 
HETATM   16  C8  UNL     1     -19.495 -27.909 -26.238  1.00  0.00     0.000 A 
HETATM   17  C9  UNL     1     -18.278 -27.378 -25.870  1.00  0.00     0.001 A 
HETATM   18  C10 UNL     1     -17.169 -27.658 -26.631  1.00  0.00     0.013 A 
ENDBRANCH  11  13
ENDBRANCH   8  10
ENDBRANCH   6   8
BRANCH   7  19
HETATM   19  N8  UNL     1     -12.752 -29.293 -25.276  1.00  0.00    -0.322 N 
ATOM     20  H82 UNL     1     -12.322 -30.108 -24.839  1.00  0.00     0.178 HD
ATOM     21  H81 UNL     1     -13.671 -29.176 -24.848  1.00  0.00     0.178 HD
ENDBRANCH   7  19
BRANCH   1  22
HETATM   22  C1  UNL     1      -9.822 -28.691 -25.616  1.00  0.00     0.158 C 
HETATM   23  N1  UNL     1      -9.300 -27.952 -24.697  1.00  0.00    -0.385 N 
ATOM     24  H12 UNL     1      -8.533 -28.308 -24.125  1.00  0.00     0.157 HD
ATOM     25  H11 UNL     1      -9.649 -27.007 -24.536  1.00  0.00     0.157 HD
HETATM   26  N2  UNL     1      -9.335 -30.004 -25.841  1.00  0.00    -0.079 NA
ENDBRANCH   1  22
TORSDOF 5
ENDMDL
