MODEL 1
REMARK VINA RESULT: -5.778370978      0.000      0.000
REMARK  5 active torsions:
REMARK  status: ('A' for Active; 'I' for Inactive)
REMARK    1  A    between atoms: N1_1  and  C1_4 
REMARK    2  A    between atoms: N3_8  and  C3_9 
REMARK    3  A    between atoms: C4_10  and  N4_11 
REMARK    4  A    between atoms: N4_11  and  N5_12 
REMARK    5  A    between atoms: N4_11  and  N6_15 
ROOT
HETATM    1  C1  UNL     1      53.121  -8.380  27.894  1.00  0.00     0.680 A 
HETATM    2  N2  UNL     1      52.204  -9.090  27.224  1.00  0.00    -0.187 N 
ATOM      3  H2  UNL     1      51.587  -8.621  26.561  1.00  0.00     0.185 HD
HETATM    4  C2  UNL     1      52.091 -10.409  27.417  1.00  0.00     0.210 A 
HETATM    5  N3  UNL     1      52.913 -11.048  28.303  1.00  0.00    -0.269 N 
HETATM    6  C5  UNL     1      53.825 -10.324  28.965  1.00  0.00     0.345 A 
HETATM    7  O1  UNL     1      54.634 -10.810  29.804  1.00  0.00    -0.246 OA
HETATM    8  N7  UNL     1      53.943  -8.974  28.769  1.00  0.00    -0.141 N 
ATOM      9  H7  UNL     1      54.642  -8.433  29.279  1.00  0.00     0.189 HD
ENDROOT
BRANCH   5  10
HETATM   10  C3  UNL     1      52.757 -12.433  28.472  1.00  0.00     0.123 C 
HETATM   11  C4  UNL     1      52.927 -13.406  27.629  1.00  0.00     0.153 C 
BRANCH  11  12
HETATM   12  N4  UNL     1      52.705 -14.767  28.033  1.00  0.00    -0.220 N 
BRANCH  12  13
HETATM   13  N5  UNL     1      53.179 -15.152  29.278  1.00  0.00    -0.325 N 
ATOM     14  H52 UNL     1      54.138 -14.930  29.545  1.00  0.00     0.178 HD
ATOM     15  H51 UNL     1      52.538 -15.651  29.894  1.00  0.00     0.178 HD
ENDBRANCH  12  13
BRANCH  12  16
HETATM   16  N6  UNL     1      52.045 -15.689  27.233  1.00  0.00    -0.325 N 
ATOM     17  H62 UNL     1      51.171 -16.104  27.556  1.00  0.00     0.178 HD
ATOM     18  H61 UNL     1      52.396 -15.979  26.321  1.00  0.00     0.178 HD
ENDBRANCH  12  16
ENDBRANCH  11  12
ENDBRANCH   5  10
BRANCH   1  19
HETATM   19  N1  UNL     1      53.241  -7.103  27.716  1.00  0.00    -0.234 N 
ATOM     20  H12 UNL     1      52.397  -6.565  27.515  1.00  0.00     0.174 HD
ATOM     21  H11 UNL     1      54.150  -6.645  27.774  1.00  0.00     0.174 HD
ENDBRANCH   1  19
TORSDOF 5
ENDMDL
MODEL 2
REMARK VINA RESULT: -5.574193714      2.340      3.066
REMARK  5 active torsions:
REMARK  status: ('A' for Active; 'I' for Inactive)
REMARK    1  A    between atoms: N1_1  and  C1_4 
REMARK    2  A    between atoms: N3_8  and  C3_9 
REMARK    3  A    between atoms: C4_10  and  N4_11 
REMARK    4  A    between atoms: N4_11  and  N5_12 
REMARK    5  A    between atoms: N4_11  and  N6_15 
ROOT
HETATM    1  C1  UNL     1      51.974  -8.990  28.303  1.00  0.00     0.680 A 
HETATM    2  N2  UNL     1      53.092  -8.874  29.032  1.00  0.00    -0.187 N 
ATOM      3  H2  UNL     1      53.393  -7.953  29.351  1.00  0.00     0.185 HD
HETATM    4  C2  UNL     1      53.816  -9.954  29.344  1.00  0.00     0.210 A 
HETATM    5  N3  UNL     1      53.421 -11.193  28.921  1.00  0.00    -0.269 N 
HETATM    6  C5  UNL     1      52.301 -11.293  28.194  1.00  0.00     0.345 A 
HETATM    7  O1  UNL     1      51.845 -12.385  27.752  1.00  0.00    -0.246 OA
HETATM    8  N7  UNL     1      51.558 -10.189  27.873  1.00  0.00    -0.141 N 
ATOM      9  H7  UNL     1      50.706 -10.277  27.318  1.00  0.00     0.189 HD
ENDROOT
BRANCH   5  10
HETATM   10  C3  UNL     1      54.214 -12.297  29.273  1.00  0.00     0.123 C 
HETATM   11  C4  UNL     1      55.493 -12.383  29.471  1.00  0.00     0.153 C 
BRANCH  11  12
HETATM   12  N4  UNL     1      56.093 -13.639  29.830  1.00  0.00    -0.220 N 
BRANCH  12  13
HETATM   13  N5  UNL     1      55.558 -14.789  29.267  1.00  0.00    -0.325 N 
ATOM     14  H52 UNL     1      55.923 -15.133  28.379  1.00  0.00     0.178 HD
ATOM     15  H51 UNL     1      54.806 -15.256  29.773  1.00  0.00     0.178 HD
ENDBRANCH  12  13
BRANCH  12  16
HETATM   16  N6  UNL     1      57.167 -13.736  30.703  1.00  0.00    -0.325 N 
ATOM     17  H62 UNL     1      56.997 -13.827  31.704  1.00  0.00     0.178 HD
ATOM     18  H61 UNL     1      58.136 -13.721  30.389  1.00  0.00     0.178 HD
ENDBRANCH  12  16
ENDBRANCH  11  12
ENDBRANCH   5  10
BRANCH   1  19
HETATM   19  N1  UNL     1      51.264  -7.952  27.995  1.00  0.00    -0.234 N 
ATOM     20  H12 UNL     1      51.472  -7.071  28.466  1.00  0.00     0.174 HD
ATOM     21  H11 UNL     1      50.518  -8.010  27.302  1.00  0.00     0.174 HD
ENDBRANCH   1  19
TORSDOF 5
ENDMDL
MODEL 3
REMARK VINA RESULT: -5.554452018      1.383      1.801
REMARK  5 active torsions:
REMARK  status: ('A' for Active; 'I' for Inactive)
REMARK    1  A    between atoms: N1_1  and  C1_4 
REMARK    2  A    between atoms: N3_8  and  C3_9 
REMARK    3  A    between atoms: C4_10  and  N4_11 
REMARK    4  A    between atoms: N4_11  and  N5_12 
REMARK    5  A    between atoms: N4_11  and  N6_15 
ROOT
HETATM    1  C1  UNL     1      52.798  -8.329  28.220  1.00  0.00     0.680 A 
HETATM    2  N2  UNL     1      52.961  -9.001  29.366  1.00  0.00    -0.187 N 
ATOM      3  H2  UNL     1      53.181  -8.493  30.223  1.00  0.00     0.185 HD
HETATM    4  C2  UNL     1      52.837 -10.333  29.398  1.00  0.00     0.210 A 
HETATM    5  N3  UNL     1      52.542 -11.023  28.256  1.00  0.00    -0.269 N 
HETATM    6  C5  UNL     1      52.383 -10.337  27.117  1.00  0.00     0.345 A 
HETATM    7  O1  UNL     1      52.109 -10.872  26.006  1.00  0.00    -0.246 OA
HETATM    8  N7  UNL     1      52.509  -8.974  27.082  1.00  0.00    -0.141 N 
ATOM      9  H7  UNL     1      52.385  -8.462  26.208  1.00  0.00     0.189 HD
ENDROOT
BRANCH   5  10
HETATM   10  C3  UNL     1      52.422 -12.420  28.338  1.00  0.00     0.123 C 
HETATM   11  C4  UNL     1      53.259 -13.355  28.007  1.00  0.00     0.153 C 
BRANCH  11  12
HETATM   12  N4  UNL     1      52.913 -14.739  28.185  1.00  0.00    -0.220 N 
BRANCH  12  13
HETATM   13  N5  UNL     1      53.344 -15.363  29.347  1.00  0.00    -0.325 N 
ATOM     14  H52 UNL     1      54.031 -14.902  29.944  1.00  0.00     0.178 HD
ATOM     15  H51 UNL     1      52.948 -16.277  29.566  1.00  0.00     0.178 HD
ENDBRANCH  12  13
BRANCH  12  16
HETATM   16  N6  UNL     1      52.178 -15.455  27.252  1.00  0.00    -0.325 N 
ATOM     17  H62 UNL     1      51.973 -15.040  26.343  1.00  0.00     0.178 HD
ATOM     18  H61 UNL     1      51.825 -16.395  27.431  1.00  0.00     0.178 HD
ENDBRANCH  12  16
ENDBRANCH  11  12
ENDBRANCH   5  10
BRANCH   1  19
HETATM   19  N1  UNL     1      52.915  -7.040  28.176  1.00  0.00    -0.234 N 
ATOM     20  H12 UNL     1      52.748  -6.514  29.034  1.00  0.00     0.174 HD
ATOM     21  H11 UNL     1      53.167  -6.562  27.311  1.00  0.00     0.174 HD
ENDBRANCH   1  19
TORSDOF 5
ENDMDL
MODEL 4
REMARK VINA RESULT: -5.527573650      1.521      2.237
REMARK  5 active torsions:
REMARK  status: ('A' for Active; 'I' for Inactive)
REMARK    1  A    between atoms: N1_1  and  C1_4 
REMARK    2  A    between atoms: N3_8  and  C3_9 
REMARK    3  A    between atoms: C4_10  and  N4_11 
REMARK    4  A    between atoms: N4_11  and  N5_12 
REMARK    5  A    between atoms: N4_11  and  N6_15 
ROOT
HETATM    1  C1  UNL     1      53.231  -8.581  28.213  1.00  0.00     0.680 A 
HETATM    2  N2  UNL     1      54.250  -9.003  28.973  1.00  0.00    -0.187 N 
ATOM      3  H2  UNL     1      54.927  -8.328  29.331  1.00  0.00     0.185 HD
HETATM    4  C2  UNL     1      54.388 -10.300  29.269  1.00  0.00     0.210 A 
HETATM    5  N3  UNL     1      53.486 -11.213  28.795  1.00  0.00    -0.269 N 
HETATM    6  C5  UNL     1      52.473 -10.776  28.037  1.00  0.00     0.345 A 
HETATM    7  O1  UNL     1      51.585 -11.530  27.548  1.00  0.00    -0.246 OA
HETATM    8  N7  UNL     1      52.330  -9.449  27.733  1.00  0.00    -0.141 N 
ATOM      9  H7  UNL     1      51.553  -9.128  27.154  1.00  0.00     0.189 HD
ENDROOT
BRANCH   5  10
HETATM   10  C3  UNL     1      53.672 -12.563  29.132  1.00  0.00     0.123 C 
HETATM   11  C4  UNL     1      54.426 -13.468  28.586  1.00  0.00     0.153 C 
BRANCH  11  12
HETATM   12  N4  UNL     1      54.455 -14.806  29.110  1.00  0.00    -0.220 N 
BRANCH  12  13
HETATM   13  N5  UNL     1      53.239 -15.445  29.303  1.00  0.00    -0.325 N 
ATOM     14  H52 UNL     1      52.481 -15.303  28.634  1.00  0.00     0.178 HD
ATOM     15  H51 UNL     1      53.146 -16.047  30.121  1.00  0.00     0.178 HD
ENDBRANCH  12  13
BRANCH  12  16
HETATM   16  N6  UNL     1      55.635 -15.464  29.424  1.00  0.00    -0.325 N 
ATOM     17  H62 UNL     1      55.618 -16.247  30.078  1.00  0.00     0.178 HD
ATOM     18  H61 UNL     1      56.536 -15.201  29.027  1.00  0.00     0.178 HD
ENDBRANCH  12  16
ENDBRANCH  11  12
ENDBRANCH   5  10
BRANCH   1  19
HETATM   19  N1  UNL     1      53.087  -7.329  27.921  1.00  0.00    -0.234 N 
ATOM     20  H12 UNL     1      53.355  -6.638  28.623  1.00  0.00     0.174 HD
ATOM     21  H11 UNL     1      52.716  -7.037  27.016  1.00  0.00     0.174 HD
ENDBRANCH   1  19
TORSDOF 5
ENDMDL
MODEL 5
REMARK VINA RESULT: -5.409297249      2.080      5.505
REMARK  5 active torsions:
REMARK  status: ('A' for Active; 'I' for Inactive)
REMARK    1  A    between atoms: N1_1  and  C1_4 
REMARK    2  A    between atoms: N3_8  and  C3_9 
REMARK    3  A    between atoms: C4_10  and  N4_11 
REMARK    4  A    between atoms: N4_11  and  N5_12 
REMARK    5  A    between atoms: N4_11  and  N6_15 
ROOT
HETATM    1  C1  UNL     1      54.962 -14.099  29.288  1.00  0.00     0.680 A 
HETATM    2  N2  UNL     1      55.543 -12.911  29.501  1.00  0.00    -0.187 N 
ATOM      3  H2  UNL     1      56.531 -12.869  29.749  1.00  0.00     0.185 HD
HETATM    4  C2  UNL     1      54.838 -11.779  29.390  1.00  0.00     0.210 A 
HETATM    5  N3  UNL     1      53.513 -11.824  29.057  1.00  0.00    -0.269 N 
HETATM    6  C5  UNL     1      52.946 -13.019  28.847  1.00  0.00     0.345 A 
HETATM    7  O1  UNL     1      51.732 -13.177  28.536  1.00  0.00    -0.246 OA
HETATM    8  N7  UNL     1      53.665 -14.179  28.960  1.00  0.00    -0.141 N 
ATOM      9  H7  UNL     1      53.223 -15.084  28.798  1.00  0.00     0.189 HD
ENDROOT
BRANCH   5  10
HETATM   10  C3  UNL     1      52.815 -10.610  28.952  1.00  0.00     0.123 C 
HETATM   11  C4  UNL     1      53.232  -9.428  28.613  1.00  0.00     0.153 C 
BRANCH  11  12
HETATM   12  N4  UNL     1      52.321  -8.317  28.575  1.00  0.00    -0.220 N 
BRANCH  12  13
HETATM   13  N5  UNL     1      52.838  -7.076  28.233  1.00  0.00    -0.325 N 
ATOM     14  H52 UNL     1      53.046  -6.396  28.963  1.00  0.00     0.178 HD
ATOM     15  H51 UNL     1      52.994  -6.887  27.243  1.00  0.00     0.178 HD
ENDBRANCH  12  13
BRANCH  12  16
HETATM   16  N6  UNL     1      50.970  -8.443  28.865  1.00  0.00    -0.325 N 
ATOM     17  H62 UNL     1      50.473  -9.293  28.598  1.00  0.00     0.178 HD
ATOM     18  H61 UNL     1      50.438  -7.715  29.341  1.00  0.00     0.178 HD
ENDBRANCH  12  16
ENDBRANCH  11  12
ENDBRANCH   5  10
BRANCH   1  19
HETATM   19  N1  UNL     1      55.633 -15.201  29.392  1.00  0.00    -0.234 N 
ATOM     20  H12 UNL     1      55.348 -15.871  30.107  1.00  0.00     0.174 HD
ATOM     21  H11 UNL     1      56.424 -15.397  28.779  1.00  0.00     0.174 HD
ENDBRANCH   1  19
TORSDOF 5
ENDMDL
