MODEL 1
REMARK VINA RESULT: -7.767801430      0.000      0.000
REMARK  5 active torsions:
REMARK  status: ('A' for Active; 'I' for Inactive)
REMARK       I    between atoms: C2_2  and  N1_4 
REMARK    1  A    between atoms: N1_4  and  N2_6 
REMARK    2  A    between atoms: C3_8  and  C4_9 
REMARK    3  A    between atoms: C7_12  and  N3_13 
REMARK    4  A    between atoms: N3_13  and  N4_15 
REMARK    5  A    between atoms: C8_18  and  N5_19 
ROOT
HETATM    1  C4  UNL     1     -15.175 -27.465 -26.297  1.00  0.00    -0.017 A 
HETATM    2  C5  UNL     1     -14.365 -26.752 -25.440  1.00  0.00     0.015 A 
HETATM    3  C6  UNL     1     -13.042 -26.644 -25.749  1.00  0.00     0.034 A 
HETATM    4  C7  UNL     1     -12.506 -27.236 -26.907  1.00  0.00     0.080 A 
HETATM    5  C8  UNL     1     -13.300 -27.951 -27.771  1.00  0.00     0.131 A 
HETATM    6  C9  UNL     1     -14.663 -28.043 -27.421  1.00  0.00     0.051 A 
ENDROOT
BRANCH   1   7
HETATM    7  C3  UNL     1     -16.614 -27.576 -25.966  1.00  0.00     0.118 C 
HETATM    8  N2  UNL     1     -17.329 -28.356 -26.652  1.00  0.00    -0.309 N 
ATOM      9  H2  UNL     1     -16.831 -28.851 -27.393  1.00  0.00     0.186 HD
BRANCH   8  10
HETATM   10  N1  UNL     1     -18.662 -28.648 -26.567  1.00  0.00    -0.271 N 
HETATM   11  C2  UNL     1     -19.200 -29.925 -26.367  1.00  0.00     0.232 C 
HETATM   12  C1  UNL     1     -20.671 -30.145 -26.284  1.00  0.00     0.119 C 
HETATM   13  O1  UNL     1     -18.462 -30.934 -26.247  1.00  0.00    -0.272 OA
ATOM     14  H1  UNL     1     -19.317 -27.872 -26.657  1.00  0.00     0.190 HD
ENDBRANCH   8  10
ENDBRANCH   1   7
BRANCH   5  15
HETATM   15  N5  UNL     1     -12.857 -28.579 -28.964  1.00  0.00    -0.113 N 
HETATM   16  O2  UNL     1     -13.790 -28.970 -29.751  1.00  0.00    -0.532 OA
HETATM   17  O3  UNL     1     -11.603 -28.817 -29.377  1.00  0.00    -0.532 OA
ENDBRANCH   5  15
BRANCH   4  18
HETATM   18  N3  UNL     1     -11.126 -27.064 -27.164  1.00  0.00    -0.305 N 
ATOM     19  H3  UNL     1     -10.803 -26.294 -27.750  1.00  0.00     0.186 HD
BRANCH  18  20
HETATM   20  N4  UNL     1     -10.203 -27.966 -26.602  1.00  0.00    -0.345 N 
ATOM     21  H42 UNL     1     -10.288 -28.220 -25.618  1.00  0.00     0.176 HD
ATOM     22  H41 UNL     1      -9.463 -28.352 -27.189  1.00  0.00     0.176 HD
ENDBRANCH  18  20
ENDBRANCH   4  18
TORSDOF 5
ENDMDL
MODEL 2
REMARK VINA RESULT: -7.598814826      1.139      1.265
REMARK  5 active torsions:
REMARK  status: ('A' for Active; 'I' for Inactive)
REMARK       I    between atoms: C2_2  and  N1_4 
REMARK    1  A    between atoms: N1_4  and  N2_6 
REMARK    2  A    between atoms: C3_8  and  C4_9 
REMARK    3  A    between atoms: C7_12  and  N3_13 
REMARK    4  A    between atoms: N3_13  and  N4_15 
REMARK    5  A    between atoms: C8_18  and  N5_19 
ROOT
HETATM    1  C4  UNL     1     -15.709 -27.841 -26.762  1.00  0.00    -0.017 A 
HETATM    2  C5  UNL     1     -15.576 -27.249 -25.525  1.00  0.00     0.015 A 
HETATM    3  C6  UNL     1     -14.333 -26.846 -25.138  1.00  0.00     0.034 A 
HETATM    4  C7  UNL     1     -13.210 -27.022 -25.969  1.00  0.00     0.080 A 
HETATM    5  C8  UNL     1     -13.328 -27.611 -27.204  1.00  0.00     0.131 A 
HETATM    6  C9  UNL     1     -14.627 -28.016 -27.573  1.00  0.00     0.051 A 
ENDROOT
BRANCH   1   7
HETATM    7  C3  UNL     1     -17.061 -28.272 -27.187  1.00  0.00     0.118 C 
HETATM    8  N2  UNL     1     -17.784 -28.887 -26.356  1.00  0.00    -0.309 N 
ATOM      9  H2  UNL     1     -17.353 -29.034 -25.443  1.00  0.00     0.186 HD
BRANCH   8  10
HETATM   10  N1  UNL     1     -19.049 -29.390 -26.478  1.00  0.00    -0.271 N 
HETATM   11  C2  UNL     1     -19.383 -30.749 -26.490  1.00  0.00     0.232 C 
HETATM   12  C1  UNL     1     -20.795 -31.203 -26.625  1.00  0.00     0.119 C 
HETATM   13  O1  UNL     1     -18.503 -31.639 -26.387  1.00  0.00    -0.272 OA
ATOM     14  H1  UNL     1     -19.813 -28.719 -26.567  1.00  0.00     0.190 HD
ENDBRANCH   8  10
ENDBRANCH   1   7
BRANCH   5  15
HETATM   15  N5  UNL     1     -12.260 -27.827 -28.115  1.00  0.00    -0.113 N 
HETATM   16  O2  UNL     1     -12.555 -28.543 -29.137  1.00  0.00    -0.532 OA
HETATM   17  O3  UNL     1     -10.995 -27.386 -28.053  1.00  0.00    -0.532 OA
ENDBRANCH   5  15
BRANCH   4  18
HETATM   18  N3  UNL     1     -11.958 -26.561 -25.500  1.00  0.00    -0.305 N 
ATOM     19  H3  UNL     1     -11.744 -25.564 -25.495  1.00  0.00     0.186 HD
BRANCH  18  20
HETATM   20  N4  UNL     1     -11.010 -27.495 -25.042  1.00  0.00    -0.345 N 
ATOM     21  H42 UNL     1     -11.124 -28.481 -25.276  1.00  0.00     0.176 HD
ATOM     22  H41 UNL     1     -10.221 -27.170 -24.483  1.00  0.00     0.176 HD
ENDBRANCH  18  20
ENDBRANCH   4  18
TORSDOF 5
ENDMDL
MODEL 3
REMARK VINA RESULT: -7.561740867      1.823      1.823
REMARK  5 active torsions:
REMARK  status: ('A' for Active; 'I' for Inactive)
REMARK       I    between atoms: C2_2  and  N1_4 
REMARK    1  A    between atoms: N1_4  and  N2_6 
REMARK    2  A    between atoms: C3_8  and  C4_9 
REMARK    3  A    between atoms: C7_12  and  N3_13 
REMARK    4  A    between atoms: N3_13  and  N4_15 
REMARK    5  A    between atoms: C8_18  and  N5_19 
ROOT
HETATM    1  C4  UNL     1     -15.206 -27.478 -26.261  1.00  0.00    -0.017 A 
HETATM    2  C5  UNL     1     -14.391 -26.755 -25.417  1.00  0.00     0.015 A 
HETATM    3  C6  UNL     1     -13.075 -26.633 -25.747  1.00  0.00     0.034 A 
HETATM    4  C7  UNL     1     -12.550 -27.222 -26.913  1.00  0.00     0.080 A 
HETATM    5  C8  UNL     1     -13.350 -27.946 -27.763  1.00  0.00     0.131 A 
HETATM    6  C9  UNL     1     -14.706 -28.053 -27.392  1.00  0.00     0.051 A 
ENDROOT
BRANCH   1   7
HETATM    7  C3  UNL     1     -16.639 -27.604 -25.907  1.00  0.00     0.118 C 
HETATM    8  N2  UNL     1     -16.969 -28.447 -25.028  1.00  0.00    -0.309 N 
ATOM      9  H2  UNL     1     -16.192 -28.978 -24.633  1.00  0.00     0.186 HD
BRANCH   8  10
HETATM   10  N1  UNL     1     -18.196 -28.766 -24.517  1.00  0.00    -0.271 N 
HETATM   11  C2  UNL     1     -18.537 -28.750 -23.160  1.00  0.00     0.232 C 
HETATM   12  C1  UNL     1     -19.905 -29.113 -22.697  1.00  0.00     0.119 C 
HETATM   13  O1  UNL     1     -17.701 -28.429 -22.279  1.00  0.00    -0.272 OA
ATOM     14  H1  UNL     1     -18.922 -29.039 -25.180  1.00  0.00     0.190 HD
ENDBRANCH   8  10
ENDBRANCH   1   7
BRANCH   5  15
HETATM   15  N5  UNL     1     -12.918 -28.573 -28.962  1.00  0.00    -0.113 N 
HETATM   16  O2  UNL     1     -13.860 -28.954 -29.745  1.00  0.00    -0.532 OA
HETATM   17  O3  UNL     1     -11.669 -28.815 -29.385  1.00  0.00    -0.532 OA
ENDBRANCH   5  15
BRANCH   4  18
HETATM   18  N3  UNL     1     -11.177 -27.035 -27.192  1.00  0.00    -0.305 N 
ATOM     19  H3  UNL     1     -10.872 -26.265 -27.787  1.00  0.00     0.186 HD
BRANCH  18  20
HETATM   20  N4  UNL     1     -10.235 -27.923 -26.639  1.00  0.00    -0.345 N 
ATOM     21  H42 UNL     1      -9.866 -27.744 -25.705  1.00  0.00     0.176 HD
ATOM     22  H41 UNL     1      -9.936 -28.733 -27.181  1.00  0.00     0.176 HD
ENDBRANCH  18  20
ENDBRANCH   4  18
TORSDOF 5
ENDMDL
MODEL 4
REMARK VINA RESULT: -7.477033626      2.464      2.718
REMARK  5 active torsions:
REMARK  status: ('A' for Active; 'I' for Inactive)
REMARK       I    between atoms: C2_2  and  N1_4 
REMARK    1  A    between atoms: N1_4  and  N2_6 
REMARK    2  A    between atoms: C3_8  and  C4_9 
REMARK    3  A    between atoms: C7_12  and  N3_13 
REMARK    4  A    between atoms: N3_13  and  N4_15 
REMARK    5  A    between atoms: C8_18  and  N5_19 
ROOT
HETATM    1  C4  UNL     1     -15.076 -27.229 -25.980  1.00  0.00    -0.017 A 
HETATM    2  C5  UNL     1     -14.118 -26.514 -25.295  1.00  0.00     0.015 A 
HETATM    3  C6  UNL     1     -12.841 -26.532 -25.771  1.00  0.00     0.034 A 
HETATM    4  C7  UNL     1     -12.498 -27.253 -26.929  1.00  0.00     0.080 A 
HETATM    5  C8  UNL     1     -13.442 -27.971 -27.623  1.00  0.00     0.131 A 
HETATM    6  C9  UNL     1     -14.751 -27.931 -27.103  1.00  0.00     0.051 A 
ENDROOT
BRANCH   1   7
HETATM    7  C3  UNL     1     -16.465 -27.203 -25.468  1.00  0.00     0.118 C 
HETATM    8  N2  UNL     1     -16.712 -26.519 -24.437  1.00  0.00    -0.309 N 
ATOM      9  H2  UNL     1     -15.906 -26.034 -24.043  1.00  0.00     0.186 HD
BRANCH   8  10
HETATM   10  N1  UNL     1     -17.883 -26.320 -23.761  1.00  0.00    -0.271 N 
HETATM   11  C2  UNL     1     -18.100 -26.621 -22.412  1.00  0.00     0.232 C 
HETATM   12  C1  UNL     1     -19.415 -26.366 -21.759  1.00  0.00     0.119 C 
HETATM   13  O1  UNL     1     -17.194 -27.118 -21.698  1.00  0.00    -0.272 OA
ATOM     14  H1  UNL     1     -18.663 -25.920 -24.283  1.00  0.00     0.190 HD
ENDBRANCH   8  10
ENDBRANCH   1   7
BRANCH   5  15
HETATM   15  N5  UNL     1     -13.197 -28.725 -28.802  1.00  0.00    -0.113 N 
HETATM   16  O2  UNL     1     -14.185 -29.432 -29.209  1.00  0.00    -0.532 OA
HETATM   17  O3  UNL     1     -12.080 -28.794 -29.542  1.00  0.00    -0.532 OA
ENDBRANCH   5  15
BRANCH   4  18
HETATM   18  N3  UNL     1     -11.154 -27.207 -27.368  1.00  0.00    -0.305 N 
ATOM     19  H3  UNL     1     -10.905 -26.696 -28.214  1.00  0.00     0.186 HD
BRANCH  18  20
HETATM   20  N4  UNL     1     -10.164 -27.875 -26.622  1.00  0.00    -0.345 N 
ATOM     21  H42 UNL     1     -10.187 -28.893 -26.557  1.00  0.00     0.176 HD
ATOM     22  H41 UNL     1      -9.438 -27.330 -26.157  1.00  0.00     0.176 HD
ENDBRANCH  18  20
ENDBRANCH   4  18
TORSDOF 5
ENDMDL
MODEL 5
REMARK VINA RESULT: -7.461190719      2.646      2.958
REMARK  5 active torsions:
REMARK  status: ('A' for Active; 'I' for Inactive)
REMARK       I    between atoms: C2_2  and  N1_4 
REMARK    1  A    between atoms: N1_4  and  N2_6 
REMARK    2  A    between atoms: C3_8  and  C4_9 
REMARK    3  A    between atoms: C7_12  and  N3_13 
REMARK    4  A    between atoms: N3_13  and  N4_15 
REMARK    5  A    between atoms: C8_18  and  N5_19 
ROOT
HETATM    1  C4  UNL     1     -15.106 -27.248 -26.020  1.00  0.00    -0.017 A 
HETATM    2  C5  UNL     1     -14.169 -26.520 -25.319  1.00  0.00     0.015 A 
HETATM    3  C6  UNL     1     -12.884 -26.522 -25.773  1.00  0.00     0.034 A 
HETATM    4  C7  UNL     1     -12.511 -27.241 -26.923  1.00  0.00     0.080 A 
HETATM    5  C8  UNL     1     -13.433 -27.972 -27.632  1.00  0.00     0.131 A 
HETATM    6  C9  UNL     1     -14.752 -27.949 -27.135  1.00  0.00     0.051 A 
ENDROOT
BRANCH   1   7
HETATM    7  C3  UNL     1     -16.504 -27.239 -25.532  1.00  0.00     0.118 C 
HETATM    8  N2  UNL     1     -16.797 -26.488 -24.562  1.00  0.00    -0.309 N 
ATOM      9  H2  UNL     1     -16.017 -25.942 -24.195  1.00  0.00     0.186 HD
BRANCH   8  10
HETATM   10  N1  UNL     1     -17.987 -26.285 -23.921  1.00  0.00    -0.271 N 
HETATM   11  C2  UNL     1     -18.533 -25.036 -23.604  1.00  0.00     0.232 C 
HETATM   12  C1  UNL     1     -19.843 -24.914 -22.905  1.00  0.00     0.119 C 
HETATM   13  O1  UNL     1     -17.941 -23.969 -23.900  1.00  0.00    -0.272 OA
ATOM     14  H1  UNL     1     -18.520 -27.112 -23.651  1.00  0.00     0.190 HD
ENDBRANCH   8  10
ENDBRANCH   1   7
BRANCH   5  15
HETATM   15  N5  UNL     1     -13.158 -28.725 -28.805  1.00  0.00    -0.113 N 
HETATM   16  O2  UNL     1     -14.126 -29.454 -29.221  1.00  0.00    -0.532 OA
HETATM   17  O3  UNL     1     -12.031 -28.774 -29.530  1.00  0.00    -0.532 OA
ENDBRANCH   5  15
BRANCH   4  18
HETATM   18  N3  UNL     1     -11.161 -27.178 -27.338  1.00  0.00    -0.305 N 
ATOM     19  H3  UNL     1     -10.901 -26.649 -28.170  1.00  0.00     0.186 HD
BRANCH  18  20
HETATM   20  N4  UNL     1     -10.179 -27.855 -26.589  1.00  0.00    -0.345 N 
ATOM     21  H42 UNL     1     -10.461 -28.416 -25.785  1.00  0.00     0.176 HD
ATOM     22  H41 UNL     1      -9.200 -27.773 -26.862  1.00  0.00     0.176 HD
ENDBRANCH  18  20
ENDBRANCH   4  18
TORSDOF 5
ENDMDL
