MODEL 1
REMARK VINA RESULT: -6.142487456      0.000      0.000
REMARK  0 active torsions:
REMARK  status: ('A' for Active; 'I' for Inactive)
ROOT
HETATM    1  C1  UNL     1     -16.029 -28.019 -26.421  1.00  0.00     0.156 C 
HETATM    2  N1  UNL     1     -14.944 -27.259 -25.884  1.00  0.00    -0.357 N 
HETATM    3  C2  UNL     1     -15.027 -26.002 -25.373  1.00  0.00     0.093 A 
HETATM    4  C3  UNL     1     -13.824 -25.558 -24.946  1.00  0.00     0.050 A 
HETATM    5  C4  UNL     1     -12.915 -26.575 -25.194  1.00  0.00     0.079 A 
HETATM    6  C5  UNL     1     -13.630 -27.604 -25.768  1.00  0.00     0.104 A 
HETATM    7  C6  UNL     1     -13.118 -28.758 -26.149  1.00  0.00     0.148 A 
HETATM    8  N2  UNL     1     -14.054 -29.661 -26.712  1.00  0.00    -0.080 NA
HETATM    9  N3  UNL     1     -11.768 -29.255 -26.091  1.00  0.00    -0.316 N 
ATOM     10  H3  UNL     1     -11.645 -30.197 -26.463  1.00  0.00     0.169 HD
HETATM   11  C7  UNL     1     -10.702 -28.713 -25.652  1.00  0.00     0.208 A 
HETATM   12  N4  UNL     1      -9.484 -29.449 -25.719  1.00  0.00    -0.062 NA
HETATM   13  N5  UNL     1     -10.623 -27.400 -25.085  1.00  0.00    -0.273 N 
ATOM     14  H5  UNL     1      -9.697 -27.102 -24.777  1.00  0.00     0.189 HD
HETATM   15  N6  UNL     1     -11.651 -26.479 -24.903  1.00  0.00    -0.296 N 
ATOM     16  H6  UNL     1     -11.371 -25.596 -24.477  1.00  0.00     0.187 HD
ENDROOT
TORSDOF 0
ENDMDL
MODEL 2
REMARK VINA RESULT: -5.923001156      1.193      1.205
REMARK  0 active torsions:
REMARK  status: ('A' for Active; 'I' for Inactive)
ROOT
HETATM    1  C1  UNL     1     -16.965 -27.606 -24.860  1.00  0.00     0.156 C 
HETATM    2  N1  UNL     1     -15.754 -26.847 -24.863  1.00  0.00    -0.357 N 
HETATM    3  C2  UNL     1     -15.646 -25.516 -24.604  1.00  0.00     0.093 A 
HETATM    4  C3  UNL     1     -14.365 -25.096 -24.687  1.00  0.00     0.050 A 
HETATM    5  C4  UNL     1     -13.603 -26.206 -25.018  1.00  0.00     0.079 A 
HETATM    6  C5  UNL     1     -14.481 -27.263 -25.119  1.00  0.00     0.104 A 
HETATM    7  C6  UNL     1     -14.140 -28.502 -25.418  1.00  0.00     0.148 A 
HETATM    8  N2  UNL     1     -15.221 -29.417 -25.460  1.00  0.00    -0.080 NA
HETATM    9  N3  UNL     1     -12.855 -29.081 -25.709  1.00  0.00    -0.316 N 
ATOM     10  H3  UNL     1     -12.875 -30.080 -25.913  1.00  0.00     0.169 HD
HETATM   11  C7  UNL     1     -11.696 -28.552 -25.755  1.00  0.00     0.208 A 
HETATM   12  N4  UNL     1     -10.580 -29.377 -26.074  1.00  0.00    -0.062 NA
HETATM   13  N5  UNL     1     -11.417 -27.169 -25.508  1.00  0.00    -0.273 N 
ATOM     14  H5  UNL     1     -10.438 -26.891 -25.583  1.00  0.00     0.189 HD
HETATM   15  N6  UNL     1     -12.313 -26.155 -25.180  1.00  0.00    -0.296 N 
ATOM     16  H6  UNL     1     -11.896 -25.235 -25.047  1.00  0.00     0.187 HD
ENDROOT
TORSDOF 0
ENDMDL
MODEL 3
REMARK VINA RESULT: -5.908822883      2.065      4.267
REMARK  0 active torsions:
REMARK  status: ('A' for Active; 'I' for Inactive)
ROOT
HETATM    1  C1  UNL     1     -10.054 -29.410 -26.210  1.00  0.00     0.156 C 
HETATM    2  N1  UNL     1     -11.123 -28.670 -26.803  1.00  0.00    -0.357 N 
HETATM    3  C2  UNL     1     -11.011 -27.793 -27.836  1.00  0.00     0.093 A 
HETATM    4  C3  UNL     1     -12.206 -27.255 -28.164  1.00  0.00     0.050 A 
HETATM    5  C4  UNL     1     -13.140 -27.806 -27.302  1.00  0.00     0.079 A 
HETATM    6  C5  UNL     1     -12.448 -28.669 -26.480  1.00  0.00     0.104 A 
HETATM    7  C6  UNL     1     -12.989 -29.393 -25.519  1.00  0.00     0.148 A 
HETATM    8  N2  UNL     1     -12.073 -30.209 -24.809  1.00  0.00    -0.080 NA
HETATM    9  N3  UNL     1     -14.353 -29.493 -25.069  1.00  0.00    -0.316 N 
ATOM     10  H3  UNL     1     -14.498 -30.138 -24.291  1.00  0.00     0.169 HD
HETATM   11  C7  UNL     1     -15.408 -28.910 -25.480  1.00  0.00     0.208 A 
HETATM   12  N4  UNL     1     -16.646 -29.205 -24.839  1.00  0.00    -0.062 NA
HETATM   13  N5  UNL     1     -15.456 -27.964 -26.554  1.00  0.00    -0.273 N 
ATOM     14  H5  UNL     1     -16.376 -27.579 -26.769  1.00  0.00     0.189 HD
HETATM   15  N6  UNL     1     -14.404 -27.502 -27.341  1.00  0.00    -0.296 N 
ATOM     16  H6  UNL     1     -14.664 -26.824 -28.056  1.00  0.00     0.187 HD
ENDROOT
TORSDOF 0
ENDMDL
MODEL 4
REMARK VINA RESULT: -5.812611211      1.509      2.092
REMARK  0 active torsions:
REMARK  status: ('A' for Active; 'I' for Inactive)
ROOT
HETATM    1  C1  UNL     1     -18.016 -27.185 -25.385  1.00  0.00     0.156 C 
HETATM    2  N1  UNL     1     -16.772 -26.564 -25.054  1.00  0.00    -0.357 N 
HETATM    3  C2  UNL     1     -16.619 -25.397 -24.372  1.00  0.00     0.093 A 
HETATM    4  C3  UNL     1     -15.315 -25.077 -24.221  1.00  0.00     0.050 A 
HETATM    5  C4  UNL     1     -14.585 -26.083 -24.835  1.00  0.00     0.079 A 
HETATM    6  C5  UNL     1     -15.504 -26.980 -25.336  1.00  0.00     0.104 A 
HETATM    7  C6  UNL     1     -15.202 -28.083 -25.992  1.00  0.00     0.148 A 
HETATM    8  N2  UNL     1     -16.321 -28.848 -26.406  1.00  0.00    -0.080 NA
HETATM    9  N3  UNL     1     -13.927 -28.642 -26.359  1.00  0.00    -0.316 N 
ATOM     10  H3  UNL     1     -13.980 -29.520 -26.875  1.00  0.00     0.169 HD
HETATM   11  C7  UNL     1     -12.743 -28.221 -26.146  1.00  0.00     0.208 A 
HETATM   12  N4  UNL     1     -11.647 -28.991 -26.631  1.00  0.00    -0.062 NA
HETATM   13  N5  UNL     1     -12.416 -27.015 -25.447  1.00  0.00    -0.273 N 
ATOM     14  H5  UNL     1     -11.421 -26.808 -25.355  1.00  0.00     0.189 HD
HETATM   15  N6  UNL     1     -13.285 -26.088 -24.877  1.00  0.00    -0.296 N 
ATOM     16  H6  UNL     1     -12.834 -25.294 -24.423  1.00  0.00     0.187 HD
ENDROOT
TORSDOF 0
ENDMDL
MODEL 5
REMARK VINA RESULT: -5.747420272      1.641      3.012
REMARK  0 active torsions:
REMARK  status: ('A' for Active; 'I' for Inactive)
ROOT
HETATM    1  C1  UNL     1     -15.891 -25.878 -23.968  1.00  0.00     0.156 C 
HETATM    2  N1  UNL     1     -15.551 -27.112 -24.604  1.00  0.00    -0.357 N 
HETATM    3  C2  UNL     1     -16.282 -28.258 -24.566  1.00  0.00     0.093 A 
HETATM    4  C3  UNL     1     -15.689 -29.249 -25.267  1.00  0.00     0.050 A 
HETATM    5  C4  UNL     1     -14.516 -28.724 -25.785  1.00  0.00     0.079 A 
HETATM    6  C5  UNL     1     -14.458 -27.413 -25.362  1.00  0.00     0.104 A 
HETATM    7  C6  UNL     1     -13.486 -26.569 -25.652  1.00  0.00     0.148 A 
HETATM    8  N2  UNL     1     -13.650 -25.273 -25.104  1.00  0.00    -0.080 NA
HETATM    9  N3  UNL     1     -12.288 -26.744 -26.429  1.00  0.00    -0.316 N 
ATOM     10  H3  UNL     1     -11.697 -25.914 -26.492  1.00  0.00     0.169 HD
HETATM   11  C7  UNL     1     -11.841 -27.763 -27.051  1.00  0.00     0.208 A 
HETATM   12  N4  UNL     1     -10.606 -27.649 -27.750  1.00  0.00    -0.062 NA
HETATM   13  N5  UNL     1     -12.490 -29.038 -27.106  1.00  0.00    -0.273 N 
ATOM     14  H5  UNL     1     -12.011 -29.760 -27.644  1.00  0.00     0.189 HD
HETATM   15  N6  UNL     1     -13.694 -29.416 -26.517  1.00  0.00    -0.296 N 
ATOM     16  H6  UNL     1     -13.974 -30.382 -26.686  1.00  0.00     0.187 HD
ENDROOT
TORSDOF 0
ENDMDL
