MODEL 1
REMARK VINA RESULT: -6.446269323      0.000      0.000
REMARK  3 active torsions:
REMARK  status: ('A' for Active; 'I' for Inactive)
REMARK    1  A    between atoms: N1_1  and  N2_4 
REMARK       I    between atoms: N2_4  and  C1_6 
REMARK    2  A    between atoms: C1_6  and  C2_8 
REMARK       I    between atoms: C2_8  and  N3_10 
REMARK    3  A    between atoms: N3_10  and  C3_12 
ROOT
HETATM    1  C2  UNL     1     -14.276 -27.121 -25.658  1.00  0.00     0.329 C 
HETATM    2  O2  UNL     1     -14.533 -27.571 -26.805  1.00  0.00    -0.261 OA
HETATM    3  N3  UNL     1     -13.026 -26.520 -25.336  1.00  0.00    -0.149 N 
ATOM      4  H3  UNL     1     -13.011 -25.689 -24.747  1.00  0.00     0.188 HD
ENDROOT
BRANCH   3   5
HETATM    5  C3  UNL     1     -11.917 -27.003 -25.772  1.00  0.00     0.716 A 
HETATM    6  N4  UNL     1     -10.933 -27.582 -25.079  1.00  0.00    -0.115 N 
HETATM    7  N5  UNL     1      -9.969 -27.939 -25.899  1.00  0.00    -0.213 N 
ATOM      8  H4  UNL     1     -10.929 -27.726 -24.069  1.00  0.00     0.207 HD
HETATM    9  N6  UNL     1     -10.347 -27.582 -27.106  1.00  0.00    -0.213 N 
ATOM     10  H5  UNL     1      -9.096 -28.403 -25.647  1.00  0.00     0.210 HD
HETATM   11  N7  UNL     1     -11.546 -27.002 -27.059  1.00  0.00    -0.115 N 
ATOM     12  H6  UNL     1      -9.802 -27.729 -27.956  1.00  0.00     0.210 HD
ATOM     13  H7  UNL     1     -12.075 -26.630 -27.846  1.00  0.00     0.207 HD
ENDBRANCH   3   5
BRANCH   1  14
HETATM   14  C1  UNL     1     -15.254 -27.192 -24.587  1.00  0.00     0.328 C 
HETATM   15  N2  UNL     1     -15.120 -26.302 -23.491  1.00  0.00    -0.268 N 
ATOM     16  H2  UNL     1     -14.348 -25.637 -23.478  1.00  0.00     0.190 HD
HETATM   17  O1  UNL     1     -16.207 -28.003 -24.593  1.00  0.00    -0.261 OA
BRANCH  15  18
HETATM   18  N1  UNL     1     -16.041 -26.320 -22.413  1.00  0.00    -0.342 N 
ATOM     19  H12 UNL     1     -16.421 -25.432 -22.086  1.00  0.00     0.176 HD
ATOM     20  H11 UNL     1     -16.321 -27.196 -21.971  1.00  0.00     0.176 HD
ENDBRANCH  15  18
ENDBRANCH   1  14
TORSDOF 3
ENDMDL
MODEL 2
REMARK VINA RESULT: -6.437926133      1.498      1.808
REMARK  3 active torsions:
REMARK  status: ('A' for Active; 'I' for Inactive)
REMARK    1  A    between atoms: N1_1  and  N2_4 
REMARK       I    between atoms: N2_4  and  C1_6 
REMARK    2  A    between atoms: C1_6  and  C2_8 
REMARK       I    between atoms: C2_8  and  N3_10 
REMARK    3  A    between atoms: N3_10  and  C3_12 
ROOT
HETATM    1  C2  UNL     1     -14.041 -28.162 -26.512  1.00  0.00     0.329 C 
HETATM    2  O2  UNL     1     -13.944 -29.416 -26.485  1.00  0.00    -0.261 OA
HETATM    3  N3  UNL     1     -12.939 -27.319 -26.834  1.00  0.00    -0.149 N 
ATOM      4  H3  UNL     1     -13.093 -26.503 -27.425  1.00  0.00     0.188 HD
ENDROOT
BRANCH   3   5
HETATM    5  C3  UNL     1     -11.756 -27.562 -26.396  1.00  0.00     0.716 A 
HETATM    6  N4  UNL     1     -10.612 -27.635 -27.083  1.00  0.00    -0.115 N 
HETATM    7  N5  UNL     1      -9.622 -27.905 -26.262  1.00  0.00    -0.213 N 
ATOM      8  H4  UNL     1     -10.522 -27.501 -28.091  1.00  0.00     0.207 HD
HETATM    9  N6  UNL     1     -10.143 -28.004 -25.059  1.00  0.00    -0.213 N 
ATOM     10  H5  UNL     1      -8.639 -28.017 -26.510  1.00  0.00     0.210 HD
HETATM   11  N7  UNL     1     -11.458 -27.797 -25.111  1.00  0.00    -0.115 N 
ATOM     12  H6  UNL     1      -9.616 -28.209 -24.210  1.00  0.00     0.210 HD
ATOM     13  H7  UNL     1     -12.110 -27.814 -24.327  1.00  0.00     0.207 HD
ENDBRANCH   3   5
BRANCH   1  14
HETATM   14  C1  UNL     1     -15.296 -27.498 -26.212  1.00  0.00     0.328 C 
HETATM   15  N2  UNL     1     -15.360 -26.658 -25.072  1.00  0.00    -0.268 N 
ATOM     16  H2  UNL     1     -14.530 -26.537 -24.492  1.00  0.00     0.190 HD
HETATM   17  O1  UNL     1     -16.321 -27.637 -26.917  1.00  0.00    -0.261 OA
BRANCH  15  18
HETATM   18  N1  UNL     1     -16.556 -25.981 -24.723  1.00  0.00    -0.342 N 
ATOM     19  H12 UNL     1     -17.420 -26.252 -25.193  1.00  0.00     0.176 HD
ATOM     20  H11 UNL     1     -16.561 -25.241 -24.021  1.00  0.00     0.176 HD
ENDBRANCH  15  18
ENDBRANCH   1  14
TORSDOF 3
ENDMDL
MODEL 3
REMARK VINA RESULT: -6.415553185      0.057      1.031
REMARK  3 active torsions:
REMARK  status: ('A' for Active; 'I' for Inactive)
REMARK    1  A    between atoms: N1_1  and  N2_4 
REMARK       I    between atoms: N2_4  and  C1_6 
REMARK    2  A    between atoms: C1_6  and  C2_8 
REMARK       I    between atoms: C2_8  and  N3_10 
REMARK    3  A    between atoms: N3_10  and  C3_12 
ROOT
HETATM    1  C2  UNL     1     -14.305 -27.127 -25.645  1.00  0.00     0.329 C 
HETATM    2  O2  UNL     1     -14.578 -27.545 -26.800  1.00  0.00    -0.261 OA
HETATM    3  N3  UNL     1     -13.054 -26.528 -25.327  1.00  0.00    -0.149 N 
ATOM      4  H3  UNL     1     -13.033 -25.714 -24.713  1.00  0.00     0.188 HD
ENDROOT
BRANCH   3   5
HETATM    5  C3  UNL     1     -11.949 -26.990 -25.794  1.00  0.00     0.716 A 
HETATM    6  N4  UNL     1     -11.532 -27.026 -27.063  1.00  0.00    -0.115 N 
HETATM    7  N5  UNL     1     -10.342 -27.580 -27.119  1.00  0.00    -0.213 N 
ATOM      8  H4  UNL     1     -12.058 -26.677 -27.865  1.00  0.00     0.207 HD
HETATM    9  N6  UNL     1     -10.011 -27.893 -25.887  1.00  0.00    -0.213 N 
ATOM     10  H5  UNL     1      -9.783 -27.737 -27.958  1.00  0.00     0.210 HD
HETATM   11  N7  UNL     1     -10.983 -27.541 -25.046  1.00  0.00    -0.115 N 
ATOM     12  H6  UNL     1      -9.136 -28.341 -25.612  1.00  0.00     0.210 HD
ATOM     13  H7  UNL     1     -10.991 -27.666 -24.035  1.00  0.00     0.207 HD
ENDBRANCH   3   5
BRANCH   1  14
HETATM   14  C1  UNL     1     -15.264 -27.235 -24.561  1.00  0.00     0.328 C 
HETATM   15  N2  UNL     1     -15.166 -26.325 -23.479  1.00  0.00    -0.268 N 
ATOM     16  H2  UNL     1     -14.430 -25.618 -23.485  1.00  0.00     0.190 HD
HETATM   17  O1  UNL     1     -16.172 -28.097 -24.543  1.00  0.00    -0.261 OA
BRANCH  15  18
HETATM   18  N1  UNL     1     -16.071 -26.377 -22.389  1.00  0.00    -0.342 N 
ATOM     19  H12 UNL     1     -16.350 -25.501 -21.948  1.00  0.00     0.176 HD
ATOM     20  H11 UNL     1     -16.438 -27.265 -22.048  1.00  0.00     0.176 HD
ENDBRANCH  15  18
ENDBRANCH   1  14
TORSDOF 3
ENDMDL
MODEL 4
REMARK VINA RESULT: -6.412439980      1.476      1.557
REMARK  3 active torsions:
REMARK  status: ('A' for Active; 'I' for Inactive)
REMARK    1  A    between atoms: N1_1  and  N2_4 
REMARK       I    between atoms: N2_4  and  C1_6 
REMARK    2  A    between atoms: C1_6  and  C2_8 
REMARK       I    between atoms: C2_8  and  N3_10 
REMARK    3  A    between atoms: N3_10  and  C3_12 
ROOT
HETATM    1  C2  UNL     1     -14.006 -28.158 -26.478  1.00  0.00     0.329 C 
HETATM    2  O2  UNL     1     -13.902 -29.412 -26.445  1.00  0.00    -0.261 OA
HETATM    3  N3  UNL     1     -12.906 -27.311 -26.793  1.00  0.00    -0.149 N 
ATOM      4  H3  UNL     1     -13.060 -26.498 -27.389  1.00  0.00     0.188 HD
ENDROOT
BRANCH   3   5
HETATM    5  C3  UNL     1     -11.725 -27.546 -26.344  1.00  0.00     0.716 A 
HETATM    6  N4  UNL     1     -11.335 -27.715 -25.077  1.00  0.00    -0.115 N 
HETATM    7  N5  UNL     1     -10.040 -27.935 -25.041  1.00  0.00    -0.213 N 
ATOM      8  H4  UNL     1     -11.949 -27.678 -24.262  1.00  0.00     0.207 HD
HETATM    9  N6  UNL     1      -9.616 -27.904 -26.285  1.00  0.00    -0.213 N 
ATOM     10  H5  UNL     1      -9.473 -28.099 -24.209  1.00  0.00     0.210 HD
HETATM   11  N7  UNL     1     -10.634 -27.665 -27.111  1.00  0.00    -0.115 N 
ATOM     12  H6  UNL     1      -8.647 -28.041 -26.576  1.00  0.00     0.210 HD
ATOM     13  H7  UNL     1     -10.591 -27.588 -28.127  1.00  0.00     0.207 HD
ENDBRANCH   3   5
BRANCH   1  14
HETATM   14  C1  UNL     1     -15.267 -27.501 -26.192  1.00  0.00     0.328 C 
HETATM   15  N2  UNL     1     -15.357 -26.686 -25.036  1.00  0.00    -0.268 N 
ATOM     16  H2  UNL     1     -14.541 -26.578 -24.434  1.00  0.00     0.190 HD
HETATM   17  O1  UNL     1     -16.276 -27.623 -26.923  1.00  0.00    -0.261 OA
BRANCH  15  18
HETATM   18  N1  UNL     1     -16.561 -26.016 -24.700  1.00  0.00    -0.342 N 
ATOM     19  H12 UNL     1     -17.415 -26.281 -25.189  1.00  0.00     0.176 HD
ATOM     20  H11 UNL     1     -16.580 -25.287 -23.987  1.00  0.00     0.176 HD
ENDBRANCH  15  18
ENDBRANCH   1  14
TORSDOF 3
ENDMDL
MODEL 5
REMARK VINA RESULT: -6.355123443      2.032      2.144
REMARK  3 active torsions:
REMARK  status: ('A' for Active; 'I' for Inactive)
REMARK    1  A    between atoms: N1_1  and  N2_4 
REMARK       I    between atoms: N2_4  and  C1_6 
REMARK    2  A    between atoms: C1_6  and  C2_8 
REMARK       I    between atoms: C2_8  and  N3_10 
REMARK    3  A    between atoms: N3_10  and  C3_12 
ROOT
HETATM    1  C2  UNL     1     -13.992 -27.598 -25.491  1.00  0.00     0.329 C 
HETATM    2  O2  UNL     1     -13.870 -26.347 -25.529  1.00  0.00    -0.261 OA
HETATM    3  N3  UNL     1     -12.900 -28.462 -25.192  1.00  0.00    -0.149 N 
ATOM      4  H3  UNL     1     -13.056 -29.270 -24.591  1.00  0.00     0.188 HD
ENDROOT
BRANCH   3   5
HETATM    5  C3  UNL     1     -11.724 -28.246 -25.663  1.00  0.00     0.716 A 
HETATM    6  N4  UNL     1     -10.541 -28.541 -25.115  1.00  0.00    -0.115 N 
HETATM    7  N5  UNL     1      -9.576 -28.155 -25.920  1.00  0.00    -0.213 N 
ATOM      8  H4  UNL     1     -10.408 -28.995 -24.211  1.00  0.00     0.207 HD
HETATM    9  N6  UNL     1     -10.152 -27.617 -26.972  1.00  0.00    -0.213 N 
ATOM     10  H5  UNL     1      -8.574 -28.253 -25.759  1.00  0.00     0.210 HD
HETATM   11  N7  UNL     1     -11.477 -27.659 -26.842  1.00  0.00    -0.115 N 
ATOM     12  H6  UNL     1      -9.656 -27.224 -27.773  1.00  0.00     0.210 HD
ATOM     13  H7  UNL     1     -12.168 -27.313 -27.507  1.00  0.00     0.207 HD
ENDBRANCH   3   5
BRANCH   1  14
HETATM   14  C1  UNL     1     -15.268 -28.237 -25.753  1.00  0.00     0.328 C 
HETATM   15  N2  UNL     1     -16.154 -27.625 -26.675  1.00  0.00    -0.268 N 
ATOM     16  H2  UNL     1     -15.878 -26.757 -27.133  1.00  0.00     0.190 HD
HETATM   17  O1  UNL     1     -15.618 -29.305 -25.198  1.00  0.00    -0.261 OA
BRANCH  15  18
HETATM   18  N1  UNL     1     -17.416 -28.199 -26.975  1.00  0.00    -0.342 N 
ATOM     19  H12 UNL     1     -18.119 -28.234 -26.237  1.00  0.00     0.176 HD
ATOM     20  H11 UNL     1     -17.622 -28.568 -27.902  1.00  0.00     0.176 HD
ENDBRANCH  15  18
ENDBRANCH   1  14
TORSDOF 3
ENDMDL
