MODEL 1
REMARK VINA RESULT: -7.541648429      0.000      0.000
REMARK  8 active torsions:
REMARK  status: ('A' for Active; 'I' for Inactive)
REMARK    1  A    between atoms: C2_2  and  O1_5 
REMARK    2  A    between atoms: O1_5  and  C5_6 
REMARK       I    between atoms: C5_6  and  N1_8 
REMARK    3  A    between atoms: C8_11  and  N2_12 
REMARK    4  A    between atoms: N2_12  and  C9_15 
REMARK    5  A    between atoms: C9_15  and  C10_16 
REMARK       I    between atoms: C10_16  and  N3_18 
REMARK    6  A    between atoms: N3_18  and  C11_20 
REMARK    7  A    between atoms: C15_24  and  O4_25 
REMARK    8  A    between atoms: O4_25  and  C16_26 
ROOT
HETATM    1  N2  UNL     1       8.510  13.089  15.329  1.00  0.00    -0.058 N 
ATOM      2  H21 UNL     1       8.029  13.144  16.227  1.00  0.00     0.278 HD
ATOM      3  H22 UNL     1       8.034  13.859  14.858  1.00  0.00     0.278 HD
ENDROOT
BRANCH   1   4
HETATM    4  C8  UNL     1       8.286  11.840  14.675  1.00  0.00     0.243 C 
HETATM    5  C7  UNL     1       7.997  12.101  13.210  1.00  0.00     0.058 C 
HETATM    6  C6  UNL     1       6.601  11.528  13.025  1.00  0.00     0.133 C 
HETATM    7  N1  UNL     1       6.506  10.513  14.053  1.00  0.00    -0.293 N 
HETATM    8  C5  UNL     1       5.884   9.250  13.863  1.00  0.00     0.366 C 
HETATM    9  C18 UNL     1       7.144  11.053  15.232  1.00  0.00     0.168 C 
HETATM   10  O2  UNL     1       5.371   8.939  12.761  1.00  0.00    -0.238 OA
HETATM   11  C19 UNL     1       6.200  11.898  16.046  1.00  0.00     0.064 C 
HETATM   12  O5  UNL     1       7.590   9.958  15.976  1.00  0.00    -0.358 OA
HETATM   13  C20 UNL     1       5.596  11.101  17.211  1.00  0.00     0.007 C 
HETATM   14  C21 UNL     1       6.775  10.726  18.102  1.00  0.00     0.026 C 
HETATM   15  C22 UNL     1       7.953  10.297  17.257  1.00  0.00     0.171 C 
BRANCH   8  16
HETATM   16  O1  UNL     1       5.811   8.297  14.877  1.00  0.00    -0.294 OA
BRANCH  16  17
HETATM   17  C2  UNL     1       6.400   7.018  14.758  1.00  0.00     0.061 C 
HETATM   18  C1  UNL     1       7.308   6.827  15.948  1.00  0.00     0.046 C 
HETATM   19  C3  UNL     1       7.155   6.824  13.480  1.00  0.00     0.046 C 
HETATM   20  C4  UNL     1       5.334   5.921  14.826  1.00  0.00     0.046 C 
ENDBRANCH  16  17
ENDBRANCH   8  16
ENDBRANCH   1   4
BRANCH   1  21
HETATM   21  C9  UNL     1       9.926  13.326  15.459  1.00  0.00     0.335 C 
BRANCH  21  22
HETATM   22  C10 UNL     1      10.362  13.173  16.901  1.00  0.00     0.247 C 
HETATM   23  O3  UNL     1      11.567  12.880  17.047  1.00  0.00    -0.271 OA
HETATM   24  N3  UNL     1       9.387  13.370  17.886  1.00  0.00    -0.326 N 
ATOM     25  H3  UNL     1       8.441  13.601  17.582  1.00  0.00     0.169 HD
BRANCH  24  26
HETATM   26  C11 UNL     1       9.627  13.271  19.271  1.00  0.00     0.037 A 
HETATM   27  C12 UNL     1       9.784  14.494  19.955  1.00  0.00     0.029 A 
HETATM   28  C13 UNL     1      10.035  14.442  21.297  1.00  0.00     0.005 A 
HETATM   29  C14 UNL     1      10.135  13.248  21.988  1.00  0.00     0.037 A 
HETATM   30  C15 UNL     1       9.977  12.073  21.296  1.00  0.00     0.080 A 
HETATM   31  C17 UNL     1       9.719  12.077  19.912  1.00  0.00     0.066 A 
BRANCH  30  32
HETATM   32  O4  UNL     1      10.071  10.883  21.953  1.00  0.00    -0.255 OA
BRANCH  32  33
HETATM   33  C16 UNL     1       9.660  10.599  23.253  1.00  0.00     0.530 C 
HETATM   34  F1  UNL     1      10.502  11.107  24.217  1.00  0.00    -0.144 F 
HETATM   35  F2  UNL     1       8.384  11.062  23.515  1.00  0.00    -0.144 F 
HETATM   36  F3  UNL     1       9.633   9.218  23.444  1.00  0.00    -0.144 F 
ENDBRANCH  32  33
ENDBRANCH  30  32
ENDBRANCH  24  26
ENDBRANCH  21  22
ENDBRANCH   1  21
TORSDOF 8
ENDMDL
MODEL 2
REMARK VINA RESULT: -7.363440327      3.992      8.609
REMARK  8 active torsions:
REMARK  status: ('A' for Active; 'I' for Inactive)
REMARK    1  A    between atoms: C2_2  and  O1_5 
REMARK    2  A    between atoms: O1_5  and  C5_6 
REMARK       I    between atoms: C5_6  and  N1_8 
REMARK    3  A    between atoms: C8_11  and  N2_12 
REMARK    4  A    between atoms: N2_12  and  C9_15 
REMARK    5  A    between atoms: C9_15  and  C10_16 
REMARK       I    between atoms: C10_16  and  N3_18 
REMARK    6  A    between atoms: N3_18  and  C11_20 
REMARK    7  A    between atoms: C15_24  and  O4_25 
REMARK    8  A    between atoms: O4_25  and  C16_26 
ROOT
HETATM    1  N2  UNL     1       7.200  10.339  17.868  1.00  0.00    -0.058 N 
ATOM      2  H21 UNL     1       6.919   9.961  18.772  1.00  0.00     0.278 HD
ATOM      3  H22 UNL     1       7.955   9.685  17.662  1.00  0.00     0.278 HD
ENDROOT
BRANCH   1   4
HETATM    4  C8  UNL     1       7.668  11.683  17.971  1.00  0.00     0.243 C 
HETATM    5  C7  UNL     1       7.708  12.294  16.584  1.00  0.00     0.058 C 
HETATM    6  C6  UNL     1       9.175  12.652  16.404  1.00  0.00     0.133 C 
HETATM    7  N1  UNL     1       9.652  12.840  17.758  1.00  0.00    -0.293 N 
HETATM    8  C5  UNL     1      10.558  13.864  18.142  1.00  0.00     0.366 C 
HETATM    9  C18 UNL     1       9.034  11.813  18.566  1.00  0.00     0.168 C 
HETATM   10  O2  UNL     1      11.006  14.683  17.304  1.00  0.00    -0.238 OA
HETATM   11  C19 UNL     1       9.809  10.521  18.523  1.00  0.00     0.064 C 
HETATM   12  O5  UNL     1       8.981  12.312  19.869  1.00  0.00    -0.358 OA
HETATM   13  C20 UNL     1      10.731  10.381  19.742  1.00  0.00     0.007 C 
HETATM   14  C21 UNL     1       9.804  10.330  20.951  1.00  0.00     0.026 C 
HETATM   15  C22 UNL     1       8.691  11.344  20.798  1.00  0.00     0.171 C 
BRANCH   8  16
HETATM   16  O1  UNL     1      10.997  14.015  19.457  1.00  0.00    -0.294 OA
BRANCH  16  17
HETATM   17  C2  UNL     1      10.516  15.040  20.302  1.00  0.00     0.061 C 
HETATM   18  C1  UNL     1      10.428  14.470  21.697  1.00  0.00     0.046 C 
HETATM   19  C3  UNL     1       9.193  15.596  19.875  1.00  0.00     0.046 C 
HETATM   20  C4  UNL     1      11.503  16.208  20.356  1.00  0.00     0.046 C 
ENDBRANCH  16  17
ENDBRANCH   8  16
ENDBRANCH   1   4
BRANCH   1  21
HETATM   21  C9  UNL     1       6.138  10.264  16.897  1.00  0.00     0.335 C 
BRANCH  21  22
HETATM   22  C10 UNL     1       5.946   8.839  16.425  1.00  0.00     0.247 C 
HETATM   23  O3  UNL     1       5.019   8.226  16.997  1.00  0.00    -0.271 OA
HETATM   24  N3  UNL     1       6.809   8.376  15.425  1.00  0.00    -0.326 N 
ATOM     25  H3  UNL     1       7.519   9.019  15.073  1.00  0.00     0.169 HD
BRANCH  24  26
HETATM   26  C11 UNL     1       6.763   7.081  14.872  1.00  0.00     0.037 A 
HETATM   27  C12 UNL     1       6.126   6.973  13.619  1.00  0.00     0.029 A 
HETATM   28  C13 UNL     1       6.045   5.731  13.054  1.00  0.00     0.005 A 
HETATM   29  C14 UNL     1       6.558   4.603  13.666  1.00  0.00     0.037 A 
HETATM   30  C15 UNL     1       7.172   4.738  14.887  1.00  0.00     0.080 A 
HETATM   31  C17 UNL     1       7.279   5.997  15.507  1.00  0.00     0.066 A 
BRANCH  30  32
HETATM   32  O4  UNL     1       7.688   3.642  15.511  1.00  0.00    -0.255 OA
BRANCH  32  33
HETATM   33  C16 UNL     1       8.636   2.752  15.013  1.00  0.00     0.530 C 
HETATM   34  F1  UNL     1       8.109   1.815  14.152  1.00  0.00    -0.144 F 
HETATM   35  F2  UNL     1       9.671   3.396  14.362  1.00  0.00    -0.144 F 
HETATM   36  F3  UNL     1       9.206   2.038  16.066  1.00  0.00    -0.144 F 
ENDBRANCH  32  33
ENDBRANCH  30  32
ENDBRANCH  24  26
ENDBRANCH  21  22
ENDBRANCH   1  21
TORSDOF 8
ENDMDL
MODEL 3
REMARK VINA RESULT: -7.249256710      2.403      2.778
REMARK  8 active torsions:
REMARK  status: ('A' for Active; 'I' for Inactive)
REMARK    1  A    between atoms: C2_2  and  O1_5 
REMARK    2  A    between atoms: O1_5  and  C5_6 
REMARK       I    between atoms: C5_6  and  N1_8 
REMARK    3  A    between atoms: C8_11  and  N2_12 
REMARK    4  A    between atoms: N2_12  and  C9_15 
REMARK    5  A    between atoms: C9_15  and  C10_16 
REMARK       I    between atoms: C10_16  and  N3_18 
REMARK    6  A    between atoms: N3_18  and  C11_20 
REMARK    7  A    between atoms: C15_24  and  O4_25 
REMARK    8  A    between atoms: O4_25  and  C16_26 
ROOT
HETATM    1  N2  UNL     1       7.822  12.648  15.000  1.00  0.00    -0.058 N 
ATOM      2  H21 UNL     1       7.455  12.635  15.951  1.00  0.00     0.278 HD
ATOM      3  H22 UNL     1       7.159  13.309  14.595  1.00  0.00     0.278 HD
ENDROOT
BRANCH   1   4
HETATM    4  C8  UNL     1       7.748  11.366  14.378  1.00  0.00     0.243 C 
HETATM    5  C7  UNL     1       7.444  11.554  12.905  1.00  0.00     0.058 C 
HETATM    6  C6  UNL     1       6.124  10.820  12.726  1.00  0.00     0.133 C 
HETATM    7  N1  UNL     1       6.136   9.828  13.780  1.00  0.00    -0.293 N 
HETATM    8  C5  UNL     1       5.665   8.498  13.619  1.00  0.00     0.366 C 
HETATM    9  C18 UNL     1       6.698  10.467  14.949  1.00  0.00     0.168 C 
HETATM   10  O2  UNL     1       5.200   8.102  12.523  1.00  0.00    -0.238 OA
HETATM   11  C19 UNL     1       5.655  11.220  15.734  1.00  0.00     0.064 C 
HETATM   12  O5  UNL     1       7.259   9.450  15.724  1.00  0.00    -0.358 OA
HETATM   13  C20 UNL     1       5.136  10.389  16.915  1.00  0.00     0.007 C 
HETATM   14  C21 UNL     1       6.341  10.174  17.824  1.00  0.00     0.026 C 
HETATM   15  C22 UNL     1       7.569   9.861  16.997  1.00  0.00     0.171 C 
BRANCH   8  16
HETATM   16  O1  UNL     1       5.691   7.569  14.658  1.00  0.00    -0.294 OA
BRANCH  16  17
HETATM   17  C2  UNL     1       6.434   6.369  14.582  1.00  0.00     0.061 C 
HETATM   18  C1  UNL     1       7.284   6.285  15.826  1.00  0.00     0.046 C 
HETATM   19  C3  UNL     1       7.285   6.270  13.354  1.00  0.00     0.046 C 
HETATM   20  C4  UNL     1       5.505   5.153  14.590  1.00  0.00     0.046 C 
ENDBRANCH  16  17
ENDBRANCH   8  16
ENDBRANCH   1   4
BRANCH   1  21
HETATM   21  C9  UNL     1       9.176  13.139  14.950  1.00  0.00     0.335 C 
BRANCH  21  22
HETATM   22  C10 UNL     1       9.782  13.174  16.336  1.00  0.00     0.247 C 
HETATM   23  O3  UNL     1      10.988  13.500  16.365  1.00  0.00    -0.271 OA
HETATM   24  N3  UNL     1       8.943  12.845  17.408  1.00  0.00    -0.326 N 
ATOM     25  H3  UNL     1       7.976  12.597  17.197  1.00  0.00     0.169 HD
BRANCH  24  26
HETATM   26  C11 UNL     1       9.346  12.834  18.758  1.00  0.00     0.037 A 
HETATM   27  C12 UNL     1       9.276  11.584  19.407  1.00  0.00     0.029 A 
HETATM   28  C13 UNL     1       9.643  11.532  20.722  1.00  0.00     0.005 A 
HETATM   29  C14 UNL     1      10.071  12.647  21.418  1.00  0.00     0.037 A 
HETATM   30  C15 UNL     1      10.129  13.851  20.760  1.00  0.00     0.080 A 
HETATM   31  C17 UNL     1       9.760  13.953  19.405  1.00  0.00     0.066 A 
BRANCH  30  32
HETATM   32  O4  UNL     1      10.548  14.965  21.423  1.00  0.00    -0.255 OA
BRANCH  32  33
HETATM   33  C16 UNL     1      11.180  16.083  20.884  1.00  0.00     0.530 C 
HETATM   34  F1  UNL     1      10.314  17.111  20.586  1.00  0.00    -0.144 F 
HETATM   35  F2  UNL     1      12.166  16.582  21.714  1.00  0.00    -0.144 F 
HETATM   36  F3  UNL     1      11.802  15.736  19.685  1.00  0.00    -0.144 F 
ENDBRANCH  32  33
ENDBRANCH  30  32
ENDBRANCH  24  26
ENDBRANCH  21  22
ENDBRANCH   1  21
TORSDOF 8
ENDMDL
MODEL 4
REMARK VINA RESULT: -7.113847130      4.167      8.510
REMARK  8 active torsions:
REMARK  status: ('A' for Active; 'I' for Inactive)
REMARK    1  A    between atoms: C2_2  and  O1_5 
REMARK    2  A    between atoms: O1_5  and  C5_6 
REMARK       I    between atoms: C5_6  and  N1_8 
REMARK    3  A    between atoms: C8_11  and  N2_12 
REMARK    4  A    between atoms: N2_12  and  C9_15 
REMARK    5  A    between atoms: C9_15  and  C10_16 
REMARK       I    between atoms: C10_16  and  N3_18 
REMARK    6  A    between atoms: N3_18  and  C11_20 
REMARK    7  A    between atoms: C15_24  and  O4_25 
REMARK    8  A    between atoms: O4_25  and  C16_26 
ROOT
HETATM    1  N2  UNL     1       5.721   9.291  14.268  1.00  0.00    -0.058 N 
ATOM      2  H21 UNL     1       5.279  10.179  14.035  1.00  0.00     0.278 HD
ATOM      3  H22 UNL     1       4.885   8.780  14.553  1.00  0.00     0.278 HD
ENDROOT
BRANCH   1   4
HETATM    4  C8  UNL     1       6.659   9.422  15.336  1.00  0.00     0.243 C 
HETATM    5  C7  UNL     1       6.102   8.726  16.563  1.00  0.00     0.058 C 
HETATM    6  C6  UNL     1       6.007   9.848  17.585  1.00  0.00     0.133 C 
HETATM    7  N1  UNL     1       7.020  10.790  17.157  1.00  0.00    -0.293 N 
HETATM    8  C5  UNL     1       7.867  11.499  18.049  1.00  0.00     0.366 C 
HETATM    9  C18 UNL     1       6.965  10.836  15.713  1.00  0.00     0.168 C 
HETATM   10  O2  UNL     1       7.781  11.341  19.291  1.00  0.00    -0.238 OA
HETATM   11  C19 UNL     1       5.922  11.805  15.221  1.00  0.00     0.064 C 
HETATM   12  O5  UNL     1       8.236  11.219  15.281  1.00  0.00    -0.358 OA
HETATM   13  C20 UNL     1       6.545  13.159  14.853  1.00  0.00     0.007 C 
HETATM   14  C21 UNL     1       7.497  12.869  13.698  1.00  0.00     0.026 C 
HETATM   15  C22 UNL     1       8.259  11.589  13.959  1.00  0.00     0.171 C 
BRANCH   8  16
HETATM   16  O1  UNL     1       8.832  12.400  17.601  1.00  0.00    -0.294 OA
BRANCH  16  17
HETATM   17  C2  UNL     1      10.163  12.383  18.075  1.00  0.00     0.061 C 
HETATM   18  C1  UNL     1      11.071  12.429  16.870  1.00  0.00     0.046 C 
HETATM   19  C3  UNL     1      10.478  11.193  18.928  1.00  0.00     0.046 C 
HETATM   20  C4  UNL     1      10.460  13.631  18.909  1.00  0.00     0.046 C 
ENDBRANCH  16  17
ENDBRANCH   8  16
ENDBRANCH   1   4
BRANCH   1  21
HETATM   21  C9  UNL     1       6.361   8.688  13.126  1.00  0.00     0.335 C 
BRANCH  21  22
HETATM   22  C10 UNL     1       6.126   7.193  13.111  1.00  0.00     0.247 C 
HETATM   23  O3  UNL     1       5.315   6.806  12.244  1.00  0.00    -0.271 OA
HETATM   24  N3  UNL     1       6.829   6.427  14.050  1.00  0.00    -0.326 N 
ATOM     25  H3  UNL     1       7.453   6.916  14.692  1.00  0.00     0.169 HD
BRANCH  24  26
HETATM   26  C11 UNL     1       6.729   5.027  14.167  1.00  0.00     0.037 A 
HETATM   27  C12 UNL     1       5.428   4.519  14.359  1.00  0.00     0.029 A 
HETATM   28  C13 UNL     1       5.289   3.166  14.494  1.00  0.00     0.005 A 
HETATM   29  C14 UNL     1       6.366   2.302  14.447  1.00  0.00     0.037 A 
HETATM   30  C15 UNL     1       7.622   2.824  14.259  1.00  0.00     0.080 A 
HETATM   31  C17 UNL     1       7.814   4.211  14.116  1.00  0.00     0.066 A 
BRANCH  30  32
HETATM   32  O4  UNL     1       8.700   1.993  14.209  1.00  0.00    -0.255 OA
BRANCH  32  33
HETATM   33  C16 UNL     1       9.850   2.050  14.993  1.00  0.00     0.530 C 
HETATM   34  F1  UNL     1      10.770   2.974  14.550  1.00  0.00    -0.144 F 
HETATM   35  F2  UNL     1       9.571   2.327  16.318  1.00  0.00    -0.144 F 
HETATM   36  F3  UNL     1      10.495   0.814  14.968  1.00  0.00    -0.144 F 
ENDBRANCH  32  33
ENDBRANCH  30  32
ENDBRANCH  24  26
ENDBRANCH  21  22
ENDBRANCH   1  21
TORSDOF 8
ENDMDL
MODEL 5
REMARK VINA RESULT: -7.112712960      4.657      9.173
REMARK  8 active torsions:
REMARK  status: ('A' for Active; 'I' for Inactive)
REMARK    1  A    between atoms: C2_2  and  O1_5 
REMARK    2  A    between atoms: O1_5  and  C5_6 
REMARK       I    between atoms: C5_6  and  N1_8 
REMARK    3  A    between atoms: C8_11  and  N2_12 
REMARK    4  A    between atoms: N2_12  and  C9_15 
REMARK    5  A    between atoms: C9_15  and  C10_16 
REMARK       I    between atoms: C10_16  and  N3_18 
REMARK    6  A    between atoms: N3_18  and  C11_20 
REMARK    7  A    between atoms: C15_24  and  O4_25 
REMARK    8  A    between atoms: O4_25  and  C16_26 
ROOT
HETATM    1  N2  UNL     1       7.139  10.339  17.871  1.00  0.00    -0.058 N 
ATOM      2  H21 UNL     1       6.830   9.985  18.776  1.00  0.00     0.278 HD
ATOM      3  H22 UNL     1       7.887   9.667  17.697  1.00  0.00     0.278 HD
ENDROOT
BRANCH   1   4
HETATM    4  C8  UNL     1       7.630  11.676  17.957  1.00  0.00     0.243 C 
HETATM    5  C7  UNL     1       7.690  12.265  16.561  1.00  0.00     0.058 C 
HETATM    6  C6  UNL     1       9.165  12.595  16.387  1.00  0.00     0.133 C 
HETATM    7  N1  UNL     1       9.635  12.796  17.741  1.00  0.00    -0.293 N 
HETATM    8  C5  UNL     1      10.556  13.810  18.116  1.00  0.00     0.366 C 
HETATM    9  C18 UNL     1       8.994  11.792  18.559  1.00  0.00     0.168 C 
HETATM   10  O2  UNL     1      11.024  14.608  17.268  1.00  0.00    -0.238 OA
HETATM   11  C19 UNL     1       9.747  10.487  18.542  1.00  0.00     0.064 C 
HETATM   12  O5  UNL     1       8.941  12.312  19.854  1.00  0.00    -0.358 OA
HETATM   13  C20 UNL     1      10.658  10.350  19.770  1.00  0.00     0.007 C 
HETATM   14  C21 UNL     1       9.721  10.333  20.973  1.00  0.00     0.026 C 
HETATM   15  C22 UNL     1       8.627  11.363  20.796  1.00  0.00     0.171 C 
BRANCH   8  16
HETATM   16  O1  UNL     1      10.988  13.974  19.431  1.00  0.00    -0.294 OA
BRANCH  16  17
HETATM   17  C2  UNL     1      10.522  15.023  20.256  1.00  0.00     0.061 C 
HETATM   18  C1  UNL     1      10.436  14.485  21.663  1.00  0.00     0.046 C 
HETATM   19  C3  UNL     1       9.203  15.583  19.823  1.00  0.00     0.046 C 
HETATM   20  C4  UNL     1      11.522  16.181  20.278  1.00  0.00     0.046 C 
ENDBRANCH  16  17
ENDBRANCH   8  16
ENDBRANCH   1   4
BRANCH   1  21
HETATM   21  C9  UNL     1       6.099  10.263  16.876  1.00  0.00     0.335 C 
BRANCH  21  22
HETATM   22  C10 UNL     1       5.898   8.832  16.425  1.00  0.00     0.247 C 
HETATM   23  O3  UNL     1       5.005   8.216  17.044  1.00  0.00    -0.271 OA
HETATM   24  N3  UNL     1       6.716   8.369  15.388  1.00  0.00    -0.326 N 
ATOM     25  H3  UNL     1       7.403   9.015  14.998  1.00  0.00     0.169 HD
BRANCH  24  26
HETATM   26  C11 UNL     1       6.655   7.069  14.847  1.00  0.00     0.037 A 
HETATM   27  C12 UNL     1       7.471   6.106  15.475  1.00  0.00     0.029 A 
HETATM   28  C13 UNL     1       7.454   4.835  14.972  1.00  0.00     0.005 A 
HETATM   29  C14 UNL     1       6.675   4.478  13.888  1.00  0.00     0.037 A 
HETATM   30  C15 UNL     1       5.890   5.437  13.296  1.00  0.00     0.080 A 
HETATM   31  C17 UNL     1       5.876   6.758  13.779  1.00  0.00     0.066 A 
BRANCH  30  32
HETATM   32  O4  UNL     1       5.112   5.110  12.226  1.00  0.00    -0.255 OA
BRANCH  32  33
HETATM   33  C16 UNL     1       4.323   3.973  12.069  1.00  0.00     0.530 C 
HETATM   34  F1  UNL     1       4.971   2.939  11.430  1.00  0.00    -0.144 F 
HETATM   35  F2  UNL     1       3.842   3.496  13.274  1.00  0.00    -0.144 F 
HETATM   36  F3  UNL     1       3.211   4.281  11.287  1.00  0.00    -0.144 F 
ENDBRANCH  32  33
ENDBRANCH  30  32
ENDBRANCH  24  26
ENDBRANCH  21  22
ENDBRANCH   1  21
TORSDOF 8
ENDMDL
