MODEL 1
REMARK VINA RESULT: -6.021301234      0.000      0.000
REMARK  6 active torsions:
REMARK  status: ('A' for Active; 'I' for Inactive)
REMARK    1  A    between atoms: C2_2  and  O1_4 
REMARK    2  A    between atoms: O1_4  and  C4_5 
REMARK    3  A    between atoms: C12_13  and  C13_14 
REMARK    4  A    between atoms: C13_14  and  C14_15 
REMARK    5  A    between atoms: C14_15  and  C15_16 
REMARK    6  A    between atoms: C15_16  and  N1_17 
ROOT
HETATM    1  C4  UNL     1       2.441   1.874  10.888  1.00  0.00     0.194 C 
HETATM    2  C5  UNL     1       3.823   1.946  10.277  1.00  0.00     0.039 C 
HETATM    3  C6  UNL     1       4.909   2.212  11.296  1.00  0.00     0.018 C 
HETATM    4  C7  UNL     1       4.564   3.373  12.194  1.00  0.00     0.026 C 
HETATM    5  C8  UNL     1       4.799   4.631  11.344  1.00  0.00     0.054 C 
HETATM    6  C9  UNL     1       5.321   5.588  12.374  1.00  0.00    -0.046 A 
HETATM    7  C10 UNL     1       5.364   6.982  12.271  1.00  0.00     0.008 A 
HETATM    8  C11 UNL     1       5.874   7.705  13.324  1.00  0.00     0.007 A 
HETATM    9  C12 UNL     1       6.336   7.069  14.463  1.00  0.00    -0.057 A 
HETATM   10  C19 UNL     1       6.268   5.699  14.507  1.00  0.00     0.020 A 
HETATM   11  C20 UNL     1       5.764   4.913  13.477  1.00  0.00     0.007 A 
HETATM   12  C21 UNL     1       5.587   3.475  13.265  1.00  0.00     0.200 C 
HETATM   13  N2  UNL     1       5.261   2.752  14.469  1.00  0.00    -0.325 N 
ATOM     14  H2  UNL     1       4.351   2.690  14.924  1.00  0.00     0.165 HD
HETATM   15  C22 UNL     1       6.371   2.196  14.853  1.00  0.00     0.212 C 
HETATM   16  N3  UNL     1       6.547   1.380  15.997  1.00  0.00    -0.062 NA
HETATM   17  N4  UNL     1       7.417   2.527  13.944  1.00  0.00    -0.231 N 
HETATM   18  C23 UNL     1       8.836   2.503  14.119  1.00  0.00     0.188 C 
HETATM   19  O2  UNL     1       6.768   2.896  12.801  1.00  0.00    -0.237 OA
HETATM   20  C24 UNL     1       3.159   3.349  12.684  1.00  0.00     0.097 C 
HETATM   21  C25 UNL     1       2.447   2.044  12.387  1.00  0.00     0.270 C 
HETATM   22  F2  UNL     1       1.136   2.219  12.781  1.00  0.00    -0.203 F 
HETATM   23  F3  UNL     1       3.088   1.057  13.059  1.00  0.00    -0.203 F 
ENDROOT
BRANCH   1  24
HETATM   24  O1  UNL     1       1.711   0.801  10.445  1.00  0.00    -0.375 OA
BRANCH  24  25
HETATM   25  C2  UNL     1       0.652   1.043   9.644  1.00  0.00     0.114 C 
HETATM   26  C1  UNL     1      -0.617   0.784  10.474  1.00  0.00     0.039 C 
HETATM   27  C3  UNL     1       0.537   2.514   9.221  1.00  0.00     0.039 C 
ENDBRANCH  24  25
ENDBRANCH   1  24
BRANCH   9  28
HETATM   28  C13 UNL     1       6.901   7.792  15.613  1.00  0.00     0.049 C 
BRANCH  28  29
HETATM   29  C14 UNL     1       6.280   9.103  15.940  1.00  0.00    -0.008 C 
HETATM   30  C16 UNL     1       5.663   9.840  14.773  1.00  0.00     0.049 C 
HETATM   31  C17 UNL     1       6.147  11.139  15.437  1.00  0.00     0.171 C 
HETATM   32  F1  UNL     1       6.652  12.047  14.523  1.00  0.00    -0.249 F 
HETATM   33  C18 UNL     1       7.222  10.287  16.093  1.00  0.00     0.049 C 
BRANCH  29  34
HETATM   34  C15 UNL     1       5.272   9.076  17.067  1.00  0.00     0.239 C 
BRANCH  34  35
HETATM   35  N1  UNL     1       4.809   7.772  17.402  1.00  0.00    -0.079 N 
ATOM     36  H13 UNL     1       4.618   7.233  16.558  1.00  0.00     0.274 HD
ATOM     37  H12 UNL     1       5.567   7.215  17.797  1.00  0.00     0.274 HD
ATOM     38  H11 UNL     1       3.999   7.764  18.023  1.00  0.00     0.274 HD
ENDBRANCH  34  35
ENDBRANCH  29  34
ENDBRANCH  28  29
ENDBRANCH   9  28
TORSDOF 6
ENDMDL
MODEL 2
REMARK VINA RESULT: -5.553754719      1.403      1.642
REMARK  6 active torsions:
REMARK  status: ('A' for Active; 'I' for Inactive)
REMARK    1  A    between atoms: C2_2  and  O1_4 
REMARK    2  A    between atoms: O1_4  and  C4_5 
REMARK    3  A    between atoms: C12_13  and  C13_14 
REMARK    4  A    between atoms: C13_14  and  C14_15 
REMARK    5  A    between atoms: C14_15  and  C15_16 
REMARK    6  A    between atoms: C15_16  and  N1_17 
ROOT
HETATM    1  C4  UNL     1       1.564   1.824  10.723  1.00  0.00     0.194 C 
HETATM    2  C5  UNL     1       2.919   1.715  10.059  1.00  0.00     0.039 C 
HETATM    3  C6  UNL     1       4.069   1.910  11.021  1.00  0.00     0.018 C 
HETATM    4  C7  UNL     1       3.889   3.143  11.869  1.00  0.00     0.026 C 
HETATM    5  C8  UNL     1       4.221   4.326  10.947  1.00  0.00     0.054 C 
HETATM    6  C9  UNL     1       4.885   5.268  11.906  1.00  0.00    -0.046 A 
HETATM    7  C10 UNL     1       5.072   6.643  11.728  1.00  0.00     0.008 A 
HETATM    8  C11 UNL     1       5.701   7.356  12.722  1.00  0.00     0.007 A 
HETATM    9  C12 UNL     1       6.141   6.729  13.875  1.00  0.00    -0.057 A 
HETATM   10  C19 UNL     1       5.929   5.377  13.992  1.00  0.00     0.020 A 
HETATM   11  C20 UNL     1       5.301   4.603  13.024  1.00  0.00     0.007 A 
HETATM   12  C21 UNL     1       4.962   3.184  12.895  1.00  0.00     0.200 C 
HETATM   13  N2  UNL     1       4.612   2.559  14.146  1.00  0.00    -0.325 N 
ATOM     14  H2  UNL     1       3.721   2.618  14.638  1.00  0.00     0.165 HD
HETATM   15  C22 UNL     1       5.672   1.904  14.517  1.00  0.00     0.212 C 
HETATM   16  N3  UNL     1       5.808   1.130  15.694  1.00  0.00    -0.062 NA
HETATM   17  N4  UNL     1       6.708   2.076  13.553  1.00  0.00    -0.231 N 
HETATM   18  C23 UNL     1       8.122   1.906  13.675  1.00  0.00     0.188 C 
HETATM   19  O2  UNL     1       6.053   2.459  12.418  1.00  0.00    -0.237 OA
HETATM   20  C24 UNL     1       2.512   3.296  12.412  1.00  0.00     0.097 C 
HETATM   21  C25 UNL     1       1.652   2.063  12.211  1.00  0.00     0.270 C 
HETATM   22  F2  UNL     1       0.386   2.398  12.643  1.00  0.00    -0.203 F 
HETATM   23  F3  UNL     1       2.212   1.045  12.908  1.00  0.00    -0.203 F 
ENDROOT
BRANCH   1  24
HETATM   24  O1  UNL     1       0.706   0.816  10.365  1.00  0.00    -0.375 OA
BRANCH  24  25
HETATM   25  C2  UNL     1      -0.310   1.118   9.528  1.00  0.00     0.114 C 
HETATM   26  C1  UNL     1      -0.478   2.647   9.544  1.00  0.00     0.039 C 
HETATM   27  C3  UNL     1      -0.005   0.783   8.062  1.00  0.00     0.039 C 
ENDBRANCH  24  25
ENDBRANCH   1  24
BRANCH   9  28
HETATM   28  C13 UNL     1       6.829   7.440  14.964  1.00  0.00     0.049 C 
BRANCH  28  29
HETATM   29  C14 UNL     1       6.205   8.710  15.421  1.00  0.00    -0.008 C 
HETATM   30  C16 UNL     1       7.104   9.627  16.218  1.00  0.00     0.049 C 
HETATM   31  C17 UNL     1       5.865   9.994  17.049  1.00  0.00     0.171 C 
HETATM   32  F1  UNL     1       6.142  10.099  18.401  1.00  0.00    -0.249 F 
HETATM   33  C18 UNL     1       5.318   8.631  16.653  1.00  0.00     0.049 C 
BRANCH  29  34
HETATM   34  C15 UNL     1       5.540   9.528  14.337  1.00  0.00     0.239 C 
BRANCH  34  35
HETATM   35  N1  UNL     1       6.382  10.514  13.750  1.00  0.00    -0.079 N 
ATOM     36  H13 UNL     1       7.269  10.569  14.252  1.00  0.00     0.274 HD
ATOM     37  H12 UNL     1       6.717  10.200  12.839  1.00  0.00     0.274 HD
ATOM     38  H11 UNL     1       5.956  11.437  13.676  1.00  0.00     0.274 HD
ENDBRANCH  34  35
ENDBRANCH  29  34
ENDBRANCH  28  29
ENDBRANCH   9  28
TORSDOF 6
ENDMDL
MODEL 3
REMARK VINA RESULT: -5.253558464      2.806      4.059
REMARK  6 active torsions:
REMARK  status: ('A' for Active; 'I' for Inactive)
REMARK    1  A    between atoms: C2_2  and  O1_4 
REMARK    2  A    between atoms: O1_4  and  C4_5 
REMARK    3  A    between atoms: C12_13  and  C13_14 
REMARK    4  A    between atoms: C13_14  and  C14_15 
REMARK    5  A    between atoms: C14_15  and  C15_16 
REMARK    6  A    between atoms: C15_16  and  N1_17 
ROOT
HETATM    1  C4  UNL     1       6.614   1.606   9.409  1.00  0.00     0.194 C 
HETATM    2  C5  UNL     1       6.780   0.783  10.668  1.00  0.00     0.039 C 
HETATM    3  C6  UNL     1       5.887   1.241  11.799  1.00  0.00     0.018 C 
HETATM    4  C7  UNL     1       5.972   2.731  12.013  1.00  0.00     0.026 C 
HETATM    5  C8  UNL     1       7.310   2.966  12.731  1.00  0.00     0.054 C 
HETATM    6  C9  UNL     1       6.958   4.099  13.647  1.00  0.00    -0.046 A 
HETATM    7  C10 UNL     1       7.852   4.972  14.276  1.00  0.00     0.008 A 
HETATM    8  C11 UNL     1       7.346   5.964  15.082  1.00  0.00     0.007 A 
HETATM    9  C12 UNL     1       5.981   6.100  15.270  1.00  0.00    -0.057 A 
HETATM   10  C19 UNL     1       5.153   5.214  14.626  1.00  0.00     0.020 A 
HETATM   11  C20 UNL     1       5.603   4.190  13.800  1.00  0.00     0.007 A 
HETATM   12  C21 UNL     1       4.957   3.132  13.020  1.00  0.00     0.200 C 
HETATM   13  N2  UNL     1       3.687   3.523  12.460  1.00  0.00    -0.325 N 
ATOM     14  H2  UNL     1       3.528   4.089  11.627  1.00  0.00     0.165 HD
HETATM   15  C22 UNL     1       2.788   3.003  13.241  1.00  0.00     0.212 C 
HETATM   16  N3  UNL     1       1.384   3.118  13.093  1.00  0.00    -0.062 NA
HETATM   17  N4  UNL     1       3.421   2.284  14.295  1.00  0.00    -0.231 N 
HETATM   18  C23 UNL     1       2.920   1.886  15.574  1.00  0.00     0.188 C 
HETATM   19  O2  UNL     1       4.677   2.029  13.825  1.00  0.00    -0.237 OA
HETATM   20  C24 UNL     1       5.932   3.517  10.750  1.00  0.00     0.097 C 
HETATM   21  C25 UNL     1       5.563   2.682   9.540  1.00  0.00     0.270 C 
HETATM   22  F2  UNL     1       5.691   3.509   8.444  1.00  0.00    -0.203 F 
HETATM   23  F3  UNL     1       4.304   2.214   9.724  1.00  0.00    -0.203 F 
ENDROOT
BRANCH   1  24
HETATM   24  O1  UNL     1       6.499   0.842   8.277  1.00  0.00    -0.375 OA
BRANCH  24  25
HETATM   25  C2  UNL     1       7.475   0.934   7.349  1.00  0.00     0.114 C 
HETATM   26  C1  UNL     1       6.860   1.590   6.101  1.00  0.00     0.039 C 
HETATM   27  C3  UNL     1       8.611   1.882   7.758  1.00  0.00     0.039 C 
ENDBRANCH  24  25
ENDBRANCH   1  24
BRANCH   9  28
HETATM   28  C13 UNL     1       5.388   7.136  16.130  1.00  0.00     0.049 C 
BRANCH  28  29
HETATM   29  C14 UNL     1       5.717   8.545  15.790  1.00  0.00    -0.008 C 
HETATM   30  C16 UNL     1       7.141   8.967  16.072  1.00  0.00     0.049 C 
HETATM   31  C17 UNL     1       6.576  10.342  16.461  1.00  0.00     0.171 C 
HETATM   32  F1  UNL     1       7.197  10.875  17.577  1.00  0.00    -0.249 F 
HETATM   33  C18 UNL     1       5.284   9.608  16.787  1.00  0.00     0.049 C 
BRANCH  29  34
HETATM   34  C15 UNL     1       5.371   8.966  14.379  1.00  0.00     0.239 C 
BRANCH  34  35
HETATM   35  N1  UNL     1       6.441   8.827  13.451  1.00  0.00    -0.079 N 
ATOM     36  H13 UNL     1       7.176   8.236  13.839  1.00  0.00     0.274 HD
ATOM     37  H12 UNL     1       6.154   8.251  12.659  1.00  0.00     0.274 HD
ATOM     38  H11 UNL     1       6.829   9.713  13.126  1.00  0.00     0.274 HD
ENDBRANCH  34  35
ENDBRANCH  29  34
ENDBRANCH  28  29
ENDBRANCH   9  28
TORSDOF 6
ENDMDL
MODEL 4
REMARK VINA RESULT: -4.952435124      3.137      8.006
REMARK  6 active torsions:
REMARK  status: ('A' for Active; 'I' for Inactive)
REMARK    1  A    between atoms: C2_2  and  O1_4 
REMARK    2  A    between atoms: O1_4  and  C4_5 
REMARK    3  A    between atoms: C12_13  and  C13_14 
REMARK    4  A    between atoms: C13_14  and  C14_15 
REMARK    5  A    between atoms: C14_15  and  C15_16 
REMARK    6  A    between atoms: C15_16  and  N1_17 
ROOT
HETATM    1  C4  UNL     1       6.058   7.854  14.918  1.00  0.00     0.194 C 
HETATM    2  C5  UNL     1       5.284   6.789  15.666  1.00  0.00     0.039 C 
HETATM    3  C6  UNL     1       5.793   5.390  15.400  1.00  0.00     0.018 C 
HETATM    4  C7  UNL     1       5.956   5.123  13.925  1.00  0.00     0.026 C 
HETATM    5  C8  UNL     1       4.532   4.903  13.390  1.00  0.00     0.054 C 
HETATM    6  C9  UNL     1       4.769   3.850  12.349  1.00  0.00    -0.046 A 
HETATM    7  C10 UNL     1       3.916   3.518  11.291  1.00  0.00     0.008 A 
HETATM    8  C11 UNL     1       4.301   2.523  10.423  1.00  0.00     0.007 A 
HETATM    9  C12 UNL     1       5.505   1.862  10.590  1.00  0.00    -0.057 A 
HETATM   10  C19 UNL     1       6.300   2.232  11.647  1.00  0.00     0.020 A 
HETATM   11  C20 UNL     1       5.967   3.228  12.558  1.00  0.00     0.007 A 
HETATM   12  C21 UNL     1       6.608   3.801  13.744  1.00  0.00     0.200 C 
HETATM   13  N2  UNL     1       8.045   3.855  13.652  1.00  0.00    -0.325 N 
ATOM     14  H2  UNL     1       8.606   4.541  13.148  1.00  0.00     0.165 HD
HETATM   15  C22 UNL     1       8.477   2.844  14.347  1.00  0.00     0.212 C 
HETATM   16  N3  UNL     1       9.831   2.485  14.548  1.00  0.00    -0.062 NA
HETATM   17  N4  UNL     1       7.373   2.127  14.893  1.00  0.00    -0.231 N 
HETATM   18  C23 UNL     1       7.291   0.783  15.372  1.00  0.00     0.188 C 
HETATM   19  O2  UNL     1       6.343   3.023  14.870  1.00  0.00    -0.237 OA
HETATM   20  C24 UNL     1       6.607   6.238  13.186  1.00  0.00     0.097 C 
HETATM   21  C25 UNL     1       7.195   7.295  14.101  1.00  0.00     0.270 C 
HETATM   22  F2  UNL     1       7.644   8.310  13.281  1.00  0.00    -0.203 F 
HETATM   23  F3  UNL     1       8.177   6.714  14.832  1.00  0.00    -0.203 F 
ENDROOT
BRANCH   1  24
HETATM   24  O1  UNL     1       6.402   8.922  15.706  1.00  0.00    -0.375 OA
BRANCH  24  25
HETATM   25  C2  UNL     1       5.658  10.044  15.612  1.00  0.00     0.114 C 
HETATM   26  C1  UNL     1       6.426  11.165  16.333  1.00  0.00     0.039 C 
HETATM   27  C3  UNL     1       5.508  10.551  14.171  1.00  0.00     0.039 C 
ENDBRANCH  24  25
ENDBRANCH   1  24
BRANCH   9  28
HETATM   28  C13 UNL     1       5.960   0.783   9.699  1.00  0.00     0.049 C 
BRANCH  28  29
HETATM   29  C14 UNL     1       6.515   1.202   8.385  1.00  0.00    -0.008 C 
HETATM   30  C16 UNL     1       6.280   2.647   8.009  1.00  0.00     0.049 C 
HETATM   31  C17 UNL     1       6.125   2.164   6.558  1.00  0.00     0.171 C 
HETATM   32  F1  UNL     1       5.098   2.808   5.890  1.00  0.00    -0.249 F 
HETATM   33  C18 UNL     1       5.709   0.828   7.152  1.00  0.00     0.049 C 
BRANCH  29  34
HETATM   34  C15 UNL     1       7.981   0.893   8.176  1.00  0.00     0.239 C 
BRANCH  34  35
HETATM   35  N1  UNL     1       8.863   1.907   8.645  1.00  0.00    -0.079 N 
ATOM     36  H13 UNL     1       9.715   1.492   9.023  1.00  0.00     0.274 HD
ATOM     37  H12 UNL     1       9.256   2.428   7.862  1.00  0.00     0.274 HD
ATOM     38  H11 UNL     1       8.444   2.543   9.324  1.00  0.00     0.274 HD
ENDBRANCH  34  35
ENDBRANCH  29  34
ENDBRANCH  28  29
ENDBRANCH   9  28
TORSDOF 6
ENDMDL
MODEL 5
REMARK VINA RESULT: -4.544335172      1.029      1.083
REMARK  6 active torsions:
REMARK  status: ('A' for Active; 'I' for Inactive)
REMARK    1  A    between atoms: C2_2  and  O1_4 
REMARK    2  A    between atoms: O1_4  and  C4_5 
REMARK    3  A    between atoms: C12_13  and  C13_14 
REMARK    4  A    between atoms: C13_14  and  C14_15 
REMARK    5  A    between atoms: C14_15  and  C15_16 
REMARK    6  A    between atoms: C15_16  and  N1_17 
ROOT
HETATM    1  C4  UNL     1       3.015   1.919  11.858  1.00  0.00     0.194 C 
HETATM    2  C5  UNL     1       4.310   2.123  11.102  1.00  0.00     0.039 C 
HETATM    3  C6  UNL     1       5.470   2.488  12.001  1.00  0.00     0.018 C 
HETATM    4  C7  UNL     1       5.117   3.608  12.946  1.00  0.00     0.026 C 
HETATM    5  C8  UNL     1       5.140   4.886  12.093  1.00  0.00     0.054 C 
HETATM    6  C9  UNL     1       5.679   5.884  13.073  1.00  0.00    -0.046 A 
HETATM    7  C10 UNL     1       5.579   7.276  12.983  1.00  0.00     0.008 A 
HETATM    8  C11 UNL     1       6.130   8.042  13.984  1.00  0.00     0.007 A 
HETATM    9  C12 UNL     1       6.772   7.450  15.059  1.00  0.00    -0.057 A 
HETATM   10  C19 UNL     1       6.837   6.078  15.091  1.00  0.00     0.020 A 
HETATM   11  C20 UNL     1       6.301   5.251  14.112  1.00  0.00     0.007 A 
HETATM   12  C21 UNL     1       6.237   3.803  13.902  1.00  0.00     0.200 C 
HETATM   13  N2  UNL     1       6.113   3.050  15.125  1.00  0.00    -0.325 N 
ATOM     14  H2  UNL     1       5.268   2.900  15.675  1.00  0.00     0.165 HD
HETATM   15  C22 UNL     1       7.306   2.600  15.379  1.00  0.00     0.212 C 
HETATM   16  N3  UNL     1       7.681   1.802  16.486  1.00  0.00    -0.062 NA
HETATM   17  N4  UNL     1       8.211   3.032  14.366  1.00  0.00    -0.231 N 
HETATM   18  C23 UNL     1       9.636   3.142  14.386  1.00  0.00     0.188 C 
HETATM   19  O2  UNL     1       7.409   3.341  13.305  1.00  0.00    -0.237 OA
HETATM   20  C24 UNL     1       3.783   3.450  13.585  1.00  0.00     0.097 C 
HETATM   21  C25 UNL     1       3.168   2.084  13.350  1.00  0.00     0.270 C 
HETATM   22  F2  UNL     1       1.898   2.133  13.885  1.00  0.00    -0.203 F 
HETATM   23  F3  UNL     1       3.969   1.160  13.935  1.00  0.00    -0.203 F 
ENDROOT
BRANCH   1  24
HETATM   24  O1  UNL     1       2.346   0.783  11.482  1.00  0.00    -0.375 OA
BRANCH  24  25
HETATM   25  C2  UNL     1       1.274   0.918  10.673  1.00  0.00     0.114 C 
HETATM   26  C1  UNL     1       0.136   1.519  11.515  1.00  0.00     0.039 C 
HETATM   27  C3  UNL     1       1.493   1.936   9.545  1.00  0.00     0.039 C 
ENDBRANCH  24  25
ENDBRANCH   1  24
BRANCH   9  28
HETATM   28  C13 UNL     1       7.388   8.220  16.150  1.00  0.00     0.049 C 
BRANCH  28  29
HETATM   29  C14 UNL     1       6.827   9.574  16.402  1.00  0.00    -0.008 C 
HETATM   30  C16 UNL     1       6.766  10.487  15.200  1.00  0.00     0.049 C 
HETATM   31  C17 UNL     1       7.098  11.643  16.157  1.00  0.00     0.171 C 
HETATM   32  F1  UNL     1       7.997  12.543  15.611  1.00  0.00    -0.249 F 
HETATM   33  C18 UNL     1       7.760  10.593  17.036  1.00  0.00     0.049 C 
BRANCH  29  34
HETATM   34  C15 UNL     1       5.476   9.595  17.081  1.00  0.00     0.239 C 
BRANCH  34  35
HETATM   35  N1  UNL     1       4.915   8.306  17.304  1.00  0.00    -0.079 N 
ATOM     36  H13 UNL     1       3.900   8.338  17.211  1.00  0.00     0.274 HD
ATOM     37  H12 UNL     1       5.140   7.681  16.530  1.00  0.00     0.274 HD
ATOM     38  H11 UNL     1       5.180   7.884  18.193  1.00  0.00     0.274 HD
ENDBRANCH  34  35
ENDBRANCH  29  34
ENDBRANCH  28  29
ENDBRANCH   9  28
TORSDOF 6
ENDMDL
