MODEL 1
REMARK VINA RESULT: -7.326338794      0.000      0.000
REMARK  6 active torsions:
REMARK  status: ('A' for Active; 'I' for Inactive)
REMARK    1  A    between atoms: C2_2  and  C3_3 
REMARK    2  A    between atoms: C3_3  and  C4_4 
REMARK    3  A    between atoms: N1_8  and  N2_10 
REMARK    4  A    between atoms: N2_10  and  C7_12 
REMARK    5  A    between atoms: S1_24  and  C17_25 
REMARK    6  A    between atoms: C18_27  and  O2_28 
ROOT
HETATM    1  C4  UNL     1      10.857  15.065  19.834  1.00  0.00     0.146 C 
HETATM    2  C5  UNL     1      10.414  15.007  21.277  1.00  0.00     0.209 C 
HETATM    3  O1  UNL     1      10.262  13.682  21.738  1.00  0.00    -0.335 OA
HETATM    4  C6  UNL     1       9.881  12.509  21.125  1.00  0.00     0.142 C 
HETATM    5  N1  UNL     1       9.969  11.468  21.875  1.00  0.00    -0.283 N 
ATOM      6  H1  UNL     1       9.705  10.559  21.495  1.00  0.00     0.188 HD
HETATM    7  C13 UNL     1       9.396  12.321  19.739  1.00  0.00     0.129 C 
HETATM    8  C14 UNL     1      10.269  13.071  18.810  1.00  0.00     0.139 C 
HETATM    9  C15 UNL     1      10.124  12.766  17.364  1.00  0.00     0.058 C 
HETATM   10  C16 UNL     1       8.707  12.604  16.950  1.00  0.00     0.115 C 
HETATM   11 BR1  UNL     1       8.390  12.548  15.090  1.00  0.00    -0.080 Br
HETATM   12  S1  UNL     1       8.323  10.646  17.708  1.00  0.00    -0.162 SA
HETATM   13  C18 UNL     1       9.235  10.856  19.420  1.00  0.00     0.186 C 
HETATM   14  O3  UNL     1       9.977  14.447  18.977  1.00  0.00    -0.377 OA
ENDROOT
BRANCH   5  15
HETATM   15  N2  UNL     1      10.415  11.547  23.191  1.00  0.00    -0.299 N 
ATOM     16  H2  UNL     1      10.993  12.330  23.496  1.00  0.00     0.187 HD
BRANCH  15  17
HETATM   17  C7  UNL     1      10.052  10.523  24.096  1.00  0.00     0.048 A 
HETATM   18  C8  UNL     1      10.870  10.235  25.158  1.00  0.00     0.034 A 
HETATM   19  C9  UNL     1      10.555   9.237  26.074  1.00  0.00     0.044 A 
HETATM   20  C10 UNL     1       9.398   8.518  25.919  1.00  0.00     0.116 A 
HETATM   21  F1  UNL     1       9.123   7.557  26.825  1.00  0.00    -0.206 F 
HETATM   22  C11 UNL     1       8.558   8.783  24.864  1.00  0.00     0.044 A 
HETATM   23  C12 UNL     1       8.897   9.792  23.957  1.00  0.00     0.034 A 
ENDBRANCH  15  17
ENDBRANCH   5  15
BRANCH  13  24
HETATM   24  O2  UNL     1      10.432  10.183  19.504  1.00  0.00    -0.385 OA
ATOM     25  H2  UNL     1      10.781   9.979  18.645  1.00  0.00     0.211 HD
ENDBRANCH  13  24
BRANCH   1  26
HETATM   26  C3  UNL     1      10.916  16.541  19.451  1.00  0.00     0.034 C 
BRANCH  26  27
HETATM   27  C2  UNL     1      10.159  17.378  20.479  1.00  0.00    -0.002 C 
HETATM   28  C1  UNL     1       8.784  17.649  19.935  1.00  0.00     0.005 C 
ENDBRANCH  26  27
ENDBRANCH   1  26
BRANCH  12  29
HETATM   29  C17 UNL     1       6.389  10.191  17.617  1.00  0.00     0.181 C 
HETATM   30 CL1  UNL     1       6.190   9.018  16.326  1.00  0.00    -0.120 Cl
ENDBRANCH  12  29
TORSDOF 6
ENDMDL
MODEL 2
REMARK VINA RESULT: -7.132599468      5.980      9.768
REMARK  6 active torsions:
REMARK  status: ('A' for Active; 'I' for Inactive)
REMARK    1  A    between atoms: C2_2  and  C3_3 
REMARK    2  A    between atoms: C3_3  and  C4_4 
REMARK    3  A    between atoms: N1_8  and  N2_10 
REMARK    4  A    between atoms: N2_10  and  C7_12 
REMARK    5  A    between atoms: S1_24  and  C17_25 
REMARK    6  A    between atoms: C18_27  and  O2_28 
ROOT
HETATM    1  C4  UNL     1       7.303  10.940  16.389  1.00  0.00     0.146 C 
HETATM    2  C5  UNL     1       6.949  11.931  15.305  1.00  0.00     0.209 C 
HETATM    3  O1  UNL     1       8.051  12.727  14.926  1.00  0.00    -0.335 OA
HETATM    4  C6  UNL     1       9.142  13.213  15.611  1.00  0.00     0.142 C 
HETATM    5  N1  UNL     1       9.999  13.827  14.874  1.00  0.00    -0.283 N 
ATOM      6  H1  UNL     1      10.836  14.217  15.306  1.00  0.00     0.188 HD
HETATM    7  C13 UNL     1       9.428  13.109  17.060  1.00  0.00     0.129 C 
HETATM    8  C14 UNL     1       9.173  11.724  17.510  1.00  0.00     0.139 C 
HETATM    9  C15 UNL     1       9.685  11.354  18.854  1.00  0.00     0.058 C 
HETATM   10  C16 UNL     1       9.477  12.424  19.863  1.00  0.00     0.115 C 
HETATM   11 BR1  UNL     1       9.782  11.935  21.661  1.00  0.00    -0.080 Br
HETATM   12  S1  UNL     1      11.041  13.765  19.308  1.00  0.00    -0.162 SA
HETATM   13  C18 UNL     1      10.804  13.640  17.375  1.00  0.00     0.186 C 
HETATM   14  O3  UNL     1       7.770  11.541  17.534  1.00  0.00    -0.377 OA
ENDROOT
BRANCH   5  15
HETATM   15  N2  UNL     1       9.815  13.974  13.503  1.00  0.00    -0.299 N 
ATOM     16  H2  UNL     1       9.131  13.402  13.007  1.00  0.00     0.187 HD
BRANCH  15  17
HETATM   17  C7  UNL     1      10.592  14.930  12.809  1.00  0.00     0.048 A 
HETATM   18  C8  UNL     1      11.242  14.569  11.657  1.00  0.00     0.034 A 
HETATM   19  C9  UNL     1      12.018  15.474  10.940  1.00  0.00     0.044 A 
HETATM   20  C10 UNL     1      12.142  16.764  11.392  1.00  0.00     0.116 A 
HETATM   21  F1  UNL     1      12.902  17.615  10.673  1.00  0.00    -0.206 F 
HETATM   22  C11 UNL     1      11.503  17.155  12.544  1.00  0.00     0.044 A 
HETATM   23  C12 UNL     1      10.728  16.226  13.245  1.00  0.00     0.034 A 
ENDBRANCH  15  17
ENDBRANCH   5  15
BRANCH  13  24
HETATM   24  O2  UNL     1      11.786  12.918  16.735  1.00  0.00    -0.385 OA
ATOM     25  H2  UNL     1      12.654  13.238  16.951  1.00  0.00     0.211 HD
ENDBRANCH  13  24
BRANCH   1  26
HETATM   26  C3  UNL     1       6.018  10.199  16.745  1.00  0.00     0.034 C 
BRANCH  26  27
HETATM   27  C2  UNL     1       5.747   9.102  15.718  1.00  0.00    -0.002 C 
HETATM   28  C1  UNL     1       5.400   7.844  16.464  1.00  0.00     0.005 C 
ENDBRANCH  26  27
ENDBRANCH   1  26
BRANCH  12  29
HETATM   29  C17 UNL     1      10.885  15.506  20.256  1.00  0.00     0.181 C 
HETATM   30 CL1  UNL     1       9.173  15.856  20.425  1.00  0.00    -0.120 Cl
ENDBRANCH  12  29
TORSDOF 6
ENDMDL
MODEL 3
REMARK VINA RESULT: -7.117668278      6.130      9.892
REMARK  6 active torsions:
REMARK  status: ('A' for Active; 'I' for Inactive)
REMARK    1  A    between atoms: C2_2  and  C3_3 
REMARK    2  A    between atoms: C3_3  and  C4_4 
REMARK    3  A    between atoms: N1_8  and  N2_10 
REMARK    4  A    between atoms: N2_10  and  C7_12 
REMARK    5  A    between atoms: S1_24  and  C17_25 
REMARK    6  A    between atoms: C18_27  and  O2_28 
ROOT
HETATM    1  C4  UNL     1       7.072  11.227  15.874  1.00  0.00     0.146 C 
HETATM    2  C5  UNL     1       6.811  12.294  14.836  1.00  0.00     0.209 C 
HETATM    3  O1  UNL     1       7.983  12.997  14.485  1.00  0.00    -0.335 OA
HETATM    4  C6  UNL     1       9.118  13.345  15.182  1.00  0.00     0.142 C 
HETATM    5  N1  UNL     1      10.028  13.906  14.466  1.00  0.00    -0.283 N 
ATOM      6  H1  UNL     1      10.899  14.195  14.909  1.00  0.00     0.188 HD
HETATM    7  C13 UNL     1       9.397  13.151  16.623  1.00  0.00     0.129 C 
HETATM    8  C14 UNL     1       9.012  11.779  17.015  1.00  0.00     0.139 C 
HETATM    9  C15 UNL     1       9.490  11.303  18.338  1.00  0.00     0.058 C 
HETATM   10  C16 UNL     1       9.388  12.342  19.393  1.00  0.00     0.115 C 
HETATM   11 BR1  UNL     1       9.649  11.748  21.166  1.00  0.00    -0.080 Br
HETATM   12  S1  UNL     1      11.072  13.550  18.886  1.00  0.00    -0.162 SA
HETATM   13  C18 UNL     1      10.819  13.533  16.951  1.00  0.00     0.186 C 
HETATM   14  O3  UNL     1       7.597  11.730  17.041  1.00  0.00    -0.377 OA
ENDROOT
BRANCH   5  15
HETATM   15  N2  UNL     1       9.855  14.129  13.104  1.00  0.00    -0.299 N 
ATOM     16  H2  UNL     1       9.125  13.639  12.586  1.00  0.00     0.187 HD
BRANCH  15  17
HETATM   17  C7  UNL     1      10.708  15.048  12.450  1.00  0.00     0.048 A 
HETATM   18  C8  UNL     1      10.948  16.273  13.017  1.00  0.00     0.034 A 
HETATM   19  C9  UNL     1      11.780  17.209  12.411  1.00  0.00     0.044 A 
HETATM   20  C10 UNL     1      12.379  16.907  11.215  1.00  0.00     0.116 A 
HETATM   21  F1  UNL     1      13.179  17.838  10.655  1.00  0.00    -0.206 F 
HETATM   22  C11 UNL     1      12.157  15.687  10.622  1.00  0.00     0.044 A 
HETATM   23  C12 UNL     1      11.318  14.764  11.251  1.00  0.00     0.034 A 
ENDBRANCH  15  17
ENDBRANCH   5  15
BRANCH  13  24
HETATM   24  O2  UNL     1      11.725  12.750  16.274  1.00  0.00    -0.385 OA
ATOM     25  H2  UNL     1      12.306  12.291  16.869  1.00  0.00     0.211 HD
ENDBRANCH  13  24
BRANCH   1  26
HETATM   26  C3  UNL     1       5.723  10.598  16.206  1.00  0.00     0.034 C 
BRANCH  26  27
HETATM   27  C2  UNL     1       5.926   9.191  16.763  1.00  0.00    -0.002 C 
HETATM   28  C1  UNL     1       6.061   8.247  15.601  1.00  0.00     0.005 C 
ENDBRANCH  26  27
ENDBRANCH   1  26
BRANCH  12  29
HETATM   29  C17 UNL     1      11.087  15.255  19.910  1.00  0.00     0.181 C 
HETATM   30 CL1  UNL     1       9.459  15.514  20.514  1.00  0.00    -0.120 Cl
ENDBRANCH  12  29
TORSDOF 6
ENDMDL
MODEL 4
REMARK VINA RESULT: -7.072897284      9.619     13.301
REMARK  6 active torsions:
REMARK  status: ('A' for Active; 'I' for Inactive)
REMARK    1  A    between atoms: C2_2  and  C3_3 
REMARK    2  A    between atoms: C3_3  and  C4_4 
REMARK    3  A    between atoms: N1_8  and  N2_10 
REMARK    4  A    between atoms: N2_10  and  C7_12 
REMARK    5  A    between atoms: S1_24  and  C17_25 
REMARK    6  A    between atoms: C18_27  and  O2_28 
ROOT
HETATM    1  C4  UNL     1       3.444   2.989  12.952  1.00  0.00     0.146 C 
HETATM    2  C5  UNL     1       4.913   3.163  13.256  1.00  0.00     0.209 C 
HETATM    3  O1  UNL     1       5.391   4.436  12.882  1.00  0.00    -0.335 OA
HETATM    4  C6  UNL     1       5.057   5.309  11.870  1.00  0.00     0.142 C 
HETATM    5  N1  UNL     1       5.663   6.442  11.927  1.00  0.00    -0.283 N 
ATOM      6  H1  UNL     1       5.470   7.143  11.213  1.00  0.00     0.188 HD
HETATM    7  C13 UNL     1       4.105   5.091  10.758  1.00  0.00     0.129 C 
HETATM    8  C14 UNL     1       2.861   4.494  11.289  1.00  0.00     0.139 C 
HETATM    9  C15 UNL     1       1.686   4.480  10.380  1.00  0.00     0.058 C 
HETATM   10  C16 UNL     1       2.044   4.124   8.984  1.00  0.00     0.115 C 
HETATM   11 BR1  UNL     1       0.597   3.752   7.830  1.00  0.00    -0.080 Br
HETATM   12  S1  UNL     1       2.896   5.971   8.339  1.00  0.00    -0.162 SA
HETATM   13  C18 UNL     1       3.915   6.356   9.959  1.00  0.00     0.186 C 
HETATM   14  O3  UNL     1       3.148   3.147  11.619  1.00  0.00    -0.377 OA
ENDROOT
BRANCH   5  15
HETATM   15  N2  UNL     1       6.574   6.736  12.937  1.00  0.00    -0.299 N 
ATOM     16  H2  UNL     1       7.458   6.232  13.000  1.00  0.00     0.187 HD
BRANCH  15  17
HETATM   17  C7  UNL     1       6.252   7.747  13.872  1.00  0.00     0.048 A 
HETATM   18  C8  UNL     1       6.194   7.443  15.207  1.00  0.00     0.034 A 
HETATM   19  C9  UNL     1       5.882   8.403  16.164  1.00  0.00     0.044 A 
HETATM   20  C10 UNL     1       5.624   9.691  15.769  1.00  0.00     0.116 A 
HETATM   21  F1  UNL     1       5.324  10.596  16.723  1.00  0.00    -0.206 F 
HETATM   22  C11 UNL     1       5.673  10.026  14.437  1.00  0.00     0.044 A 
HETATM   23  C12 UNL     1       5.990   9.043  13.496  1.00  0.00     0.034 A 
ENDBRANCH  15  17
ENDBRANCH   5  15
BRANCH  13  24
HETATM   24  O2  UNL     1       3.386   7.368  10.726  1.00  0.00    -0.385 OA
ATOM     25  H2  UNL     1       4.060   7.957  11.044  1.00  0.00     0.211 HD
ENDBRANCH  13  24
BRANCH   1  26
HETATM   26  C3  UNL     1       3.079   1.560  13.341  1.00  0.00     0.034 C 
BRANCH  26  27
HETATM   27  C2  UNL     1       2.195   1.567  14.586  1.00  0.00    -0.002 C 
HETATM   28  C1  UNL     1       0.925   2.298  14.249  1.00  0.00     0.005 C 
ENDBRANCH  26  27
ENDBRANCH   1  26
BRANCH  12  29
HETATM   29  C17 UNL     1       3.794   5.788   6.574  1.00  0.00     0.181 C 
HETATM   30 CL1  UNL     1       4.565   7.325   6.220  1.00  0.00    -0.120 Cl
ENDBRANCH  12  29
TORSDOF 6
ENDMDL
MODEL 5
REMARK VINA RESULT: -7.066377235      6.091      9.426
REMARK  6 active torsions:
REMARK  status: ('A' for Active; 'I' for Inactive)
REMARK    1  A    between atoms: C2_2  and  C3_3 
REMARK    2  A    between atoms: C3_3  and  C4_4 
REMARK    3  A    between atoms: N1_8  and  N2_10 
REMARK    4  A    between atoms: N2_10  and  C7_12 
REMARK    5  A    between atoms: S1_24  and  C17_25 
REMARK    6  A    between atoms: C18_27  and  O2_28 
ROOT
HETATM    1  C4  UNL     1       9.797  12.927  18.108  1.00  0.00     0.146 C 
HETATM    2  C5  UNL     1      11.012  13.344  17.314  1.00  0.00     0.209 C 
HETATM    3  O1  UNL     1      10.674  13.820  16.029  1.00  0.00    -0.335 OA
HETATM    4  C6  UNL     1       9.669  13.506  15.142  1.00  0.00     0.142 C 
HETATM    5  N1  UNL     1       9.636  14.252  14.094  1.00  0.00    -0.283 N 
ATOM      6  H1  UNL     1       8.921  14.083  13.388  1.00  0.00     0.188 HD
HETATM    7  C13 UNL     1       8.652  12.436  15.259  1.00  0.00     0.129 C 
HETATM    8  C14 UNL     1       8.083  12.450  16.624  1.00  0.00     0.139 C 
HETATM    9  C15 UNL     1       6.848  11.655  16.840  1.00  0.00     0.058 C 
HETATM   10  C16 UNL     1       6.885  10.338  16.156  1.00  0.00     0.115 C 
HETATM   11 BR1  UNL     1       5.525   9.120  16.633  1.00  0.00    -0.080 Br
HETATM   12  S1  UNL     1       6.495  10.953  14.150  1.00  0.00    -0.162 SA
HETATM   13  C18 UNL     1       7.641  12.533  14.145  1.00  0.00     0.186 C 
HETATM   14  O3  UNL     1       9.070  11.933  17.497  1.00  0.00    -0.377 OA
ENDROOT
BRANCH   5  15
HETATM   15  N2  UNL     1      10.551  15.282  13.898  1.00  0.00    -0.299 N 
ATOM     16  H2  UNL     1      10.826  15.885  14.673  1.00  0.00     0.187 HD
BRANCH  15  17
HETATM   17  C7  UNL     1      11.092  15.476  12.606  1.00  0.00     0.048 A 
HETATM   18  C8  UNL     1      11.863  16.581  12.353  1.00  0.00     0.034 A 
HETATM   19  C9  UNL     1      12.417  16.815  11.098  1.00  0.00     0.044 A 
HETATM   20  C10 UNL     1      12.189  15.922  10.082  1.00  0.00     0.116 A 
HETATM   21  F1  UNL     1      12.740  16.179   8.879  1.00  0.00    -0.206 F 
HETATM   22  C11 UNL     1      11.419  14.805  10.306  1.00  0.00     0.044 A 
HETATM   23  C12 UNL     1      10.875  14.593  11.575  1.00  0.00     0.034 A 
ENDBRANCH  15  17
ENDBRANCH   5  15
BRANCH  13  24
HETATM   24  O2  UNL     1       6.953  13.724  14.184  1.00  0.00    -0.385 OA
ATOM     25  H2  UNL     1       6.890  14.121  13.323  1.00  0.00     0.211 HD
ENDBRANCH  13  24
BRANCH   1  26
HETATM   26  C3  UNL     1      10.308  12.377  19.436  1.00  0.00     0.034 C 
BRANCH  26  27
HETATM   27  C2  UNL     1       9.587  11.074  19.773  1.00  0.00    -0.002 C 
HETATM   28  C1  UNL     1       9.702  10.849  21.255  1.00  0.00     0.005 C 
ENDBRANCH  26  27
ENDBRANCH   1  26
BRANCH  12  29
HETATM   29  C17 UNL     1       6.780   9.468  12.859  1.00  0.00     0.181 C 
HETATM   30 CL1  UNL     1       5.937   8.062  13.488  1.00  0.00    -0.120 Cl
ENDBRANCH  12  29
TORSDOF 6
ENDMDL
