MODEL 1
REMARK VINA RESULT: -6.835738451      0.000      0.000
REMARK  7 active torsions:
REMARK  status: ('A' for Active; 'I' for Inactive)
REMARK    1  A    between atoms: C3_3  and  S1_4 
REMARK    2  A    between atoms: S1_4  and  N1_7 
REMARK    3  A    between atoms: N1_7  and  C4_9 
REMARK    4  A    between atoms: C7_12  and  N2_13 
REMARK    5  A    between atoms: N2_13  and  C8_14 
REMARK    6  A    between atoms: C9_17  and  C10_18 
REMARK    7  A    between atoms: C10_18  and  N4_19 
ROOT
HETATM    1  C1  UNL     1      20.197  -5.509  -0.056  1.00  0.00     0.013 C 
HETATM    2  C2  UNL     1      19.792  -6.479  -0.662  1.00  0.00    -0.101 C 
HETATM    3  C3  UNL     1      19.288  -7.668  -1.384  1.00  0.00     0.255 C 
ENDROOT
BRANCH   3   4
HETATM    4  S1  UNL     1      17.644  -7.988  -0.725  1.00  0.00     0.237 S 
HETATM    5  O1  UNL     1      17.645  -7.528   0.707  1.00  0.00    -0.205 OA
HETATM    6  O2  UNL     1      17.319  -9.441  -0.766  1.00  0.00    -0.205 OA
BRANCH   4   7
HETATM    7  N1  UNL     1      16.569  -7.047  -1.719  1.00  0.00    -0.314 N 
ATOM      8  H1  UNL     1      16.746  -6.087  -2.014  1.00  0.00     0.172 HD
BRANCH   7   9
HETATM    9  C4  UNL     1      15.398  -7.806  -2.067  1.00  0.00     0.093 C 
HETATM   10  C5  UNL     1      14.258  -7.452  -1.196  1.00  0.00     0.029 C 
HETATM   11  C6  UNL     1      13.637  -6.122  -1.632  1.00  0.00     0.041 C 
HETATM   12  C7  UNL     1      13.113  -6.346  -3.054  1.00  0.00     0.165 C 
HETATM   13  C19 UNL     1      14.433  -6.379  -3.893  1.00  0.00     0.041 C 
HETATM   14  C20 UNL     1      15.081  -7.678  -3.554  1.00  0.00     0.029 C 
BRANCH  12  15
HETATM   15  N2  UNL     1      12.222  -5.455  -3.494  1.00  0.00    -0.424 NA
BRANCH  15  16
HETATM   16  C8  UNL     1      11.448  -4.573  -3.692  1.00  0.00     0.190 A 
HETATM   17  N3  UNL     1      11.523  -3.738  -4.780  1.00  0.00    -0.318 N 
HETATM   18  C9  UNL     1      10.701  -2.769  -5.079  1.00  0.00     0.113 A 
ATOM     19  H3  UNL     1      12.303  -3.891  -5.420  1.00  0.00     0.170 HD
HETATM   20  N5  UNL     1       9.673  -2.541  -4.258  1.00  0.00    -0.329 N 
HETATM   21  C15 UNL     1       9.501  -3.294  -3.163  1.00  0.00     0.124 A 
ATOM     22  H5  UNL     1       9.014  -1.790  -4.465  1.00  0.00     0.168 HD
HETATM   23  N6  UNL     1       8.467  -3.082  -2.322  1.00  0.00    -0.338 N 
HETATM   24  C18 UNL     1      10.363  -4.333  -2.829  1.00  0.00     0.081 A 
HETATM   25  C16 UNL     1       8.234  -3.798  -1.216  1.00  0.00     0.181 A 
ATOM     26  H6  UNL     1       7.821  -2.325  -2.544  1.00  0.00     0.168 HD
HETATM   27  N7  UNL     1       9.081  -4.796  -0.916  1.00  0.00    -0.361 N 
HETATM   28  C17 UNL     1      10.137  -5.074  -1.698  1.00  0.00     0.109 A 
ATOM     29  H7  UNL     1       8.920  -5.354  -0.078  1.00  0.00     0.166 HD
BRANCH  18  30
HETATM   30  C10 UNL     1      10.806  -1.887  -6.272  1.00  0.00     0.084 C 
HETATM   31  C12 UNL     1       9.540  -1.261  -6.781  1.00  0.00     0.039 C 
HETATM   32  C13 UNL     1      10.406  -0.036  -7.122  1.00  0.00     0.006 C 
HETATM   33  C14 UNL     1      11.255  -0.458  -5.915  1.00  0.00     0.039 C 
BRANCH  30  34
HETATM   34  N4  UNL     1      11.606  -2.360  -7.356  1.00  0.00    -0.411 N 
HETATM   35  C11 UNL     1      11.041  -3.393  -8.165  1.00  0.00     0.141 C 
ATOM     36  H4  UNL     1      12.533  -1.980  -7.544  1.00  0.00     0.153 HD
ENDBRANCH  30  34
ENDBRANCH  18  30
ENDBRANCH  15  16
ENDBRANCH  12  15
ENDBRANCH   7   9
ENDBRANCH   4   7
ENDBRANCH   3   4
TORSDOF 7
ENDMDL
MODEL 2
REMARK VINA RESULT: -6.773583059      1.256      3.913
REMARK  7 active torsions:
REMARK  status: ('A' for Active; 'I' for Inactive)
REMARK    1  A    between atoms: C3_3  and  S1_4 
REMARK    2  A    between atoms: S1_4  and  N1_7 
REMARK    3  A    between atoms: N1_7  and  C4_9 
REMARK    4  A    between atoms: C7_12  and  N2_13 
REMARK    5  A    between atoms: N2_13  and  C8_14 
REMARK    6  A    between atoms: C9_17  and  C10_18 
REMARK    7  A    between atoms: C10_18  and  N4_19 
ROOT
HETATM    1  C1  UNL     1      20.071  -5.462   0.063  1.00  0.00     0.013 C 
HETATM    2  C2  UNL     1      19.644  -6.409  -0.564  1.00  0.00    -0.101 C 
HETATM    3  C3  UNL     1      19.115  -7.571  -1.311  1.00  0.00     0.255 C 
ENDROOT
BRANCH   3   4
HETATM    4  S1  UNL     1      17.540  -7.979  -0.543  1.00  0.00     0.237 S 
HETATM    5  O1  UNL     1      17.677  -7.691   0.927  1.00  0.00    -0.205 OA
HETATM    6  O2  UNL     1      17.207  -9.420  -0.724  1.00  0.00    -0.205 OA
BRANCH   4   7
HETATM    7  N1  UNL     1      16.379  -6.937  -1.314  1.00  0.00    -0.314 N 
ATOM      8  H1  UNL     1      16.486  -5.928  -1.417  1.00  0.00     0.172 HD
BRANCH   7   9
HETATM    9  C4  UNL     1      15.248  -7.690  -1.784  1.00  0.00     0.093 C 
HETATM   10  C5  UNL     1      14.091  -7.534  -0.878  1.00  0.00     0.029 C 
HETATM   11  C6  UNL     1      13.403  -6.185  -1.106  1.00  0.00     0.041 C 
HETATM   12  C7  UNL     1      12.891  -6.211  -2.549  1.00  0.00     0.165 C 
HETATM   13  C19 UNL     1      14.211  -6.046  -3.373  1.00  0.00     0.041 C 
HETATM   14  C20 UNL     1      14.924  -7.348  -3.235  1.00  0.00     0.029 C 
BRANCH  12  15
HETATM   15  N2  UNL     1      11.956  -5.308  -2.852  1.00  0.00    -0.424 NA
BRANCH  15  16
HETATM   16  C8  UNL     1      10.986  -4.645  -3.043  1.00  0.00     0.190 A 
HETATM   17  N3  UNL     1       9.819  -4.800  -2.334  1.00  0.00    -0.318 N 
HETATM   18  C9  UNL     1       8.725  -4.099  -2.467  1.00  0.00     0.113 A 
ATOM     19  H3  UNL     1       9.807  -5.539  -1.631  1.00  0.00     0.170 HD
HETATM   20  N5  UNL     1       8.710  -3.127  -3.383  1.00  0.00    -0.329 N 
HETATM   21  C15 UNL     1       9.793  -2.888  -4.135  1.00  0.00     0.124 A 
ATOM     22  H5  UNL     1       7.869  -2.563  -3.510  1.00  0.00     0.168 HD
HETATM   23  N6  UNL     1       9.798  -1.909  -5.064  1.00  0.00    -0.338 N 
HETATM   24  C18 UNL     1      10.968  -3.620  -4.006  1.00  0.00     0.081 A 
HETATM   25  C16 UNL     1      10.844  -1.613  -5.844  1.00  0.00     0.181 A 
ATOM     26  H6  UNL     1       8.947  -1.357  -5.178  1.00  0.00     0.168 HD
HETATM   27  N7  UNL     1      11.967  -2.335  -5.699  1.00  0.00    -0.361 N 
HETATM   28  C17 UNL     1      12.046  -3.329  -4.800  1.00  0.00     0.109 A 
ATOM     29  H7  UNL     1      12.775  -2.124  -6.284  1.00  0.00     0.166 HD
BRANCH  18  30
HETATM   30  C10 UNL     1       7.481  -4.287  -1.676  1.00  0.00     0.084 C 
HETATM   31  C12 UNL     1       7.449  -3.706  -0.292  1.00  0.00     0.039 C 
HETATM   32  C13 UNL     1       5.964  -3.409  -0.563  1.00  0.00     0.006 C 
HETATM   33  C14 UNL     1       6.392  -3.256  -2.030  1.00  0.00     0.039 C 
BRANCH  30  34
HETATM   34  N4  UNL     1       6.898  -5.590  -1.689  1.00  0.00    -0.411 N 
HETATM   35  C11 UNL     1       6.501  -6.101  -2.962  1.00  0.00     0.141 C 
ATOM     36  H4  UNL     1       6.770  -6.128  -0.832  1.00  0.00     0.153 HD
ENDBRANCH  30  34
ENDBRANCH  18  30
ENDBRANCH  15  16
ENDBRANCH  12  15
ENDBRANCH   7   9
ENDBRANCH   4   7
ENDBRANCH   3   4
TORSDOF 7
ENDMDL
MODEL 3
REMARK VINA RESULT: -6.349681003      9.558     14.316
REMARK  7 active torsions:
REMARK  status: ('A' for Active; 'I' for Inactive)
REMARK    1  A    between atoms: C3_3  and  S1_4 
REMARK    2  A    between atoms: S1_4  and  N1_7 
REMARK    3  A    between atoms: N1_7  and  C4_9 
REMARK    4  A    between atoms: C7_12  and  N2_13 
REMARK    5  A    between atoms: N2_13  and  C8_14 
REMARK    6  A    between atoms: C9_17  and  C10_18 
REMARK    7  A    between atoms: C10_18  and  N4_19 
ROOT
HETATM    1  C1  UNL     1      20.154  -5.452   0.043  1.00  0.00     0.013 C 
HETATM    2  C2  UNL     1      20.834  -6.098  -0.725  1.00  0.00    -0.101 C 
HETATM    3  C3  UNL     1      21.656  -6.903  -1.656  1.00  0.00     0.255 C 
ENDROOT
BRANCH   3   4
HETATM    4  S1  UNL     1      20.639  -8.313  -2.122  1.00  0.00     0.237 S 
HETATM    5  O1  UNL     1      21.177  -8.834  -3.427  1.00  0.00    -0.205 OA
HETATM    6  O2  UNL     1      19.216  -7.915  -2.310  1.00  0.00    -0.205 OA
BRANCH   4   7
HETATM    7  N1  UNL     1      20.834  -9.457  -0.825  1.00  0.00    -0.314 N 
ATOM      8  H1  UNL     1      21.192  -9.226   0.102  1.00  0.00     0.172 HD
BRANCH   7   9
HETATM    9  C4  UNL     1      20.422 -10.772  -1.236  1.00  0.00     0.093 C 
HETATM   10  C5  UNL     1      21.389 -11.796  -0.788  1.00  0.00     0.029 C 
HETATM   11  C6  UNL     1      21.201 -12.103   0.700  1.00  0.00     0.041 C 
HETATM   12  C7  UNL     1      19.787 -12.675   0.837  1.00  0.00     0.165 C 
HETATM   13  C19 UNL     1      18.895 -11.404   0.653  1.00  0.00     0.041 C 
HETATM   14  C20 UNL     1      18.991 -11.064  -0.796  1.00  0.00     0.029 C 
BRANCH  12  15
HETATM   15  N2  UNL     1      19.537 -13.345   1.964  1.00  0.00    -0.424 NA
BRANCH  15  16
HETATM   16  C8  UNL     1      19.512 -14.015   2.948  1.00  0.00     0.190 A 
HETATM   17  N3  UNL     1      20.408 -15.028   3.189  1.00  0.00    -0.318 N 
HETATM   18  C9  UNL     1      20.461 -15.787   4.250  1.00  0.00     0.113 A 
ATOM     19  H3  UNL     1      21.103 -15.205   2.464  1.00  0.00     0.170 HD
HETATM   20  N5  UNL     1      19.561 -15.582   5.215  1.00  0.00    -0.329 N 
HETATM   21  C15 UNL     1      18.636 -14.621   5.086  1.00  0.00     0.124 A 
ATOM     22  H5  UNL     1      19.577 -16.160   6.056  1.00  0.00     0.168 HD
HETATM   23  N6  UNL     1      17.721 -14.396   6.051  1.00  0.00    -0.338 N 
HETATM   24  C18 UNL     1      18.566 -13.800   3.966  1.00  0.00     0.081 A 
HETATM   25  C16 UNL     1      16.775 -13.451   5.989  1.00  0.00     0.181 A 
ATOM     26  H6  UNL     1      17.751 -14.986   6.882  1.00  0.00     0.168 HD
HETATM   27  N7  UNL     1      16.727 -12.672   4.897  1.00  0.00    -0.361 N 
HETATM   28  C17 UNL     1      17.601 -12.829   3.889  1.00  0.00     0.109 A 
ATOM     29  H7  UNL     1      16.015 -11.945   4.832  1.00  0.00     0.166 HD
BRANCH  18  30
HETATM   30  C10 UNL     1      21.451 -16.871   4.485  1.00  0.00     0.084 C 
HETATM   31  C12 UNL     1      21.040 -17.997   5.389  1.00  0.00     0.039 C 
HETATM   32  C13 UNL     1      21.859 -18.907   4.457  1.00  0.00     0.006 C 
HETATM   33  C14 UNL     1      21.467 -17.915   3.352  1.00  0.00     0.039 C 
BRANCH  30  34
HETATM   34  N4  UNL     1      22.795 -16.472   4.756  1.00  0.00    -0.411 N 
HETATM   35  C11 UNL     1      23.524 -15.899   3.670  1.00  0.00     0.141 C 
ATOM     36  H4  UNL     1      23.213 -16.590   5.679  1.00  0.00     0.153 HD
ENDBRANCH  30  34
ENDBRANCH  18  30
ENDBRANCH  15  16
ENDBRANCH  12  15
ENDBRANCH   7   9
ENDBRANCH   4   7
ENDBRANCH   3   4
TORSDOF 7
ENDMDL
MODEL 4
REMARK VINA RESULT: -6.304770181      2.551      4.095
REMARK  7 active torsions:
REMARK  status: ('A' for Active; 'I' for Inactive)
REMARK    1  A    between atoms: C3_3  and  S1_4 
REMARK    2  A    between atoms: S1_4  and  N1_7 
REMARK    3  A    between atoms: N1_7  and  C4_9 
REMARK    4  A    between atoms: C7_12  and  N2_13 
REMARK    5  A    between atoms: N2_13  and  C8_14 
REMARK    6  A    between atoms: C9_17  and  C10_18 
REMARK    7  A    between atoms: C10_18  and  N4_19 
ROOT
HETATM    1  C1  UNL     1      20.305  -5.416   0.040  1.00  0.00     0.013 C 
HETATM    2  C2  UNL     1      21.047  -6.017  -0.709  1.00  0.00    -0.101 C 
HETATM    3  C3  UNL     1      21.949  -6.766  -1.611  1.00  0.00     0.255 C 
ENDROOT
BRANCH   3   4
HETATM    4  S1  UNL     1      21.296  -8.441  -1.685  1.00  0.00     0.237 S 
HETATM    5  O1  UNL     1      21.221  -8.950  -0.271  1.00  0.00    -0.205 OA
HETATM    6  O2  UNL     1      22.188  -9.335  -2.474  1.00  0.00    -0.205 OA
BRANCH   4   7
HETATM    7  N1  UNL     1      19.722  -8.280  -2.411  1.00  0.00    -0.314 N 
ATOM      8  H1  UNL     1      19.513  -7.686  -3.213  1.00  0.00     0.172 HD
BRANCH   7   9
HETATM    9  C4  UNL     1      18.756  -9.097  -1.727  1.00  0.00     0.093 C 
HETATM   10  C5  UNL     1      18.250  -8.419  -0.515  1.00  0.00     0.029 C 
HETATM   11  C6  UNL     1      17.219  -7.349  -0.884  1.00  0.00     0.041 C 
HETATM   12  C7  UNL     1      16.057  -8.094  -1.547  1.00  0.00     0.165 C 
HETATM   13  C19 UNL     1      16.653  -8.466  -2.944  1.00  0.00     0.041 C 
HETATM   14  C20 UNL     1      17.646  -9.545  -2.672  1.00  0.00     0.029 C 
BRANCH  12  15
HETATM   15  N2  UNL     1      14.903  -7.427  -1.619  1.00  0.00    -0.424 NA
BRANCH  15  16
HETATM   16  C8  UNL     1      13.794  -6.997  -1.575  1.00  0.00     0.190 A 
HETATM   17  N3  UNL     1      13.318  -6.055  -2.454  1.00  0.00    -0.318 N 
HETATM   18  C9  UNL     1      12.112  -5.554  -2.486  1.00  0.00     0.113 A 
ATOM     19  H3  UNL     1      13.975  -5.712  -3.156  1.00  0.00     0.170 HD
HETATM   20  N5  UNL     1      11.231  -5.982  -1.578  1.00  0.00    -0.329 N 
HETATM   21  C15 UNL     1      11.586  -6.898  -0.668  1.00  0.00     0.124 A 
ATOM     22  H5  UNL     1      10.281  -5.608  -1.578  1.00  0.00     0.168 HD
HETATM   23  N6  UNL     1      10.709  -7.344   0.255  1.00  0.00    -0.338 N 
HETATM   24  C18 UNL     1      12.863  -7.446  -0.620  1.00  0.00     0.081 A 
HETATM   25  C16 UNL     1      10.996  -8.260   1.188  1.00  0.00     0.181 A 
ATOM     26  H6  UNL     1       9.766  -6.958   0.242  1.00  0.00     0.168 HD
HETATM   27  N7  UNL     1      12.236  -8.774   1.213  1.00  0.00    -0.361 N 
HETATM   28  C17 UNL     1      13.171  -8.384   0.330  1.00  0.00     0.109 A 
ATOM     29  H7  UNL     1      12.473  -9.474   1.915  1.00  0.00     0.166 HD
BRANCH  18  30
HETATM   30  C10 UNL     1      11.626  -4.541  -3.460  1.00  0.00     0.084 C 
HETATM   31  C12 UNL     1      10.465  -3.686  -3.042  1.00  0.00     0.039 C 
HETATM   32  C13 UNL     1      11.150  -2.554  -3.829  1.00  0.00     0.006 C 
HETATM   33  C14 UNL     1      12.463  -3.248  -3.438  1.00  0.00     0.039 C 
BRANCH  30  34
HETATM   34  N4  UNL     1      11.477  -4.966  -4.815  1.00  0.00    -0.411 N 
HETATM   35  C11 UNL     1      10.578  -6.050  -5.049  1.00  0.00     0.141 C 
ATOM     36  H4  UNL     1      11.986  -4.518  -5.576  1.00  0.00     0.153 HD
ENDBRANCH  30  34
ENDBRANCH  18  30
ENDBRANCH  15  16
ENDBRANCH  12  15
ENDBRANCH   7   9
ENDBRANCH   4   7
ENDBRANCH   3   4
TORSDOF 7
ENDMDL
MODEL 5
REMARK VINA RESULT: -6.291440797      3.040      4.740
REMARK  7 active torsions:
REMARK  status: ('A' for Active; 'I' for Inactive)
REMARK    1  A    between atoms: C3_3  and  S1_4 
REMARK    2  A    between atoms: S1_4  and  N1_7 
REMARK    3  A    between atoms: N1_7  and  C4_9 
REMARK    4  A    between atoms: C7_12  and  N2_13 
REMARK    5  A    between atoms: N2_13  and  C8_14 
REMARK    6  A    between atoms: C9_17  and  C10_18 
REMARK    7  A    between atoms: C10_18  and  N4_19 
ROOT
HETATM    1  C1  UNL     1      16.550 -10.921   3.140  1.00  0.00     0.013 C 
HETATM    2  C2  UNL     1      17.040 -11.239   2.076  1.00  0.00    -0.101 C 
HETATM    3  C3  UNL     1      17.624 -11.615   0.770  1.00  0.00     0.255 C 
ENDROOT
BRANCH   3   4
HETATM    4  S1  UNL     1      17.498 -10.150  -0.269  1.00  0.00     0.237 S 
HETATM    5  O1  UNL     1      17.994 -10.534  -1.636  1.00  0.00    -0.205 OA
HETATM    6  O2  UNL     1      18.341  -9.040   0.257  1.00  0.00    -0.205 OA
BRANCH   4   7
HETATM    7  N1  UNL     1      15.806  -9.743  -0.271  1.00  0.00    -0.314 N 
ATOM      8  H1  UNL     1      15.056 -10.387  -0.522  1.00  0.00     0.172 HD
BRANCH   7   9
HETATM    9  C4  UNL     1      15.608  -8.376   0.128  1.00  0.00     0.093 C 
HETATM   10  C5  UNL     1      15.232  -7.534  -1.027  1.00  0.00     0.029 C 
HETATM   11  C6  UNL     1      13.758  -7.738  -1.388  1.00  0.00     0.041 C 
HETATM   12  C7  UNL     1      12.957  -7.276  -0.168  1.00  0.00     0.165 C 
HETATM   13  C19 UNL     1      13.204  -8.437   0.851  1.00  0.00     0.041 C 
HETATM   14  C20 UNL     1      14.621  -8.279   1.288  1.00  0.00     0.029 C 
BRANCH  12  15
HETATM   15  N2  UNL     1      11.664  -7.021  -0.383  1.00  0.00    -0.424 NA
BRANCH  15  16
HETATM   16  C8  UNL     1      10.555  -6.841  -0.777  1.00  0.00     0.190 A 
HETATM   17  N3  UNL     1      10.061  -5.597  -1.084  1.00  0.00    -0.318 N 
HETATM   18  C9  UNL     1       8.869  -5.321  -1.544  1.00  0.00     0.113 A 
ATOM     19  H3  UNL     1      10.689  -4.806  -0.938  1.00  0.00     0.170 HD
HETATM   20  N5  UNL     1       8.023  -6.335  -1.741  1.00  0.00    -0.329 N 
HETATM   21  C15 UNL     1       8.398  -7.593  -1.473  1.00  0.00     0.124 A 
ATOM     22  H5  UNL     1       7.085  -6.151  -2.099  1.00  0.00     0.168 HD
HETATM   23  N6  UNL     1       7.558  -8.631  -1.668  1.00  0.00    -0.338 N 
HETATM   24  C18 UNL     1       9.662  -7.907  -0.987  1.00  0.00     0.081 A 
HETATM   25  C16 UNL     1       7.869  -9.910  -1.427  1.00  0.00     0.181 A 
ATOM     26  H6  UNL     1       6.624  -8.427  -2.023  1.00  0.00     0.168 HD
HETATM   27  N7  UNL     1       9.097 -10.187  -0.958  1.00  0.00    -0.361 N 
HETATM   28  C17 UNL     1       9.994  -9.213  -0.734  1.00  0.00     0.109 A 
ATOM     29  H7  UNL     1       9.353 -11.155  -0.769  1.00  0.00     0.166 HD
BRANCH  18  30
HETATM   30  C10 UNL     1       8.367  -3.962  -1.875  1.00  0.00     0.084 C 
HETATM   31  C12 UNL     1       7.254  -3.863  -2.877  1.00  0.00     0.039 C 
HETATM   32  C13 UNL     1       6.736  -2.687  -2.031  1.00  0.00     0.006 C 
HETATM   33  C14 UNL     1       7.354  -3.435  -0.841  1.00  0.00     0.039 C 
BRANCH  30  34
HETATM   34  N4  UNL     1       9.347  -2.951  -2.111  1.00  0.00    -0.411 N 
HETATM   35  C11 UNL     1      10.126  -3.079  -3.301  1.00  0.00     0.141 C 
ATOM     36  H4  UNL     1       9.485  -2.176  -1.462  1.00  0.00     0.153 HD
ENDBRANCH  30  34
ENDBRANCH  18  30
ENDBRANCH  15  16
ENDBRANCH  12  15
ENDBRANCH   7   9
ENDBRANCH   4   7
ENDBRANCH   3   4
TORSDOF 7
ENDMDL
