MODEL 1
REMARK VINA RESULT: -5.901483433      0.000      0.000
REMARK  2 active torsions:
REMARK  status: ('A' for Active; 'I' for Inactive)
REMARK    1  A    between atoms: C5_10  and  C6_11 
REMARK       I    between atoms: C6_11  and  N5_13 
REMARK    2  A    between atoms: N5_13  and  N6_15 
ROOT
HETATM    1  C1  UNL     1     -14.302 -25.458 -24.868  1.00  0.00     0.178 C 
HETATM    2  N1  UNL     1     -13.531 -26.661 -25.174  1.00  0.00    -0.289 N 
HETATM    3  N2  UNL     1     -12.184 -26.720 -25.136  1.00  0.00    -0.287 N 
ATOM      4  H2  UNL     1     -11.573 -25.940 -24.893  1.00  0.00     0.188 HD
HETATM    5  C2  UNL     1     -11.768 -27.939 -25.460  1.00  0.00     0.155 A 
HETATM    6  C3  UNL     1     -10.395 -28.422 -25.539  1.00  0.00     0.121 C 
HETATM    7  N3  UNL     1      -9.314 -28.819 -25.596  1.00  0.00    -0.190 NA
HETATM    8  C4  UNL     1     -12.903 -28.665 -25.709  1.00  0.00     0.119 A 
HETATM    9  N4  UNL     1     -12.944 -30.030 -26.093  1.00  0.00    -0.097 NA
HETATM   10  C5  UNL     1     -14.031 -27.848 -25.526  1.00  0.00     0.147 A 
ENDROOT
BRANCH  10  11
HETATM   11  C6  UNL     1     -15.415 -28.285 -25.705  1.00  0.00     0.289 C 
HETATM   12  O1  UNL     1     -16.030 -27.760 -26.722  1.00  0.00    -0.264 OA
HETATM   13  N5  UNL     1     -16.128 -29.186 -24.915  1.00  0.00    -0.271 N 
ATOM     14  H5  UNL     1     -15.696 -29.629 -24.104  1.00  0.00     0.189 HD
BRANCH  13  15
HETATM   15  N6  UNL     1     -17.468 -29.468 -25.271  1.00  0.00    -0.342 N 
ATOM     16  H62 UNL     1     -18.173 -28.733 -25.224  1.00  0.00     0.176 HD
ATOM     17  H61 UNL     1     -17.695 -30.417 -25.570  1.00  0.00     0.176 HD
ENDBRANCH  13  15
ENDBRANCH  10  11
TORSDOF 2
ENDMDL
MODEL 2
REMARK VINA RESULT: -5.825770592      2.131      2.354
REMARK  2 active torsions:
REMARK  status: ('A' for Active; 'I' for Inactive)
REMARK    1  A    between atoms: C5_10  and  C6_11 
REMARK       I    between atoms: C6_11  and  N5_13 
REMARK    2  A    between atoms: N5_13  and  N6_15 
ROOT
HETATM    1  C1  UNL     1     -15.384 -25.055 -23.473  1.00  0.00     0.178 C 
HETATM    2  N1  UNL     1     -14.915 -26.070 -24.414  1.00  0.00    -0.289 N 
HETATM    3  N2  UNL     1     -13.816 -25.929 -25.183  1.00  0.00    -0.287 N 
ATOM      4  H2  UNL     1     -13.207 -25.110 -25.187  1.00  0.00     0.188 HD
HETATM    5  C2  UNL     1     -13.640 -27.010 -25.935  1.00  0.00     0.155 A 
HETATM    6  C3  UNL     1     -12.577 -27.263 -26.900  1.00  0.00     0.121 C 
HETATM    7  N3  UNL     1     -11.737 -27.479 -27.659  1.00  0.00    -0.190 NA
HETATM    8  C4  UNL     1     -14.672 -27.854 -25.619  1.00  0.00     0.119 A 
HETATM    9  N4  UNL     1     -14.891 -29.138 -26.182  1.00  0.00    -0.097 NA
HETATM   10  C5  UNL     1     -15.488 -27.254 -24.647  1.00  0.00     0.147 A 
ENDROOT
BRANCH  10  11
HETATM   11  C6  UNL     1     -16.685 -27.863 -24.070  1.00  0.00     0.289 C 
HETATM   12  O1  UNL     1     -16.860 -27.638 -22.802  1.00  0.00    -0.264 OA
HETATM   13  N5  UNL     1     -17.637 -28.644 -24.723  1.00  0.00    -0.271 N 
ATOM     14  H5  UNL     1     -17.551 -28.854 -25.718  1.00  0.00     0.189 HD
BRANCH  13  15
HETATM   15  N6  UNL     1     -18.726 -29.138 -23.967  1.00  0.00    -0.342 N 
ATOM     16  H62 UNL     1     -18.562 -29.801 -23.210  1.00  0.00     0.176 HD
ATOM     17  H61 UNL     1     -19.663 -28.811 -24.205  1.00  0.00     0.176 HD
ENDBRANCH  13  15
ENDBRANCH  10  11
TORSDOF 2
ENDMDL
MODEL 3
REMARK VINA RESULT: -5.683433221      2.472      3.432
REMARK  2 active torsions:
REMARK  status: ('A' for Active; 'I' for Inactive)
REMARK    1  A    between atoms: C5_10  and  C6_11 
REMARK       I    between atoms: C6_11  and  N5_13 
REMARK    2  A    between atoms: N5_13  and  N6_15 
ROOT
HETATM    1  C1  UNL     1     -17.091 -27.486 -25.969  1.00  0.00     0.178 C 
HETATM    2  N1  UNL     1     -15.649 -27.443 -26.197  1.00  0.00    -0.289 N 
HETATM    3  N2  UNL     1     -15.038 -28.027 -27.248  1.00  0.00    -0.287 N 
ATOM      4  H2  UNL     1     -15.514 -28.552 -27.982  1.00  0.00     0.188 HD
HETATM    5  C2  UNL     1     -13.727 -27.820 -27.190  1.00  0.00     0.155 A 
HETATM    6  C3  UNL     1     -12.708 -28.279 -28.126  1.00  0.00     0.121 C 
HETATM    7  N3  UNL     1     -11.895 -28.628 -28.865  1.00  0.00    -0.190 NA
HETATM    8  C4  UNL     1     -13.517 -27.079 -26.057  1.00  0.00     0.119 A 
HETATM    9  N4  UNL     1     -12.258 -26.621 -25.590  1.00  0.00    -0.097 NA
HETATM   10  C5  UNL     1     -14.746 -26.837 -25.421  1.00  0.00     0.147 A 
ENDROOT
BRANCH  10  11
HETATM   11  C6  UNL     1     -14.910 -26.077 -24.184  1.00  0.00     0.289 C 
HETATM   12  O1  UNL     1     -14.785 -24.789 -24.309  1.00  0.00    -0.264 OA
HETATM   13  N5  UNL     1     -15.179 -26.577 -22.911  1.00  0.00    -0.271 N 
ATOM     14  H5  UNL     1     -15.287 -27.579 -22.753  1.00  0.00     0.189 HD
BRANCH  13  15
HETATM   15  N6  UNL     1     -15.299 -25.656 -21.844  1.00  0.00    -0.342 N 
ATOM     16  H62 UNL     1     -14.584 -24.942 -21.705  1.00  0.00     0.176 HD
ATOM     17  H61 UNL     1     -16.111 -25.733 -21.232  1.00  0.00     0.176 HD
ENDBRANCH  13  15
ENDBRANCH  10  11
TORSDOF 2
ENDMDL
MODEL 4
REMARK VINA RESULT: -5.507679153      2.295      4.562
REMARK  2 active torsions:
REMARK  status: ('A' for Active; 'I' for Inactive)
REMARK    1  A    between atoms: C5_10  and  C6_11 
REMARK       I    between atoms: C6_11  and  N5_13 
REMARK    2  A    between atoms: N5_13  and  N6_15 
ROOT
HETATM    1  C1  UNL     1     -11.909 -26.821 -25.128  1.00  0.00     0.178 C 
HETATM    2  N1  UNL     1     -13.348 -26.909 -25.362  1.00  0.00    -0.289 N 
HETATM    3  N2  UNL     1     -14.268 -26.233 -24.643  1.00  0.00    -0.287 N 
ATOM      4  H2  UNL     1     -14.055 -25.600 -23.872  1.00  0.00     0.188 HD
HETATM    5  C2  UNL     1     -15.490 -26.511 -25.083  1.00  0.00     0.155 A 
HETATM    6  C3  UNL     1     -16.758 -25.994 -24.584  1.00  0.00     0.121 C 
HETATM    7  N3  UNL     1     -17.767 -25.584 -24.205  1.00  0.00    -0.190 NA
HETATM    8  C4  UNL     1     -15.321 -27.395 -26.116  1.00  0.00     0.119 A 
HETATM    9  N4  UNL     1     -16.361 -27.969 -26.891  1.00  0.00    -0.097 NA
HETATM   10  C5  UNL     1     -13.951 -27.650 -26.295  1.00  0.00     0.147 A 
ENDROOT
BRANCH  10  11
HETATM   11  C6  UNL     1     -13.395 -28.546 -27.308  1.00  0.00     0.289 C 
HETATM   12  O1  UNL     1     -13.571 -29.812 -27.077  1.00  0.00    -0.264 OA
HETATM   13  N5  UNL     1     -12.710 -28.191 -28.469  1.00  0.00    -0.271 N 
ATOM     14  H5  UNL     1     -12.542 -27.212 -28.701  1.00  0.00     0.189 HD
BRANCH  13  15
HETATM   15  N6  UNL     1     -12.254 -29.228 -29.317  1.00  0.00    -0.342 N 
ATOM     16  H62 UNL     1     -12.805 -29.501 -30.130  1.00  0.00     0.176 HD
ATOM     17  H61 UNL     1     -11.370 -29.682 -29.087  1.00  0.00     0.176 HD
ENDBRANCH  13  15
ENDBRANCH  10  11
TORSDOF 2
ENDMDL
MODEL 5
REMARK VINA RESULT: -5.458024007      1.847      2.015
REMARK  2 active torsions:
REMARK  status: ('A' for Active; 'I' for Inactive)
REMARK    1  A    between atoms: C5_10  and  C6_11 
REMARK       I    between atoms: C6_11  and  N5_13 
REMARK    2  A    between atoms: N5_13  and  N6_15 
ROOT
HETATM    1  C1  UNL     1     -14.533 -24.733 -24.417  1.00  0.00     0.178 C 
HETATM    2  N1  UNL     1     -14.230 -26.098 -24.840  1.00  0.00    -0.289 N 
HETATM    3  N2  UNL     1     -13.034 -26.485 -25.328  1.00  0.00    -0.287 N 
ATOM      4  H2  UNL     1     -12.228 -25.872 -25.451  1.00  0.00     0.188 HD
HETATM    5  C2  UNL     1     -13.056 -27.780 -25.625  1.00  0.00     0.155 A 
HETATM    6  C3  UNL     1     -11.974 -28.588 -26.174  1.00  0.00     0.121 C 
HETATM    7  N3  UNL     1     -11.124 -29.241 -26.599  1.00  0.00    -0.190 NA
HETATM    8  C4  UNL     1     -14.317 -28.212 -25.309  1.00  0.00     0.119 A 
HETATM    9  N4  UNL     1     -14.799 -29.538 -25.463  1.00  0.00    -0.097 NA
HETATM   10  C5  UNL     1     -15.069 -27.137 -24.807  1.00  0.00     0.147 A 
ENDROOT
BRANCH  10  11
HETATM   11  C6  UNL     1     -16.460 -27.226 -24.367  1.00  0.00     0.289 C 
HETATM   12  O1  UNL     1     -16.624 -27.611 -23.137  1.00  0.00    -0.264 OA
HETATM   13  N5  UNL     1     -17.605 -26.947 -25.113  1.00  0.00    -0.271 N 
ATOM     14  H5  UNL     1     -17.537 -26.641 -26.084  1.00  0.00     0.189 HD
BRANCH  13  15
HETATM   15  N6  UNL     1     -18.863 -27.100 -24.485  1.00  0.00    -0.342 N 
ATOM     16  H62 UNL     1     -18.958 -27.717 -23.678  1.00  0.00     0.176 HD
ATOM     17  H61 UNL     1     -19.655 -26.580 -24.863  1.00  0.00     0.176 HD
ENDBRANCH  13  15
ENDBRANCH  10  11
TORSDOF 2
ENDMDL
