MODEL 1
REMARK VINA RESULT: -5.415809490      0.000      0.000
REMARK  3 active torsions:
REMARK  status: ('A' for Active; 'I' for Inactive)
REMARK    1  A    between atoms: C2_2  and  C3_3 
REMARK    2  A    between atoms: C3_3  and  C4_4 
REMARK    3  A    between atoms: C8_9  and  N2_10 
ROOT
HETATM    1  C4  UNL     1      -5.635   4.662  14.921  1.00  0.00     0.015 C 
HETATM    2  C5  UNL     1      -6.355   5.578  13.997  1.00  0.00     0.019 C 
HETATM    3  C6  UNL     1      -5.718   3.228  14.419  1.00  0.00     0.043 C 
HETATM    4  C7  UNL     1      -4.589   3.233  13.407  1.00  0.00     0.279 C 
HETATM    5  N1  UNL     1      -3.529   3.735  14.251  1.00  0.00     0.152 N 
HETATM    6  C8  UNL     1      -2.404   4.235  13.516  1.00  0.00     0.445 C 
HETATM    7  C9  UNL     1      -2.853   5.525  12.900  1.00  0.00     0.300 C 
HETATM    8  N3  UNL     1      -3.890   5.976  13.786  1.00  0.00    -0.039 N 
ATOM      9  H31 UNL     1      -4.735   6.256  13.289  1.00  0.00     0.279 HD
ATOM     10  H32 UNL     1      -3.674   6.877  14.213  1.00  0.00     0.279 HD
HETATM   11  C10 UNL     1      -4.135   4.951  14.756  1.00  0.00     0.430 C 
ENDROOT
BRANCH   1  12
HETATM   12  C3  UNL     1      -5.997   4.808  16.340  1.00  0.00     0.013 C 
BRANCH  12  13
HETATM   13  C2  UNL     1      -6.771   3.767  17.024  1.00  0.00    -0.004 C 
HETATM   14  C1  UNL     1      -6.085   2.998  18.117  1.00  0.00     0.005 C 
ENDBRANCH  12  13
ENDBRANCH   1  12
BRANCH   6  15
HETATM   15  N2  UNL     1      -1.885   3.339  12.536  1.00  0.00    -0.046 N 
ATOM     16  H23 UNL     1      -1.243   3.830  11.913  1.00  0.00     0.277 HD
ATOM     17  H22 UNL     1      -1.240   2.677  12.969  1.00  0.00     0.277 HD
ATOM     18  H21 UNL     1      -2.591   2.842  11.995  1.00  0.00     0.277 HD
ENDBRANCH   6  15
TORSDOF 3
ENDMDL
MODEL 2
REMARK VINA RESULT: -5.200654816      1.687      2.824
REMARK  3 active torsions:
REMARK  status: ('A' for Active; 'I' for Inactive)
REMARK    1  A    between atoms: C2_2  and  C3_3 
REMARK    2  A    between atoms: C3_3  and  C4_4 
REMARK    3  A    between atoms: C8_9  and  N2_10 
ROOT
HETATM    1  C4  UNL     1      -4.698   3.510  14.584  1.00  0.00     0.015 C 
HETATM    2  C5  UNL     1      -4.103   2.510  15.511  1.00  0.00     0.019 C 
HETATM    3  C6  UNL     1      -3.667   4.562  14.203  1.00  0.00     0.043 C 
HETATM    4  C7  UNL     1      -2.941   3.835  13.088  1.00  0.00     0.279 C 
HETATM    5  N1  UNL     1      -4.078   3.481  12.269  1.00  0.00     0.152 N 
HETATM    6  C8  UNL     1      -3.795   2.443  11.321  1.00  0.00     0.445 C 
HETATM    7  C9  UNL     1      -3.670   1.180  12.118  1.00  0.00     0.300 C 
HETATM    8  N3  UNL     1      -4.477   1.434  13.278  1.00  0.00    -0.039 N 
ATOM      9  H31 UNL     1      -3.997   1.201  14.147  1.00  0.00     0.279 HD
ATOM     10  H32 UNL     1      -5.253   0.778  13.367  1.00  0.00     0.279 HD
HETATM   11  C10 UNL     1      -4.912   2.798  13.238  1.00  0.00     0.430 C 
ENDROOT
BRANCH   1  12
HETATM   12  C3  UNL     1      -5.979   4.079  15.032  1.00  0.00     0.013 C 
BRANCH  12  13
HETATM   13  C2  UNL     1      -6.043   4.921  16.232  1.00  0.00    -0.004 C 
HETATM   14  C1  UNL     1      -6.592   4.301  17.486  1.00  0.00     0.005 C 
ENDBRANCH  12  13
ENDBRANCH   1  12
BRANCH   6  15
HETATM   15  N2  UNL     1      -2.643   2.669  10.513  1.00  0.00    -0.046 N 
ATOM     16  H23 UNL     1      -2.714   3.571  10.041  1.00  0.00     0.277 HD
ATOM     17  H22 UNL     1      -1.827   2.841  11.100  1.00  0.00     0.277 HD
ATOM     18  H21 UNL     1      -2.444   1.932   9.837  1.00  0.00     0.277 HD
ENDBRANCH   6  15
TORSDOF 3
ENDMDL
MODEL 3
REMARK VINA RESULT: -5.157572496      1.919      2.956
REMARK  3 active torsions:
REMARK  status: ('A' for Active; 'I' for Inactive)
REMARK    1  A    between atoms: C2_2  and  C3_3 
REMARK    2  A    between atoms: C3_3  and  C4_4 
REMARK    3  A    between atoms: C8_9  and  N2_10 
ROOT
HETATM    1  C4  UNL     1      -4.887   3.035  15.175  1.00  0.00     0.015 C 
HETATM    2  C5  UNL     1      -3.949   2.147  15.913  1.00  0.00     0.019 C 
HETATM    3  C6  UNL     1      -4.173   4.297  14.714  1.00  0.00     0.043 C 
HETATM    4  C7  UNL     1      -3.521   3.787  13.444  1.00  0.00     0.279 C 
HETATM    5  N1  UNL     1      -4.688   3.234  12.795  1.00  0.00     0.152 N 
HETATM    6  C8  UNL     1      -4.371   2.320  11.737  1.00  0.00     0.445 C 
HETATM    7  C9  UNL     1      -3.855   1.080  12.403  1.00  0.00     0.300 C 
HETATM    8  N3  UNL     1      -4.482   1.109  13.695  1.00  0.00    -0.039 N 
ATOM      9  H31 UNL     1      -3.820   0.947  14.454  1.00  0.00     0.279 HD
ATOM     10  H32 UNL     1      -5.081   0.300  13.857  1.00  0.00     0.279 HD
HETATM   11  C10 UNL     1      -5.184   2.350  13.831  1.00  0.00     0.430 C 
ENDROOT
BRANCH   1  12
HETATM   12  C3  UNL     1      -6.158   3.299  15.867  1.00  0.00     0.013 C 
BRANCH  12  13
HETATM   13  C2  UNL     1      -6.520   2.550  17.075  1.00  0.00    -0.004 C 
HETATM   14  C1  UNL     1      -7.306   1.283  16.896  1.00  0.00     0.005 C 
ENDBRANCH  12  13
ENDBRANCH   1  12
BRANCH   6  15
HETATM   15  N2  UNL     1      -3.448   2.819  10.772  1.00  0.00    -0.046 N 
ATOM     16  H23 UNL     1      -3.765   3.719  10.411  1.00  0.00     0.277 HD
ATOM     17  H22 UNL     1      -2.582   3.107  11.227  1.00  0.00     0.277 HD
ATOM     18  H21 UNL     1      -3.247   2.181  10.002  1.00  0.00     0.277 HD
ENDBRANCH   6  15
TORSDOF 3
ENDMDL
MODEL 4
REMARK VINA RESULT: -5.123011386      2.027      4.097
REMARK  3 active torsions:
REMARK  status: ('A' for Active; 'I' for Inactive)
REMARK    1  A    between atoms: C2_2  and  C3_3 
REMARK    2  A    between atoms: C3_3  and  C4_4 
REMARK    3  A    between atoms: C8_9  and  N2_10 
ROOT
HETATM    1  C4  UNL     1      -5.538   4.964  14.747  1.00  0.00     0.015 C 
HETATM    2  C5  UNL     1      -5.402   5.757  15.998  1.00  0.00     0.019 C 
HETATM    3  C6  UNL     1      -4.170   4.543  14.234  1.00  0.00     0.043 C 
HETATM    4  C7  UNL     1      -3.930   3.313  15.088  1.00  0.00     0.279 C 
HETATM    5  N1  UNL     1      -5.155   2.599  14.808  1.00  0.00     0.152 N 
HETATM    6  C8  UNL     1      -5.440   1.563  15.757  1.00  0.00     0.445 C 
HETATM    7  C9  UNL     1      -5.850   2.260  17.019  1.00  0.00     0.300 C 
HETATM    8  N3  UNL     1      -6.373   3.514  16.553  1.00  0.00    -0.039 N 
ATOM      9  H31 UNL     1      -5.996   4.311  17.066  1.00  0.00     0.279 HD
ATOM     10  H32 UNL     1      -7.355   3.644  16.798  1.00  0.00     0.279 HD
HETATM   11  C10 UNL     1      -6.142   3.607  15.143  1.00  0.00     0.430 C 
ENDROOT
BRANCH   1  12
HETATM   12  C3  UNL     1      -6.387   5.582  13.715  1.00  0.00     0.013 C 
BRANCH  12  13
HETATM   13  C2  UNL     1      -5.799   6.437  12.679  1.00  0.00    -0.004 C 
HETATM   14  C1  UNL     1      -6.727   7.340  11.916  1.00  0.00     0.005 C 
ENDBRANCH  12  13
ENDBRANCH   1  12
BRANCH   6  15
HETATM   15  N2  UNL     1      -4.368   0.652  15.988  1.00  0.00    -0.046 N 
ATOM     16  H23 UNL     1      -3.824   0.944  16.800  1.00  0.00     0.277 HD
ATOM     17  H22 UNL     1      -4.729  -0.239  16.327  1.00  0.00     0.277 HD
ATOM     18  H21 UNL     1      -3.755   0.502  15.187  1.00  0.00     0.277 HD
ENDBRANCH   6  15
TORSDOF 3
ENDMDL
MODEL 5
REMARK VINA RESULT: -5.101157640      2.283      4.200
REMARK  3 active torsions:
REMARK  status: ('A' for Active; 'I' for Inactive)
REMARK    1  A    between atoms: C2_2  and  C3_3 
REMARK    2  A    between atoms: C3_3  and  C4_4 
REMARK    3  A    between atoms: C8_9  and  N2_10 
ROOT
HETATM    1  C4  UNL     1      -5.427   4.182  15.261  1.00  0.00     0.015 C 
HETATM    2  C5  UNL     1      -6.090   3.881  13.964  1.00  0.00     0.019 C 
HETATM    3  C6  UNL     1      -6.445   4.183  16.391  1.00  0.00     0.043 C 
HETATM    4  C7  UNL     1      -6.526   2.697  16.680  1.00  0.00     0.279 C 
HETATM    5  N1  UNL     1      -5.118   2.423  16.859  1.00  0.00     0.152 N 
HETATM    6  C8  UNL     1      -4.792   1.030  16.764  1.00  0.00     0.445 C 
HETATM    7  C9  UNL     1      -4.925   0.673  15.314  1.00  0.00     0.300 C 
HETATM    8  N3  UNL     1      -4.685   1.918  14.640  1.00  0.00    -0.039 N 
ATOM      9  H31 UNL     1      -5.390   2.122  13.931  1.00  0.00     0.279 HD
ATOM     10  H32 UNL     1      -3.874   1.879  14.022  1.00  0.00     0.279 HD
HETATM   11  C10 UNL     1      -4.577   2.954  15.623  1.00  0.00     0.430 C 
ENDROOT
BRANCH   1  12
HETATM   12  C3  UNL     1      -4.563   5.374  15.249  1.00  0.00     0.013 C 
BRANCH  12  13
HETATM   13  C2  UNL     1      -3.968   5.851  13.996  1.00  0.00    -0.004 C 
HETATM   14  C1  UNL     1      -2.588   5.365  13.653  1.00  0.00     0.005 C 
ENDBRANCH  12  13
ENDBRANCH   1  12
BRANCH   6  15
HETATM   15  N2  UNL     1      -5.580   0.174  17.588  1.00  0.00    -0.046 N 
ATOM     16  H23 UNL     1      -5.351   0.323  18.572  1.00  0.00     0.277 HD
ATOM     17  H22 UNL     1      -6.553   0.479  17.585  1.00  0.00     0.277 HD
ATOM     18  H21 UNL     1      -5.519  -0.817  17.357  1.00  0.00     0.277 HD
ENDBRANCH   6  15
TORSDOF 3
ENDMDL
