MODEL 1
REMARK VINA RESULT: -6.199412069      0.000      0.000
REMARK  13 active torsions:
REMARK  status: ('A' for Active; 'I' for Inactive)
REMARK    1  A    between atoms: C2_2  and  N1_3 
REMARK    2  A    between atoms: N1_3  and  C4_5 
REMARK    3  A    between atoms: N2_7  and  C5_9 
REMARK    4  A    between atoms: C5_9  and  N3_10 
REMARK    5  A    between atoms: C5_9  and  C12_23 
REMARK    6  A    between atoms: N3_10  and  C6_11 
REMARK    7  A    between atoms: C6_11  and  O1_12 
REMARK    8  A    between atoms: C6_11  and  O2_14 
REMARK    9  A    between atoms: O2_14  and  C7_15 
REMARK   10  A    between atoms: C7_15  and  C8_16 
REMARK       I    between atoms: C12_23  and  N5_25 
REMARK   11  A    between atoms: N5_25  and  C13_27 
REMARK   12  A    between atoms: C13_27  and  C14_28 
REMARK   13  A    between atoms: C14_28  and  N6_29 
ROOT
HETATM    1  C5  UNL     1      -4.535  27.932  -0.846  1.00  0.00     0.254 C 
ENDROOT
BRANCH   1   2
HETATM    2  N2  UNL     1      -5.631  27.683  -0.018  1.00  0.00    -0.306 N 
HETATM    3  C4  UNL     1      -6.966  27.416   0.085  1.00  0.00     0.155 C 
HETATM    4  S1  UNL     1      -7.505  27.223   1.755  1.00  0.00    -0.013 SA
ATOM      5  H2  UNL     1      -5.275  27.714   0.937  1.00  0.00     0.170 HD
BRANCH   3   6
HETATM    6  N1  UNL     1      -8.047  27.226  -0.759  1.00  0.00    -0.366 N 
HETATM    7  C3  UNL     1      -9.378  27.822  -0.412  1.00  0.00     0.151 C 
BRANCH   6   8
HETATM    8  C2  UNL     1      -8.016  26.496  -2.013  1.00  0.00     0.120 C 
HETATM    9  C1  UNL     1      -7.445  25.087  -1.723  1.00  0.00     0.026 C 
ENDBRANCH   6   8
ENDBRANCH   3   6
ENDBRANCH   1   2
BRANCH   1  10
HETATM   10  N3  UNL     1      -3.922  28.959  -0.748  1.00  0.00    -0.335 NA
BRANCH  10  11
HETATM   11  C6  UNL     1      -3.259  30.070  -0.676  1.00  0.00     0.343 C 
BRANCH  11  12
HETATM   12  O1  UNL     1      -1.997  30.231  -1.025  1.00  0.00    -0.315 OA
ATOM     13  H1  UNL     1      -1.657  30.950  -1.545  1.00  0.00     0.222 HD
ENDBRANCH  11  12
BRANCH  11  14
HETATM   14  O2  UNL     1      -3.774  31.319  -0.198  1.00  0.00    -0.303 OA
BRANCH  14  15
HETATM   15  C7  UNL     1      -4.759  31.241   0.853  1.00  0.00     0.213 C 
BRANCH  15  16
HETATM   16  C8  UNL     1      -6.020  31.896   0.466  1.00  0.00     0.210 C 
HETATM   17  C9  UNL     1      -6.574  32.753   1.585  1.00  0.00     0.037 C 
HETATM   18  C10 UNL     1      -8.066  32.620   1.415  1.00  0.00     0.029 C 
HETATM   19  C11 UNL     1      -8.126  31.119   1.047  1.00  0.00     0.233 C 
HETATM   20  N4  UNL     1      -7.071  30.970   0.100  1.00  0.00    -0.069 N 
ATOM     21  H42 UNL     1      -7.383  31.086  -0.864  1.00  0.00     0.277 HD
ATOM     22  H41 UNL     1      -6.742  30.008   0.020  1.00  0.00     0.277 HD
ENDBRANCH  15  16
ENDBRANCH  14  15
ENDBRANCH  11  14
ENDBRANCH  10  11
ENDBRANCH   1  10
BRANCH   1  23
HETATM   23  C12 UNL     1      -4.024  26.891  -1.806  1.00  0.00     0.303 C 
HETATM   24  O3  UNL     1      -3.230  26.011  -1.466  1.00  0.00    -0.263 OA
HETATM   25  N5  UNL     1      -4.481  26.946  -3.146  1.00  0.00    -0.332 N 
ATOM     26  H5  UNL     1      -5.141  27.700  -3.334  1.00  0.00     0.168 HD
BRANCH  25  27
HETATM   27  C13 UNL     1      -4.185  26.144  -4.264  1.00  0.00     0.084 C 
BRANCH  27  28
HETATM   28  C14 UNL     1      -4.880  26.459  -5.550  1.00  0.00     0.166 C 
BRANCH  28  29
HETATM   29  N6  UNL     1      -6.281  26.701  -5.351  1.00  0.00    -0.389 N 
HETATM   30  C15 UNL     1      -6.819  27.928  -5.750  1.00  0.00     0.058 C 
HETATM   31  C16 UNL     1      -8.318  27.742  -5.562  1.00  0.00     0.046 C 
HETATM   32  C17 UNL     1      -8.488  26.306  -6.067  1.00  0.00     0.025 C 
HETATM   33  C18 UNL     1      -7.194  25.660  -5.561  1.00  0.00     0.122 C 
ENDBRANCH  28  29
ENDBRANCH  27  28
ENDBRANCH  25  27
ENDBRANCH   1  23
TORSDOF 13
ENDMDL
MODEL 2
REMARK VINA RESULT: -5.929926282      1.971      5.404
REMARK  13 active torsions:
REMARK  status: ('A' for Active; 'I' for Inactive)
REMARK    1  A    between atoms: C2_2  and  N1_3 
REMARK    2  A    between atoms: N1_3  and  C4_5 
REMARK    3  A    between atoms: N2_7  and  C5_9 
REMARK    4  A    between atoms: C5_9  and  N3_10 
REMARK    5  A    between atoms: C5_9  and  C12_23 
REMARK    6  A    between atoms: N3_10  and  C6_11 
REMARK    7  A    between atoms: C6_11  and  O1_12 
REMARK    8  A    between atoms: C6_11  and  O2_14 
REMARK    9  A    between atoms: O2_14  and  C7_15 
REMARK   10  A    between atoms: C7_15  and  C8_16 
REMARK       I    between atoms: C12_23  and  N5_25 
REMARK   11  A    between atoms: N5_25  and  C13_27 
REMARK   12  A    between atoms: C13_27  and  C14_28 
REMARK   13  A    between atoms: C14_28  and  N6_29 
ROOT
HETATM    1  C5  UNL     1      -7.044  28.154  -0.516  1.00  0.00     0.254 C 
ENDROOT
BRANCH   1   2
HETATM    2  N2  UNL     1      -7.559  29.284   0.122  1.00  0.00    -0.306 N 
HETATM    3  C4  UNL     1      -7.355  30.563   0.556  1.00  0.00     0.155 C 
HETATM    4  S1  UNL     1      -8.775  31.264   1.333  1.00  0.00    -0.013 SA
ATOM      5  H2  UNL     1      -8.518  29.049   0.381  1.00  0.00     0.170 HD
BRANCH   3   6
HETATM    6  N1  UNL     1      -6.339  31.504   0.544  1.00  0.00    -0.366 N 
HETATM    7  C3  UNL     1      -6.529  32.795  -0.195  1.00  0.00     0.151 C 
BRANCH   6   8
HETATM    8  C2  UNL     1      -5.063  31.374   1.223  1.00  0.00     0.120 C 
HETATM    9  C1  UNL     1      -5.253  31.868   2.677  1.00  0.00     0.026 C 
ENDBRANCH   6   8
ENDBRANCH   3   6
ENDBRANCH   1   2
BRANCH   1  10
HETATM   10  N3  UNL     1      -5.861  28.038  -0.680  1.00  0.00    -0.335 NA
BRANCH  10  11
HETATM   11  C6  UNL     1      -4.587  27.879  -0.855  1.00  0.00     0.343 C 
BRANCH  11  12
HETATM   12  O1  UNL     1      -3.665  28.797  -0.640  1.00  0.00    -0.315 OA
ATOM     13  H1  UNL     1      -3.297  29.021   0.207  1.00  0.00     0.222 HD
ENDBRANCH  11  12
BRANCH  11  14
HETATM   14  O2  UNL     1      -3.953  26.681  -1.318  1.00  0.00    -0.303 OA
BRANCH  14  15
HETATM   15  C7  UNL     1      -4.672  25.924  -2.315  1.00  0.00     0.213 C 
BRANCH  15  16
HETATM   16  C8  UNL     1      -4.618  26.575  -3.635  1.00  0.00     0.210 C 
HETATM   17  C9  UNL     1      -6.000  26.913  -4.152  1.00  0.00     0.037 C 
HETATM   18  C10 UNL     1      -5.864  26.735  -5.642  1.00  0.00     0.029 C 
HETATM   19  C11 UNL     1      -4.968  25.474  -5.646  1.00  0.00     0.233 C 
HETATM   20  N4  UNL     1      -3.984  25.768  -4.657  1.00  0.00    -0.069 N 
ATOM     21  H42 UNL     1      -3.148  26.205  -5.046  1.00  0.00     0.277 HD
ATOM     22  H41 UNL     1      -3.536  24.932  -4.282  1.00  0.00     0.277 HD
ENDBRANCH  15  16
ENDBRANCH  14  15
ENDBRANCH  11  14
ENDBRANCH  10  11
ENDBRANCH   1  10
BRANCH   1  23
HETATM   23  C12 UNL     1      -7.932  27.009  -0.923  1.00  0.00     0.303 C 
HETATM   24  O3  UNL     1      -7.789  25.870  -0.472  1.00  0.00    -0.263 OA
HETATM   25  N5  UNL     1      -8.960  27.269  -1.862  1.00  0.00    -0.332 N 
ATOM     26  H5  UNL     1      -9.008  28.240  -2.172  1.00  0.00     0.168 HD
BRANCH  25  27
HETATM   27  C13 UNL     1      -9.926  26.427  -2.443  1.00  0.00     0.084 C 
BRANCH  27  28
HETATM   28  C14 UNL     1     -10.635  26.919  -3.664  1.00  0.00     0.166 C 
BRANCH  28  29
HETATM   29  N6  UNL     1      -9.845  26.733  -4.848  1.00  0.00    -0.389 N 
HETATM   30  C15 UNL     1     -10.152  25.674  -5.707  1.00  0.00     0.058 C 
HETATM   31  C16 UNL     1      -9.251  25.912  -6.909  1.00  0.00     0.046 C 
HETATM   32  C17 UNL     1      -9.355  27.435  -7.040  1.00  0.00     0.025 C 
HETATM   33  C18 UNL     1      -9.414  27.854  -5.568  1.00  0.00     0.122 C 
ENDBRANCH  28  29
ENDBRANCH  27  28
ENDBRANCH  25  27
ENDBRANCH   1  23
TORSDOF 13
ENDMDL
MODEL 3
REMARK VINA RESULT: -5.818754363      2.465      3.560
REMARK  13 active torsions:
REMARK  status: ('A' for Active; 'I' for Inactive)
REMARK    1  A    between atoms: C2_2  and  N1_3 
REMARK    2  A    between atoms: N1_3  and  C4_5 
REMARK    3  A    between atoms: N2_7  and  C5_9 
REMARK    4  A    between atoms: C5_9  and  N3_10 
REMARK    5  A    between atoms: C5_9  and  C12_23 
REMARK    6  A    between atoms: N3_10  and  C6_11 
REMARK    7  A    between atoms: C6_11  and  O1_12 
REMARK    8  A    between atoms: C6_11  and  O2_14 
REMARK    9  A    between atoms: O2_14  and  C7_15 
REMARK   10  A    between atoms: C7_15  and  C8_16 
REMARK       I    between atoms: C12_23  and  N5_25 
REMARK   11  A    between atoms: N5_25  and  C13_27 
REMARK   12  A    between atoms: C13_27  and  C14_28 
REMARK   13  A    between atoms: C14_28  and  N6_29 
ROOT
HETATM    1  C5  UNL     1      -6.756  29.560   0.121  1.00  0.00     0.254 C 
ENDROOT
BRANCH   1   2
HETATM    2  N2  UNL     1      -8.113  29.801   0.344  1.00  0.00    -0.306 N 
HETATM    3  C4  UNL     1      -9.225  29.550   1.096  1.00  0.00     0.155 C 
HETATM    4  S1  UNL     1     -10.645  30.444   0.548  1.00  0.00    -0.013 SA
ATOM      5  H2  UNL     1      -8.404  30.460  -0.379  1.00  0.00     0.170 HD
BRANCH   3   6
HETATM    6  N1  UNL     1      -9.569  28.797   2.205  1.00  0.00    -0.366 N 
HETATM    7  C3  UNL     1      -8.518  28.007   2.925  1.00  0.00     0.151 C 
BRANCH   6   8
HETATM    8  C2  UNL     1     -10.898  28.710   2.784  1.00  0.00     0.120 C 
HETATM    9  C1  UNL     1     -10.737  28.656   4.322  1.00  0.00     0.026 C 
ENDBRANCH   6   8
ENDBRANCH   3   6
ENDBRANCH   1   2
BRANCH   1  10
HETATM   10  N3  UNL     1      -5.952  30.438   0.270  1.00  0.00    -0.335 NA
BRANCH  10  11
HETATM   11  C6  UNL     1      -5.104  31.400   0.455  1.00  0.00     0.343 C 
BRANCH  11  12
HETATM   12  O1  UNL     1      -3.869  31.431  -0.008  1.00  0.00    -0.315 OA
ATOM     13  H1  UNL     1      -3.421  32.203  -0.332  1.00  0.00     0.222 HD
ENDBRANCH  11  12
BRANCH  11  14
HETATM   14  O2  UNL     1      -5.353  32.599   1.198  1.00  0.00    -0.303 OA
BRANCH  14  15
HETATM   15  C7  UNL     1      -6.508  33.367   0.800  1.00  0.00     0.213 C 
BRANCH  15  16
HETATM   16  C8  UNL     1      -7.525  33.410   1.864  1.00  0.00     0.210 C 
HETATM   17  C9  UNL     1      -8.127  34.791   2.011  1.00  0.00     0.037 C 
HETATM   18  C10 UNL     1      -8.403  34.893   3.489  1.00  0.00     0.029 C 
HETATM   19  C11 UNL     1      -7.131  34.187   4.014  1.00  0.00     0.233 C 
HETATM   20  N4  UNL     1      -7.019  33.043   3.170  1.00  0.00    -0.069 N 
ATOM     21  H42 UNL     1      -7.478  32.218   3.557  1.00  0.00     0.277 HD
ATOM     22  H41 UNL     1      -6.071  32.666   3.138  1.00  0.00     0.277 HD
ENDBRANCH  15  16
ENDBRANCH  14  15
ENDBRANCH  11  14
ENDBRANCH  10  11
ENDBRANCH   1  10
BRANCH   1  23
HETATM   23  C12 UNL     1      -6.248  28.182  -0.207  1.00  0.00     0.303 C 
HETATM   24  O3  UNL     1      -6.927  27.168  -0.031  1.00  0.00    -0.263 OA
HETATM   25  N5  UNL     1      -4.937  28.067  -0.732  1.00  0.00    -0.332 N 
ATOM     26  H5  UNL     1      -4.454  28.957  -0.852  1.00  0.00     0.168 HD
BRANCH  25  27
HETATM   27  C13 UNL     1      -4.183  26.943  -1.117  1.00  0.00     0.084 C 
BRANCH  27  28
HETATM   28  C14 UNL     1      -4.747  26.058  -2.183  1.00  0.00     0.166 C 
BRANCH  28  29
HETATM   29  N6  UNL     1      -5.088  26.801  -3.364  1.00  0.00    -0.389 N 
HETATM   30  C15 UNL     1      -4.260  26.708  -4.485  1.00  0.00     0.058 C 
HETATM   31  C16 UNL     1      -5.028  27.456  -5.564  1.00  0.00     0.046 C 
HETATM   32  C17 UNL     1      -6.455  26.983  -5.271  1.00  0.00     0.025 C 
HETATM   33  C18 UNL     1      -6.433  26.909  -3.741  1.00  0.00     0.122 C 
ENDBRANCH  28  29
ENDBRANCH  27  28
ENDBRANCH  25  27
ENDBRANCH   1  23
TORSDOF 13
ENDMDL
MODEL 4
REMARK VINA RESULT: -5.799635278      2.829      6.894
REMARK  13 active torsions:
REMARK  status: ('A' for Active; 'I' for Inactive)
REMARK    1  A    between atoms: C2_2  and  N1_3 
REMARK    2  A    between atoms: N1_3  and  C4_5 
REMARK    3  A    between atoms: N2_7  and  C5_9 
REMARK    4  A    between atoms: C5_9  and  N3_10 
REMARK    5  A    between atoms: C5_9  and  C12_23 
REMARK    6  A    between atoms: N3_10  and  C6_11 
REMARK    7  A    between atoms: C6_11  and  O1_12 
REMARK    8  A    between atoms: C6_11  and  O2_14 
REMARK    9  A    between atoms: O2_14  and  C7_15 
REMARK   10  A    between atoms: C7_15  and  C8_16 
REMARK       I    between atoms: C12_23  and  N5_25 
REMARK   11  A    between atoms: N5_25  and  C13_27 
REMARK   12  A    between atoms: C13_27  and  C14_28 
REMARK   13  A    between atoms: C14_28  and  N6_29 
ROOT
HETATM    1  C5  UNL     1      -8.425  26.595  -1.325  1.00  0.00     0.254 C 
ENDROOT
BRANCH   1   2
HETATM    2  N2  UNL     1      -9.508  27.036  -2.088  1.00  0.00    -0.306 N 
HETATM    3  C4  UNL     1     -10.060  27.202  -3.326  1.00  0.00     0.155 C 
HETATM    4  S1  UNL     1     -11.672  27.918  -3.273  1.00  0.00    -0.013 SA
ATOM      5  H2  UNL     1     -10.194  27.394  -1.423  1.00  0.00     0.170 HD
BRANCH   3   6
HETATM    6  N1  UNL     1      -9.727  26.947  -4.645  1.00  0.00    -0.366 N 
HETATM    7  C3  UNL     1      -9.895  28.021  -5.678  1.00  0.00     0.151 C 
BRANCH   6   8
HETATM    8  C2  UNL     1      -9.184  25.698  -5.149  1.00  0.00     0.120 C 
HETATM    9  C1  UNL     1      -9.163  25.786  -6.694  1.00  0.00     0.026 C 
ENDBRANCH   6   8
ENDBRANCH   3   6
ENDBRANCH   1   2
BRANCH   1  10
HETATM   10  N3  UNL     1      -7.822  25.608  -1.643  1.00  0.00    -0.335 NA
BRANCH  10  11
HETATM   11  C6  UNL     1      -7.164  24.556  -2.017  1.00  0.00     0.343 C 
BRANCH  11  12
HETATM   12  O1  UNL     1      -7.556  23.308  -1.847  1.00  0.00    -0.315 OA
ATOM     13  H1  UNL     1      -7.031  22.536  -2.026  1.00  0.00     0.222 HD
ENDBRANCH  11  12
BRANCH  11  14
HETATM   14  O2  UNL     1      -5.891  24.559  -2.675  1.00  0.00    -0.303 OA
BRANCH  14  15
HETATM   15  C7  UNL     1      -5.057  25.713  -2.442  1.00  0.00     0.213 C 
BRANCH  15  16
HETATM   16  C8  UNL     1      -4.728  26.409  -3.697  1.00  0.00     0.210 C 
HETATM   17  C9  UNL     1      -5.931  27.123  -4.277  1.00  0.00     0.037 C 
HETATM   18  C10 UNL     1      -5.717  27.008  -5.764  1.00  0.00     0.029 C 
HETATM   19  C11 UNL     1      -5.169  25.563  -5.812  1.00  0.00     0.233 C 
HETATM   20  N4  UNL     1      -4.231  25.532  -4.737  1.00  0.00    -0.069 N 
ATOM     21  H42 UNL     1      -3.282  25.763  -5.032  1.00  0.00     0.277 HD
ATOM     22  H41 UNL     1      -4.042  24.587  -4.403  1.00  0.00     0.277 HD
ENDBRANCH  15  16
ENDBRANCH  14  15
ENDBRANCH  11  14
ENDBRANCH  10  11
ENDBRANCH   1  10
BRANCH   1  23
HETATM   23  C12 UNL     1      -7.917  27.389  -0.152  1.00  0.00     0.303 C 
HETATM   24  O3  UNL     1      -7.852  26.918   0.986  1.00  0.00    -0.263 OA
HETATM   25  N5  UNL     1      -7.507  28.725  -0.384  1.00  0.00    -0.332 N 
ATOM     26  H5  UNL     1      -7.587  29.025  -1.356  1.00  0.00     0.168 HD
BRANCH  25  27
HETATM   27  C13 UNL     1      -7.010  29.711   0.487  1.00  0.00     0.084 C 
BRANCH  27  28
HETATM   28  C14 UNL     1      -7.982  30.701   1.046  1.00  0.00     0.166 C 
BRANCH  28  29
HETATM   29  N6  UNL     1      -7.643  32.046   0.675  1.00  0.00    -0.389 N 
HETATM   30  C15 UNL     1      -6.306  32.448   0.731  1.00  0.00     0.058 C 
HETATM   31  C16 UNL     1      -6.318  33.831   0.098  1.00  0.00     0.046 C 
HETATM   32  C17 UNL     1      -7.298  33.602  -1.057  1.00  0.00     0.025 C 
HETATM   33  C18 UNL     1      -8.303  32.645  -0.406  1.00  0.00     0.122 C 
ENDBRANCH  28  29
ENDBRANCH  27  28
ENDBRANCH  25  27
ENDBRANCH   1  23
TORSDOF 13
ENDMDL
MODEL 5
REMARK VINA RESULT: -5.774020982      1.362      6.571
REMARK  13 active torsions:
REMARK  status: ('A' for Active; 'I' for Inactive)
REMARK    1  A    between atoms: C2_2  and  N1_3 
REMARK    2  A    between atoms: N1_3  and  C4_5 
REMARK    3  A    between atoms: N2_7  and  C5_9 
REMARK    4  A    between atoms: C5_9  and  N3_10 
REMARK    5  A    between atoms: C5_9  and  C12_23 
REMARK    6  A    between atoms: N3_10  and  C6_11 
REMARK    7  A    between atoms: C6_11  and  O1_12 
REMARK    8  A    between atoms: C6_11  and  O2_14 
REMARK    9  A    between atoms: O2_14  and  C7_15 
REMARK   10  A    between atoms: C7_15  and  C8_16 
REMARK       I    between atoms: C12_23  and  N5_25 
REMARK   11  A    between atoms: N5_25  and  C13_27 
REMARK   12  A    between atoms: C13_27  and  C14_28 
REMARK   13  A    between atoms: C14_28  and  N6_29 
ROOT
HETATM    1  C5  UNL     1      -4.567  27.794  -0.994  1.00  0.00     0.254 C 
ENDROOT
BRANCH   1   2
HETATM    2  N2  UNL     1      -5.642  27.275  -0.270  1.00  0.00    -0.306 N 
HETATM    3  C4  UNL     1      -6.781  26.521  -0.269  1.00  0.00     0.155 C 
HETATM    4  S1  UNL     1      -7.540  26.417   1.320  1.00  0.00    -0.013 SA
ATOM      5  H2  UNL     1      -5.525  27.608   0.687  1.00  0.00     0.170 HD
BRANCH   3   6
HETATM    6  N1  UNL     1      -7.522  25.775  -1.170  1.00  0.00    -0.366 N 
HETATM    7  C3  UNL     1      -7.072  24.394  -1.542  1.00  0.00     0.151 C 
BRANCH   6   8
HETATM    8  C2  UNL     1      -8.758  26.201  -1.800  1.00  0.00     0.120 C 
HETATM    9  C1  UNL     1      -8.651  27.723  -2.061  1.00  0.00     0.026 C 
ENDBRANCH   6   8
ENDBRANCH   3   6
ENDBRANCH   1   2
BRANCH   1  10
HETATM   10  N3  UNL     1      -4.131  27.200  -1.941  1.00  0.00    -0.335 NA
BRANCH  10  11
HETATM   11  C6  UNL     1      -3.631  26.574  -2.959  1.00  0.00     0.343 C 
BRANCH  11  12
HETATM   12  O1  UNL     1      -2.701  25.640  -2.902  1.00  0.00    -0.315 OA
ATOM     13  H1  UNL     1      -2.527  24.993  -3.575  1.00  0.00     0.222 HD
ENDBRANCH  11  12
BRANCH  11  14
HETATM   14  O2  UNL     1      -3.994  26.787  -4.329  1.00  0.00    -0.303 OA
BRANCH  14  15
HETATM   15  C7  UNL     1      -4.955  25.864  -4.883  1.00  0.00     0.213 C 
BRANCH  15  16
HETATM   16  C8  UNL     1      -6.336  26.339  -4.696  1.00  0.00     0.210 C 
HETATM   17  C9  UNL     1      -7.301  25.644  -5.632  1.00  0.00     0.037 C 
HETATM   18  C10 UNL     1      -8.320  26.712  -5.935  1.00  0.00     0.029 C 
HETATM   19  C11 UNL     1      -7.364  27.923  -6.044  1.00  0.00     0.233 C 
HETATM   20  N4  UNL     1      -6.499  27.760  -4.921  1.00  0.00    -0.069 N 
ATOM     21  H42 UNL     1      -6.826  28.258  -4.093  1.00  0.00     0.277 HD
ATOM     22  H41 UNL     1      -5.611  28.250  -5.031  1.00  0.00     0.277 HD
ENDBRANCH  15  16
ENDBRANCH  14  15
ENDBRANCH  11  14
ENDBRANCH  10  11
ENDBRANCH   1  10
BRANCH   1  23
HETATM   23  C12 UNL     1      -3.992  29.149  -0.681  1.00  0.00     0.303 C 
HETATM   24  O3  UNL     1      -2.867  29.491  -1.055  1.00  0.00    -0.263 OA
HETATM   25  N5  UNL     1      -4.784  30.047   0.075  1.00  0.00    -0.332 N 
ATOM     26  H5  UNL     1      -5.701  29.682   0.332  1.00  0.00     0.168 HD
BRANCH  25  27
HETATM   27  C13 UNL     1      -4.531  31.352   0.535  1.00  0.00     0.084 C 
BRANCH  27  28
HETATM   28  C14 UNL     1      -5.093  31.744   1.864  1.00  0.00     0.166 C 
BRANCH  28  29
HETATM   29  N6  UNL     1      -6.235  32.603   1.726  1.00  0.00    -0.389 N 
HETATM   30  C15 UNL     1      -6.713  33.281   2.851  1.00  0.00     0.058 C 
HETATM   31  C16 UNL     1      -7.775  34.212   2.286  1.00  0.00     0.046 C 
HETATM   32  C17 UNL     1      -7.088  34.671   0.996  1.00  0.00     0.025 C 
HETATM   33  C18 UNL     1      -6.366  33.388   0.573  1.00  0.00     0.122 C 
ENDBRANCH  28  29
ENDBRANCH  27  28
ENDBRANCH  25  27
ENDBRANCH   1  23
TORSDOF 13
ENDMDL
