MODEL 1
REMARK VINA RESULT: -7.145302198      0.000      0.000
REMARK  8 active torsions:
REMARK  status: ('A' for Active; 'I' for Inactive)
REMARK    1  A    between atoms: C2_2  and  C4_4 
REMARK    2  A    between atoms: C4_4  and  N1_5 
REMARK    3  A    between atoms: C4_4  and  C15_22 
REMARK       I    between atoms: N1_5  and  C5_7 
REMARK    4  A    between atoms: C5_7  and  C6_9 
REMARK    5  A    between atoms: C6_9  and  N2_10 
REMARK       I    between atoms: N2_10  and  C7_12 
REMARK    6  A    between atoms: C7_12  and  O3_14 
REMARK    7  A    between atoms: O3_14  and  C8_15 
REMARK       I    between atoms: C15_22  and  N3_24 
REMARK    8  A    between atoms: C19_28  and  C20_29 
ROOT
HETATM    1  N1  UNL     1      -8.036  28.154  -0.651  1.00  0.00    -0.345 N 
ATOM      2  H1  UNL     1      -7.376  27.379  -0.593  1.00  0.00     0.163 HD
HETATM    3  C5  UNL     1      -8.647  28.431  -1.889  1.00  0.00     0.247 C 
HETATM    4  O1  UNL     1      -9.462  29.415  -1.918  1.00  0.00    -0.271 OA
ENDROOT
BRANCH   1   5
HETATM    5  C4  UNL     1      -8.308  28.928   0.551  1.00  0.00     0.180 C 
BRANCH   5   6
HETATM    6  C2  UNL     1      -7.848  28.135   1.768  1.00  0.00     0.009 C 
HETATM    7  C1  UNL     1      -7.596  26.677   1.374  1.00  0.00     0.012 C 
HETATM    8  C3  UNL     1      -8.910  28.109   2.842  1.00  0.00     0.012 C 
ENDBRANCH   5   6
BRANCH   5   9
HETATM    9  C15 UNL     1      -7.628  30.268   0.527  1.00  0.00     0.243 C 
HETATM   10  O4  UNL     1      -6.415  30.205   0.201  1.00  0.00    -0.271 OA
HETATM   11  N3  UNL     1      -8.290  31.456   0.839  1.00  0.00    -0.337 N 
HETATM   12  C16 UNL     1      -9.746  31.487   1.099  1.00  0.00     0.127 C 
HETATM   13  C19 UNL     1      -7.876  32.788   0.979  1.00  0.00     0.176 C 
HETATM   14  C17 UNL     1      -9.783  32.301   2.367  1.00  0.00     0.022 C 
HETATM   15  C18 UNL     1      -8.586  33.186   2.324  1.00  0.00     0.036 C 
BRANCH  13  16
HETATM   16  C20 UNL     1      -6.473  33.132   1.158  1.00  0.00     0.254 C 
HETATM   17  N4  UNL     1      -5.785  33.726   0.010  1.00  0.00    -0.060 NA
HETATM   18  O5  UNL     1      -5.793  32.980   2.167  1.00  0.00    -0.275 OA
ENDBRANCH  13  16
ENDBRANCH   5   9
ENDBRANCH   1   5
BRANCH   3  19
HETATM   19  C6  UNL     1      -8.419  27.668  -3.147  1.00  0.00     0.119 A 
HETATM   20  C12 UNL     1      -9.488  27.751  -4.224  1.00  0.00     0.048 A 
HETATM   21  C13 UNL     1      -9.292  26.500  -3.460  1.00  0.00     0.022 A 
HETATM   22  C14 UNL     1     -10.435  26.106  -2.548  1.00  0.00     0.013 C 
BRANCH  19  23
HETATM   23  N2  UNL     1      -7.032  27.554  -3.557  1.00  0.00    -0.318 N 
HETATM   24  C7  UNL     1      -6.068  26.724  -2.960  1.00  0.00     0.362 C 
HETATM   25  O2  UNL     1      -6.244  25.946  -1.990  1.00  0.00    -0.238 OA
ATOM     26  H2  UNL     1      -6.731  28.126  -4.345  1.00  0.00     0.166 HD
BRANCH  24  27
HETATM   27  O3  UNL     1      -4.766  26.745  -3.478  1.00  0.00    -0.294 OA
BRANCH  27  28
HETATM   28  C8  UNL     1      -4.509  26.467  -4.855  1.00  0.00     0.061 C 
HETATM   29  C9  UNL     1      -4.554  27.764  -5.594  1.00  0.00     0.046 C 
HETATM   30  C10 UNL     1      -3.165  25.778  -4.907  1.00  0.00     0.046 C 
HETATM   31  C11 UNL     1      -5.594  25.507  -5.358  1.00  0.00     0.046 C 
ENDBRANCH  27  28
ENDBRANCH  24  27
ENDBRANCH  19  23
ENDBRANCH   3  19
TORSDOF 8
ENDMDL
MODEL 2
REMARK VINA RESULT: -6.835495526      1.801      7.113
REMARK  8 active torsions:
REMARK  status: ('A' for Active; 'I' for Inactive)
REMARK    1  A    between atoms: C2_2  and  C4_4 
REMARK    2  A    between atoms: C4_4  and  N1_5 
REMARK    3  A    between atoms: C4_4  and  C15_22 
REMARK       I    between atoms: N1_5  and  C5_7 
REMARK    4  A    between atoms: C5_7  and  C6_9 
REMARK    5  A    between atoms: C6_9  and  N2_10 
REMARK       I    between atoms: N2_10  and  C7_12 
REMARK    6  A    between atoms: C7_12  and  O3_14 
REMARK    7  A    between atoms: O3_14  and  C8_15 
REMARK       I    between atoms: C15_22  and  N3_24 
REMARK    8  A    between atoms: C19_28  and  C20_29 
ROOT
HETATM    1  N1  UNL     1      -8.621  28.013  -1.191  1.00  0.00    -0.345 N 
ATOM      2  H1  UNL     1      -8.871  28.939  -1.538  1.00  0.00     0.163 HD
HETATM    3  C5  UNL     1      -8.523  27.817   0.201  1.00  0.00     0.247 C 
HETATM    4  O1  UNL     1      -8.200  26.643   0.591  1.00  0.00    -0.271 OA
ENDROOT
BRANCH   1   5
HETATM    5  C4  UNL     1      -8.381  26.949  -2.154  1.00  0.00     0.180 C 
BRANCH   5   6
HETATM    6  C2  UNL     1      -9.645  26.727  -2.976  1.00  0.00     0.009 C 
HETATM    7  C1  UNL     1     -10.880  26.888  -2.084  1.00  0.00     0.012 C 
HETATM    8  C3  UNL     1      -9.700  25.324  -3.532  1.00  0.00     0.012 C 
ENDBRANCH   5   6
BRANCH   5   9
HETATM    9  C15 UNL     1      -7.227  27.262  -3.066  1.00  0.00     0.243 C 
HETATM   10  O4  UNL     1      -7.571  27.864  -4.115  1.00  0.00    -0.271 OA
HETATM   11  N3  UNL     1      -5.910  26.911  -2.765  1.00  0.00    -0.337 N 
HETATM   12  C16 UNL     1      -5.547  26.311  -1.462  1.00  0.00     0.127 C 
HETATM   13  C19 UNL     1      -4.700  27.000  -3.465  1.00  0.00     0.176 C 
HETATM   14  C17 UNL     1      -4.697  25.154  -1.920  1.00  0.00     0.022 C 
HETATM   15  C18 UNL     1      -4.102  25.567  -3.221  1.00  0.00     0.036 C 
BRANCH  13  16
HETATM   16  C20 UNL     1      -4.670  27.199  -4.907  1.00  0.00     0.254 C 
HETATM   17  N4  UNL     1      -5.169  26.102  -5.739  1.00  0.00    -0.060 NA
HETATM   18  O5  UNL     1      -4.270  28.188  -5.513  1.00  0.00    -0.275 OA
ENDBRANCH  13  16
ENDBRANCH   5   9
ENDBRANCH   1   5
BRANCH   3  19
HETATM   19  C6  UNL     1      -8.770  28.860   1.233  1.00  0.00     0.119 A 
HETATM   20  C12 UNL     1      -9.367  28.413   2.556  1.00  0.00     0.048 A 
HETATM   21  C13 UNL     1     -10.172  29.204   1.601  1.00  0.00     0.022 A 
HETATM   22  C14 UNL     1     -11.349  28.480   0.982  1.00  0.00     0.013 C 
BRANCH  19  23
HETATM   23  N2  UNL     1      -7.821  29.959   1.238  1.00  0.00    -0.318 N 
HETATM   24  C7  UNL     1      -7.793  31.019   0.318  1.00  0.00     0.362 C 
HETATM   25  O2  UNL     1      -8.578  31.197  -0.648  1.00  0.00    -0.238 OA
ATOM     26  H2  UNL     1      -7.115  29.961   1.973  1.00  0.00     0.166 HD
BRANCH  24  27
HETATM   27  O3  UNL     1      -6.799  31.996   0.464  1.00  0.00    -0.294 OA
BRANCH  27  28
HETATM   28  C8  UNL     1      -6.891  33.007   1.468  1.00  0.00     0.061 C 
HETATM   29  C9  UNL     1      -5.961  32.632   2.574  1.00  0.00     0.046 C 
HETATM   30  C10 UNL     1      -6.545  34.312   0.791  1.00  0.00     0.046 C 
HETATM   31  C11 UNL     1      -8.343  33.057   1.961  1.00  0.00     0.046 C 
ENDBRANCH  27  28
ENDBRANCH  24  27
ENDBRANCH  19  23
ENDBRANCH   3  19
TORSDOF 8
ENDMDL
MODEL 3
REMARK VINA RESULT: -6.818618113      1.964      7.438
REMARK  8 active torsions:
REMARK  status: ('A' for Active; 'I' for Inactive)
REMARK    1  A    between atoms: C2_2  and  C4_4 
REMARK    2  A    between atoms: C4_4  and  N1_5 
REMARK    3  A    between atoms: C4_4  and  C15_22 
REMARK       I    between atoms: N1_5  and  C5_7 
REMARK    4  A    between atoms: C5_7  and  C6_9 
REMARK    5  A    between atoms: C6_9  and  N2_10 
REMARK       I    between atoms: N2_10  and  C7_12 
REMARK    6  A    between atoms: C7_12  and  O3_14 
REMARK    7  A    between atoms: O3_14  and  C8_15 
REMARK       I    between atoms: C15_22  and  N3_24 
REMARK    8  A    between atoms: C19_28  and  C20_29 
ROOT
HETATM    1  N1  UNL     1      -7.771  27.030  -0.507  1.00  0.00    -0.345 N 
ATOM      2  H1  UNL     1      -8.692  26.686  -0.238  1.00  0.00     0.163 HD
HETATM    3  C5  UNL     1      -7.228  28.124   0.195  1.00  0.00     0.247 C 
HETATM    4  O1  UNL     1      -6.074  28.528  -0.179  1.00  0.00    -0.271 OA
ENDROOT
BRANCH   1   5
HETATM    5  C4  UNL     1      -7.071  26.370  -1.598  1.00  0.00     0.180 C 
BRANCH   5   6
HETATM    6  C2  UNL     1      -7.560  24.930  -1.704  1.00  0.00     0.009 C 
HETATM    7  C1  UNL     1      -6.413  23.966  -1.385  1.00  0.00     0.012 C 
HETATM    8  C3  UNL     1      -8.013  24.604  -3.108  1.00  0.00     0.012 C 
ENDBRANCH   5   6
BRANCH   5   9
HETATM    9  C15 UNL     1      -7.273  27.076  -2.910  1.00  0.00     0.243 C 
HETATM   10  O4  UNL     1      -8.414  27.591  -3.026  1.00  0.00    -0.271 OA
HETATM   11  N3  UNL     1      -6.283  27.144  -3.891  1.00  0.00    -0.337 N 
HETATM   12  C16 UNL     1      -4.919  26.623  -3.653  1.00  0.00     0.127 C 
HETATM   13  C19 UNL     1      -6.250  27.645  -5.199  1.00  0.00     0.176 C 
HETATM   14  C17 UNL     1      -4.709  25.818  -4.909  1.00  0.00     0.022 C 
HETATM   15  C18 UNL     1      -5.545  26.463  -5.959  1.00  0.00     0.036 C 
BRANCH  13  16
HETATM   16  C20 UNL     1      -7.472  27.917  -5.941  1.00  0.00     0.254 C 
HETATM   17  N4  UNL     1      -7.837  29.322  -6.127  1.00  0.00    -0.060 NA
HETATM   18  O5  UNL     1      -8.241  27.097  -6.432  1.00  0.00    -0.275 OA
ENDBRANCH  13  16
ENDBRANCH   5   9
ENDBRANCH   1   5
BRANCH   3  19
HETATM   19  C6  UNL     1      -7.889  28.830   1.326  1.00  0.00     0.119 A 
HETATM   20  C12 UNL     1      -8.639  27.984   2.341  1.00  0.00     0.048 A 
HETATM   21  C13 UNL     1      -9.377  28.855   1.400  1.00  0.00     0.022 A 
HETATM   22  C14 UNL     1     -10.229  28.134   0.375  1.00  0.00     0.013 C 
BRANCH  19  23
HETATM   23  N2  UNL     1      -7.208  30.025   1.789  1.00  0.00    -0.318 N 
HETATM   24  C7  UNL     1      -7.094  31.230   1.077  1.00  0.00     0.362 C 
HETATM   25  O2  UNL     1      -7.562  31.476  -0.063  1.00  0.00    -0.238 OA
ATOM     26  H2  UNL     1      -6.775  29.986   2.712  1.00  0.00     0.166 HD
BRANCH  24  27
HETATM   27  O3  UNL     1      -6.391  32.287   1.671  1.00  0.00    -0.294 OA
BRANCH  27  28
HETATM   28  C8  UNL     1      -7.072  33.398   2.255  1.00  0.00     0.061 C 
HETATM   29  C9  UNL     1      -6.493  33.621   3.613  1.00  0.00     0.046 C 
HETATM   30  C10 UNL     1      -6.879  34.560   1.308  1.00  0.00     0.046 C 
HETATM   31  C11 UNL     1      -8.563  33.051   2.340  1.00  0.00     0.046 C 
ENDBRANCH  27  28
ENDBRANCH  24  27
ENDBRANCH  19  23
ENDBRANCH   3  19
TORSDOF 8
ENDMDL
MODEL 4
REMARK VINA RESULT: -6.810643197      1.811      3.000
REMARK  8 active torsions:
REMARK  status: ('A' for Active; 'I' for Inactive)
REMARK    1  A    between atoms: C2_2  and  C4_4 
REMARK    2  A    between atoms: C4_4  and  N1_5 
REMARK    3  A    between atoms: C4_4  and  C15_22 
REMARK       I    between atoms: N1_5  and  C5_7 
REMARK    4  A    between atoms: C5_7  and  C6_9 
REMARK    5  A    between atoms: C6_9  and  N2_10 
REMARK       I    between atoms: N2_10  and  C7_12 
REMARK    6  A    between atoms: C7_12  and  O3_14 
REMARK    7  A    between atoms: O3_14  and  C8_15 
REMARK       I    between atoms: C15_22  and  N3_24 
REMARK    8  A    between atoms: C19_28  and  C20_29 
ROOT
HETATM    1  N1  UNL     1      -7.142  27.584  -0.273  1.00  0.00    -0.345 N 
ATOM      2  H1  UNL     1      -6.474  27.028   0.260  1.00  0.00     0.163 HD
HETATM    3  C5  UNL     1      -7.300  27.316  -1.647  1.00  0.00     0.247 C 
HETATM    4  O1  UNL     1      -8.142  28.042  -2.278  1.00  0.00    -0.271 OA
ENDROOT
BRANCH   1   5
HETATM    5  C4  UNL     1      -7.891  28.623   0.418  1.00  0.00     0.180 C 
BRANCH   5   6
HETATM    6  C2  UNL     1      -7.994  28.263   1.895  1.00  0.00     0.009 C 
HETATM    7  C1  UNL     1      -7.469  26.843   2.123  1.00  0.00     0.012 C 
HETATM    8  C3  UNL     1      -9.430  28.267   2.364  1.00  0.00     0.012 C 
ENDBRANCH   5   6
BRANCH   5   9
HETATM    9  C15 UNL     1      -7.256  29.977   0.265  1.00  0.00     0.243 C 
HETATM   10  O4  UNL     1      -6.001  29.932   0.193  1.00  0.00    -0.271 OA
HETATM   11  N3  UNL     1      -7.998  31.157   0.210  1.00  0.00    -0.337 N 
HETATM   12  C16 UNL     1      -9.477  31.141   0.179  1.00  0.00     0.127 C 
HETATM   13  C19 UNL     1      -7.656  32.515   0.166  1.00  0.00     0.176 C 
HETATM   14  C17 UNL     1      -9.786  32.172   1.235  1.00  0.00     0.022 C 
HETATM   15  C18 UNL     1      -8.628  33.108   1.249  1.00  0.00     0.036 C 
BRANCH  13  16
HETATM   16  C20 UNL     1      -6.325  32.976   0.537  1.00  0.00     0.254 C 
HETATM   17  N4  UNL     1      -5.992  32.961   1.962  1.00  0.00    -0.060 NA
HETATM   18  O5  UNL     1      -5.443  33.379  -0.213  1.00  0.00    -0.275 OA
ENDBRANCH  13  16
ENDBRANCH   5   9
ENDBRANCH   1   5
BRANCH   3  19
HETATM   19  C6  UNL     1      -6.574  26.261  -2.403  1.00  0.00     0.119 A 
HETATM   20  C12 UNL     1      -5.850  25.192  -1.601  1.00  0.00     0.048 A 
HETATM   21  C13 UNL     1      -5.085  26.216  -2.345  1.00  0.00     0.022 A 
HETATM   22  C14 UNL     1      -4.301  27.192  -1.492  1.00  0.00     0.013 C 
BRANCH  19  23
HETATM   23  N2  UNL     1      -7.173  25.888  -3.672  1.00  0.00    -0.318 N 
HETATM   24  C7  UNL     1      -7.007  26.572  -4.887  1.00  0.00     0.362 C 
HETATM   25  O2  UNL     1      -6.317  27.603  -5.081  1.00  0.00    -0.238 OA
ATOM     26  H2  UNL     1      -7.765  25.057  -3.680  1.00  0.00     0.166 HD
BRANCH  24  27
HETATM   27  O3  UNL     1      -7.669  26.077  -6.020  1.00  0.00    -0.294 OA
BRANCH  27  28
HETATM   28  C8  UNL     1      -8.987  26.512  -6.359  1.00  0.00     0.061 C 
HETATM   29  C9  UNL     1      -8.868  27.851  -7.007  1.00  0.00     0.046 C 
HETATM   30  C10 UNL     1      -9.568  25.445  -7.257  1.00  0.00     0.046 C 
HETATM   31  C11 UNL     1      -9.809  26.595  -5.066  1.00  0.00     0.046 C 
ENDBRANCH  27  28
ENDBRANCH  24  27
ENDBRANCH  19  23
ENDBRANCH   3  19
TORSDOF 8
ENDMDL
MODEL 5
REMARK VINA RESULT: -6.768400153      1.929      7.308
REMARK  8 active torsions:
REMARK  status: ('A' for Active; 'I' for Inactive)
REMARK    1  A    between atoms: C2_2  and  C4_4 
REMARK    2  A    between atoms: C4_4  and  N1_5 
REMARK    3  A    between atoms: C4_4  and  C15_22 
REMARK       I    between atoms: N1_5  and  C5_7 
REMARK    4  A    between atoms: C5_7  and  C6_9 
REMARK    5  A    between atoms: C6_9  and  N2_10 
REMARK       I    between atoms: N2_10  and  C7_12 
REMARK    6  A    between atoms: C7_12  and  O3_14 
REMARK    7  A    between atoms: O3_14  and  C8_15 
REMARK       I    between atoms: C15_22  and  N3_24 
REMARK    8  A    between atoms: C19_28  and  C20_29 
ROOT
HETATM    1  N1  UNL     1      -7.594  27.773  -0.494  1.00  0.00    -0.345 N 
ATOM      2  H1  UNL     1      -7.930  28.530  -1.090  1.00  0.00     0.163 HD
HETATM    3  C5  UNL     1      -7.852  27.838   0.889  1.00  0.00     0.247 C 
HETATM    4  O1  UNL     1      -7.407  26.873   1.600  1.00  0.00    -0.271 OA
ENDROOT
BRANCH   1   5
HETATM    5  C4  UNL     1      -6.869  26.672  -1.109  1.00  0.00     0.180 C 
BRANCH   5   6
HETATM    6  C2  UNL     1      -7.815  25.489  -1.281  1.00  0.00     0.009 C 
HETATM    7  C1  UNL     1      -7.082  24.333  -1.968  1.00  0.00     0.012 C 
HETATM    8  C3  UNL     1      -8.983  25.843  -2.170  1.00  0.00     0.012 C 
ENDBRANCH   5   6
BRANCH   5   9
HETATM    9  C15 UNL     1      -6.281  27.053  -2.438  1.00  0.00     0.243 C 
HETATM   10  O4  UNL     1      -7.131  27.503  -3.249  1.00  0.00    -0.271 OA
HETATM   11  N3  UNL     1      -4.923  26.916  -2.730  1.00  0.00    -0.337 N 
HETATM   12  C16 UNL     1      -3.948  26.493  -1.701  1.00  0.00     0.127 C 
HETATM   13  C19 UNL     1      -4.158  27.104  -3.889  1.00  0.00     0.176 C 
HETATM   14  C17 UNL     1      -3.197  25.426  -2.454  1.00  0.00     0.022 C 
HETATM   15  C18 UNL     1      -3.288  25.795  -3.894  1.00  0.00     0.036 C 
BRANCH  13  16
HETATM   16  C20 UNL     1      -4.776  27.171  -5.205  1.00  0.00     0.254 C 
HETATM   17  N4  UNL     1      -5.353  25.932  -5.731  1.00  0.00    -0.060 NA
HETATM   18  O5  UNL     1      -4.870  28.153  -5.933  1.00  0.00    -0.275 OA
ENDBRANCH  13  16
ENDBRANCH   5   9
ENDBRANCH   1   5
BRANCH   3  19
HETATM   19  C6  UNL     1      -8.598  28.930   1.572  1.00  0.00     0.119 A 
HETATM   20  C12 UNL     1      -9.735  28.533   2.498  1.00  0.00     0.048 A 
HETATM   21  C13 UNL     1     -10.019  29.185   1.202  1.00  0.00     0.022 A 
HETATM   22  C14 UNL     1     -10.733  28.324   0.181  1.00  0.00     0.013 C 
BRANCH  19  23
HETATM   23  N2  UNL     1      -7.807  30.100   1.909  1.00  0.00    -0.318 N 
HETATM   24  C7  UNL     1      -7.293  31.031   0.992  1.00  0.00     0.362 C 
HETATM   25  O2  UNL     1      -7.435  31.013  -0.256  1.00  0.00    -0.238 OA
ATOM     26  H2  UNL     1      -7.608  30.259   2.897  1.00  0.00     0.166 HD
BRANCH  24  27
HETATM   27  O3  UNL     1      -6.539  32.103   1.490  1.00  0.00    -0.294 OA
BRANCH  27  28
HETATM   28  C8  UNL     1      -7.149  33.350   1.824  1.00  0.00     0.061 C 
HETATM   29  C9  UNL     1      -6.820  33.647   3.250  1.00  0.00     0.046 C 
HETATM   30  C10 UNL     1      -6.607  34.365   0.845  1.00  0.00     0.046 C 
HETATM   31  C11 UNL     1      -8.664  33.207   1.625  1.00  0.00     0.046 C 
ENDBRANCH  27  28
ENDBRANCH  24  27
ENDBRANCH  19  23
ENDBRANCH   3  19
TORSDOF 8
ENDMDL
