MODEL 1
REMARK VINA RESULT: -8.177441406      0.000      0.000
REMARK  12 active torsions:
REMARK  status: ('A' for Active; 'I' for Inactive)
REMARK    1  A    between atoms: O1_2  and  C2_3 
REMARK    2  A    between atoms: C3_4  and  C4_5 
REMARK    3  A    between atoms: C6_9  and  O3_10 
REMARK    4  A    between atoms: C7_12  and  N2_13 
REMARK    5  A    between atoms: N2_13  and  N3_15 
REMARK    6  A    between atoms: N4_17  and  C8_19 
REMARK    7  A    between atoms: C9_20  and  C10_21 
REMARK    8  A    between atoms: C10_21  and  O4_22 
REMARK    9  A    between atoms: C10_21  and  O5_24 
REMARK   10  A    between atoms: N6_32  and  N7_33 
REMARK   11  A    between atoms: C14_36  and  N8_37 
REMARK   12  A    between atoms: C15_40  and  O8_41 
ROOT
HETATM    1  C8  UNL     1      11.297 -14.809 -22.293  1.00  0.00     0.111 C 
HETATM    2  C9  UNL     1      10.193 -15.298 -22.955  1.00  0.00     0.096 C 
HETATM    3  C11 UNL     1      10.081 -16.569 -23.514  1.00  0.00     0.264 C 
HETATM    4  O6  UNL     1       9.074 -16.773 -24.216  1.00  0.00    -0.267 OA
HETATM    5  N5  UNL     1      10.920 -17.629 -23.403  1.00  0.00    -0.269 N 
HETATM    6  C12 UNL     1      10.715 -18.717 -24.333  1.00  0.00     0.164 C 
HETATM    7  C13 UNL     1      11.938 -17.793 -22.516  1.00  0.00     0.351 C 
HETATM    8  O7  UNL     1      12.344 -18.970 -22.395  1.00  0.00    -0.244 OA
HETATM    9  N6  UNL     1      12.569 -16.874 -21.753  1.00  0.00    -0.193 N 
HETATM   10  C14 UNL     1      12.370 -15.549 -21.784  1.00  0.00     0.154 C 
ENDROOT
BRANCH   1  11
HETATM   11  N4  UNL     1      11.328 -13.400 -22.119  1.00  0.00    -0.282 N 
HETATM   12  N3  UNL     1      10.971 -12.887 -21.039  1.00  0.00    -0.242 N 
ATOM     13  H3  UNL     1      10.663 -13.523 -20.304  1.00  0.00     0.208 HD
ATOM     14  H4  UNL     1      11.645 -12.802 -22.882  1.00  0.00     0.188 HD
BRANCH  12  15
HETATM   15  N2  UNL     1      10.956 -11.553 -20.751  1.00  0.00    -0.281 N 
ATOM     16  H2  UNL     1      11.560 -10.963 -21.323  1.00  0.00     0.188 HD
BRANCH  15  17
HETATM   17  C7  UNL     1      10.208 -10.894 -19.758  1.00  0.00     0.118 A 
HETATM   18  C6  UNL     1      10.536  -9.593 -19.409  1.00  0.00     0.097 A 
HETATM   19  C5  UNL     1       9.783  -8.930 -18.415  1.00  0.00     0.058 A 
HETATM   20  C3  UNL     1       8.739  -9.578 -17.807  1.00  0.00     0.068 A 
HETATM   21  C2  UNL     1       8.409 -10.862 -18.147  1.00  0.00     0.119 A 
HETATM   22  C15 UNL     1       9.139 -11.542 -19.130  1.00  0.00     0.131 A 
BRANCH  18  23
HETATM   23  O3  UNL     1      11.537  -8.870 -19.940  1.00  0.00    -0.358 OA
ATOM     24  H3  UNL     1      11.265  -8.080 -20.393  1.00  0.00     0.217 HD
ENDBRANCH  18  23
BRANCH  20  25
HETATM   25  C4  UNL     1       7.993  -8.824 -16.791  1.00  0.00     0.267 C 
HETATM   26  N1  UNL     1       6.821  -8.104 -17.134  1.00  0.00    -0.057 NA
HETATM   27  O2  UNL     1       8.382  -8.807 -15.609  1.00  0.00    -0.271 OA
ENDBRANCH  20  25
BRANCH  21  28
HETATM   28  O1  UNL     1       7.379 -11.534 -17.560  1.00  0.00    -0.352 OA
HETATM   29  C1  UNL     1       6.045 -11.522 -18.075  1.00  0.00     0.210 C 
ENDBRANCH  21  28
BRANCH  22  30
HETATM   30  O8  UNL     1       8.816 -12.820 -19.471  1.00  0.00    -0.356 OA
ATOM     31  H8  UNL     1       9.292 -13.270 -20.158  1.00  0.00     0.218 HD
ENDBRANCH  22  30
ENDBRANCH  15  17
ENDBRANCH  12  15
ENDBRANCH   1  11
BRANCH   2  32
HETATM   32  C10 UNL     1       9.009 -14.416 -23.096  1.00  0.00     0.296 C 
BRANCH  32  33
HETATM   33  O4  UNL     1       9.355 -13.228 -23.737  1.00  0.00    -0.367 OA
ATOM     34  H4  UNL     1       8.612 -12.636 -23.769  1.00  0.00     0.213 HD
ENDBRANCH  32  33
BRANCH  32  35
HETATM   35  O5  UNL     1       8.472 -14.075 -21.849  1.00  0.00    -0.367 OA
ATOM     36  H5  UNL     1       7.801 -13.407 -21.930  1.00  0.00     0.213 HD
ENDBRANCH  32  35
ENDBRANCH   2  32
BRANCH  10  37
HETATM   37  N8  UNL     1      13.301 -14.854 -21.275  1.00  0.00    -0.382 N 
ATOM     38  H82 UNL     1      12.994 -14.016 -20.783  1.00  0.00     0.157 HD
ATOM     39  H81 UNL     1      14.239 -15.225 -21.422  1.00  0.00     0.157 HD
ENDBRANCH  10  37
BRANCH   9  40
HETATM   40  N7  UNL     1      13.520 -17.306 -20.836  1.00  0.00    -0.333 N 
ATOM     41  H72 UNL     1      13.142 -17.682 -19.967  1.00  0.00     0.177 HD
ATOM     42  H71 UNL     1      14.507 -17.225 -21.078  1.00  0.00     0.177 HD
ENDBRANCH   9  40
TORSDOF 12
ENDMDL
MODEL 2
REMARK VINA RESULT: -7.987459520      1.319      1.420
REMARK  12 active torsions:
REMARK  status: ('A' for Active; 'I' for Inactive)
REMARK    1  A    between atoms: O1_2  and  C2_3 
REMARK    2  A    between atoms: C3_4  and  C4_5 
REMARK    3  A    between atoms: C6_9  and  O3_10 
REMARK    4  A    between atoms: C7_12  and  N2_13 
REMARK    5  A    between atoms: N2_13  and  N3_15 
REMARK    6  A    between atoms: N4_17  and  C8_19 
REMARK    7  A    between atoms: C9_20  and  C10_21 
REMARK    8  A    between atoms: C10_21  and  O4_22 
REMARK    9  A    between atoms: C10_21  and  O5_24 
REMARK   10  A    between atoms: N6_32  and  N7_33 
REMARK   11  A    between atoms: C14_36  and  N8_37 
REMARK   12  A    between atoms: C15_40  and  O8_41 
ROOT
HETATM    1  C8  UNL     1      11.129 -14.016 -21.689  1.00  0.00     0.111 C 
HETATM    2  C9  UNL     1      10.946 -14.501 -22.966  1.00  0.00     0.096 C 
HETATM    3  C11 UNL     1      11.620 -15.584 -23.525  1.00  0.00     0.264 C 
HETATM    4  O6  UNL     1      11.445 -15.770 -24.743  1.00  0.00    -0.267 OA
HETATM    5  N5  UNL     1      12.449 -16.477 -22.927  1.00  0.00    -0.269 N 
HETATM    6  C12 UNL     1      13.245 -17.306 -23.803  1.00  0.00     0.164 C 
HETATM    7  C13 UNL     1      12.621 -16.686 -21.594  1.00  0.00     0.351 C 
HETATM    8  O7  UNL     1      13.179 -17.766 -21.302  1.00  0.00    -0.244 OA
HETATM    9  N6  UNL     1      12.280 -15.900 -20.550  1.00  0.00    -0.193 N 
HETATM   10  C14 UNL     1      11.762 -14.667 -20.624  1.00  0.00     0.154 C 
ENDROOT
BRANCH   1  11
HETATM   11  N4  UNL     1      10.610 -12.716 -21.451  1.00  0.00    -0.282 N 
HETATM   12  N3  UNL     1      11.220 -11.915 -20.716  1.00  0.00    -0.242 N 
ATOM     13  H3  UNL     1      12.095 -12.240 -20.303  1.00  0.00     0.208 HD
ATOM     14  H4  UNL     1       9.730 -12.435 -21.886  1.00  0.00     0.188 HD
BRANCH  12  15
HETATM   15  N2  UNL     1      10.826 -10.644 -20.412  1.00  0.00    -0.281 N 
ATOM     16  H2  UNL     1      11.148  -9.911 -21.045  1.00  0.00     0.188 HD
BRANCH  15  17
HETATM   17  C7  UNL     1      10.030 -10.223 -19.331  1.00  0.00     0.118 A 
HETATM   18  C6  UNL     1      10.237  -8.968 -18.781  1.00  0.00     0.097 A 
HETATM   19  C5  UNL     1       9.435  -8.544 -17.698  1.00  0.00     0.058 A 
HETATM   20  C3  UNL     1       8.465  -9.376 -17.203  1.00  0.00     0.068 A 
HETATM   21  C2  UNL     1       8.254 -10.616 -17.743  1.00  0.00     0.119 A 
HETATM   22  C15 UNL     1       9.034 -11.060 -18.817  1.00  0.00     0.131 A 
BRANCH  18  23
HETATM   23  O3  UNL     1      11.159  -8.078 -19.187  1.00  0.00    -0.358 OA
ATOM     24  H3  UNL     1      11.026  -7.735 -20.063  1.00  0.00     0.217 HD
ENDBRANCH  18  23
BRANCH  20  25
HETATM   25  C4  UNL     1       7.661  -8.865 -16.085  1.00  0.00     0.267 C 
HETATM   26  N1  UNL     1       6.615  -7.935 -16.306  1.00  0.00    -0.057 NA
HETATM   27  O2  UNL     1       7.890  -9.244 -14.922  1.00  0.00    -0.271 OA
ENDBRANCH  20  25
BRANCH  21  28
HETATM   28  O1  UNL     1       7.299 -11.467 -17.273  1.00  0.00    -0.352 OA
HETATM   29  C1  UNL     1       5.949 -11.462 -17.746  1.00  0.00     0.210 C 
ENDBRANCH  21  28
BRANCH  22  30
HETATM   30  O8  UNL     1       8.830 -12.294 -19.357  1.00  0.00    -0.356 OA
ATOM     31  H8  UNL     1       9.563 -12.816 -19.658  1.00  0.00     0.218 HD
ENDBRANCH  22  30
ENDBRANCH  15  17
ENDBRANCH  12  15
ENDBRANCH   1  11
BRANCH   2  32
HETATM   32  C10 UNL     1       9.952 -13.829 -23.838  1.00  0.00     0.296 C 
BRANCH  32  33
HETATM   33  O4  UNL     1      10.197 -12.459 -23.898  1.00  0.00    -0.367 OA
ATOM     34  H4  UNL     1      10.364 -12.187 -24.793  1.00  0.00     0.213 HD
ENDBRANCH  32  33
BRANCH  32  35
HETATM   35  O5  UNL     1       8.649 -13.999 -23.356  1.00  0.00    -0.367 OA
ATOM     36  H5  UNL     1       8.102 -13.249 -23.560  1.00  0.00     0.213 HD
ENDBRANCH  32  35
ENDBRANCH   2  32
BRANCH  10  37
HETATM   37  N8  UNL     1      11.862 -13.977 -19.565  1.00  0.00    -0.382 N 
ATOM     38  H82 UNL     1      11.267 -13.149 -19.531  1.00  0.00     0.157 HD
ATOM     39  H81 UNL     1      12.525 -14.340 -18.880  1.00  0.00     0.157 HD
ENDBRANCH  10  37
BRANCH   9  40
HETATM   40  N7  UNL     1      12.468 -16.383 -19.261  1.00  0.00    -0.333 N 
ATOM     41  H72 UNL     1      12.561 -17.396 -19.188  1.00  0.00     0.177 HD
ATOM     42  H71 UNL     1      12.502 -15.719 -18.488  1.00  0.00     0.177 HD
ENDBRANCH   9  40
TORSDOF 12
ENDMDL
MODEL 3
REMARK VINA RESULT: -7.871410456      1.777      2.739
REMARK  12 active torsions:
REMARK  status: ('A' for Active; 'I' for Inactive)
REMARK    1  A    between atoms: O1_2  and  C2_3 
REMARK    2  A    between atoms: C3_4  and  C4_5 
REMARK    3  A    between atoms: C6_9  and  O3_10 
REMARK    4  A    between atoms: C7_12  and  N2_13 
REMARK    5  A    between atoms: N2_13  and  N3_15 
REMARK    6  A    between atoms: N4_17  and  C8_19 
REMARK    7  A    between atoms: C9_20  and  C10_21 
REMARK    8  A    between atoms: C10_21  and  O4_22 
REMARK    9  A    between atoms: C10_21  and  O5_24 
REMARK   10  A    between atoms: N6_32  and  N7_33 
REMARK   11  A    between atoms: C14_36  and  N8_37 
REMARK   12  A    between atoms: C15_40  and  O8_41 
ROOT
HETATM    1  C8  UNL     1      10.013 -14.698 -22.313  1.00  0.00     0.111 C 
HETATM    2  C9  UNL     1      10.937 -15.220 -23.191  1.00  0.00     0.096 C 
HETATM    3  C11 UNL     1      10.752 -16.349 -23.986  1.00  0.00     0.264 C 
HETATM    4  O6  UNL     1      11.757 -16.766 -24.589  1.00  0.00    -0.267 OA
HETATM    5  N5  UNL     1       9.621 -17.068 -24.200  1.00  0.00    -0.269 N 
HETATM    6  C12 UNL     1       9.787 -18.363 -24.822  1.00  0.00     0.164 C 
HETATM    7  C13 UNL     1       8.344 -16.715 -23.897  1.00  0.00     0.351 C 
HETATM    8  O7  UNL     1       7.463 -17.385 -24.481  1.00  0.00    -0.244 OA
HETATM    9  N6  UNL     1       7.892 -15.754 -23.063  1.00  0.00    -0.193 N 
HETATM   10  C14 UNL     1       8.643 -14.982 -22.266  1.00  0.00     0.154 C 
ENDROOT
BRANCH   1  11
HETATM   11  N4  UNL     1      10.527 -13.775 -21.365  1.00  0.00    -0.282 N 
HETATM   12  N3  UNL     1      10.394 -12.547 -21.541  1.00  0.00    -0.242 N 
ATOM     13  H3  UNL     1       9.905 -12.250 -22.385  1.00  0.00     0.208 HD
ATOM     14  H4  UNL     1      11.009 -14.118 -20.534  1.00  0.00     0.188 HD
BRANCH  12  15
HETATM   15  N2  UNL     1      10.841 -11.564 -20.706  1.00  0.00    -0.281 N 
ATOM     16  H2  UNL     1      11.823 -11.305 -20.803  1.00  0.00     0.188 HD
BRANCH  15  17
HETATM   17  C7  UNL     1      10.110 -10.866 -19.727  1.00  0.00     0.118 A 
HETATM   18  C6  UNL     1      10.431  -9.545 -19.451  1.00  0.00     0.097 A 
HETATM   19  C5  UNL     1       9.695  -8.843 -18.470  1.00  0.00     0.058 A 
HETATM   20  C3  UNL     1       8.677  -9.472 -17.803  1.00  0.00     0.068 A 
HETATM   21  C2  UNL     1       8.355 -10.776 -18.071  1.00  0.00     0.119 A 
HETATM   22  C15 UNL     1       9.068 -11.494 -19.038  1.00  0.00     0.131 A 
BRANCH  18  23
HETATM   23  O3  UNL     1      11.408  -8.837 -20.044  1.00  0.00    -0.358 OA
ATOM     24  H3  UNL     1      11.361  -8.805 -20.992  1.00  0.00     0.217 HD
ENDBRANCH  18  23
BRANCH  20  25
HETATM   25  C4  UNL     1       7.948  -8.678 -16.806  1.00  0.00     0.267 C 
HETATM   26  N1  UNL     1       6.762  -7.985 -17.153  1.00  0.00    -0.057 NA
HETATM   27  O2  UNL     1       8.365  -8.602 -15.635  1.00  0.00    -0.271 OA
ENDBRANCH  20  25
BRANCH  21  28
HETATM   28  O1  UNL     1       7.350 -11.430 -17.424  1.00  0.00    -0.352 OA
HETATM   29  C1  UNL     1       6.008 -11.483 -17.917  1.00  0.00     0.210 C 
ENDBRANCH  21  28
BRANCH  22  30
HETATM   30  O8  UNL     1       8.752 -12.792 -19.308  1.00  0.00    -0.356 OA
ATOM     31  H8  UNL     1       8.101 -13.247 -18.788  1.00  0.00     0.218 HD
ENDBRANCH  22  30
ENDBRANCH  15  17
ENDBRANCH  12  15
ENDBRANCH   1  11
BRANCH   2  32
HETATM   32  C10 UNL     1      12.249 -14.539 -23.319  1.00  0.00     0.296 C 
BRANCH  32  33
HETATM   33  O4  UNL     1      12.968 -14.629 -22.129  1.00  0.00    -0.367 OA
ATOM     34  H4  UNL     1      13.620 -13.940 -22.079  1.00  0.00     0.213 HD
ENDBRANCH  32  33
BRANCH  32  35
HETATM   35  O5  UNL     1      12.093 -13.178 -23.611  1.00  0.00    -0.367 OA
ATOM     36  H5  UNL     1      11.901 -12.675 -22.829  1.00  0.00     0.213 HD
ENDBRANCH  32  35
ENDBRANCH   2  32
BRANCH  10  37
HETATM   37  N8  UNL     1       8.018 -14.422 -21.316  1.00  0.00    -0.382 N 
ATOM     38  H82 UNL     1       8.103 -13.406 -21.283  1.00  0.00     0.157 HD
ATOM     39  H81 UNL     1       7.506 -15.059 -20.706  1.00  0.00     0.157 HD
ENDBRANCH  10  37
BRANCH   9  40
HETATM   40  N7  UNL     1       6.526 -15.512 -22.999  1.00  0.00    -0.333 N 
ATOM     41  H72 UNL     1       6.263 -14.529 -22.943  1.00  0.00     0.177 HD
ATOM     42  H71 UNL     1       5.885 -16.306 -23.013  1.00  0.00     0.177 HD
ENDBRANCH   9  40
TORSDOF 12
ENDMDL
MODEL 4
REMARK VINA RESULT: -7.731040244      1.584      2.543
REMARK  12 active torsions:
REMARK  status: ('A' for Active; 'I' for Inactive)
REMARK    1  A    between atoms: O1_2  and  C2_3 
REMARK    2  A    between atoms: C3_4  and  C4_5 
REMARK    3  A    between atoms: C6_9  and  O3_10 
REMARK    4  A    between atoms: C7_12  and  N2_13 
REMARK    5  A    between atoms: N2_13  and  N3_15 
REMARK    6  A    between atoms: N4_17  and  C8_19 
REMARK    7  A    between atoms: C9_20  and  C10_21 
REMARK    8  A    between atoms: C10_21  and  O4_22 
REMARK    9  A    between atoms: C10_21  and  O5_24 
REMARK   10  A    between atoms: N6_32  and  N7_33 
REMARK   11  A    between atoms: C14_36  and  N8_37 
REMARK   12  A    between atoms: C15_40  and  O8_41 
ROOT
HETATM    1  C8  UNL     1      11.411 -14.737 -22.028  1.00  0.00     0.111 C 
HETATM    2  C9  UNL     1      11.683 -15.703 -21.083  1.00  0.00     0.096 C 
HETATM    3  C11 UNL     1      11.244 -17.024 -21.127  1.00  0.00     0.264 C 
HETATM    4  O6  UNL     1      11.447 -17.704 -20.104  1.00  0.00    -0.267 OA
HETATM    5  N5  UNL     1      10.619 -17.685 -22.134  1.00  0.00    -0.269 N 
HETATM    6  C12 UNL     1      10.007 -18.950 -21.794  1.00  0.00     0.164 C 
HETATM    7  C13 UNL     1      10.501 -17.299 -23.432  1.00  0.00     0.351 C 
HETATM    8  O7  UNL     1      10.178 -18.213 -24.223  1.00  0.00    -0.244 OA
HETATM    9  N6  UNL     1      10.678 -16.080 -23.986  1.00  0.00    -0.193 N 
HETATM   10  C14 UNL     1      10.931 -14.941 -23.326  1.00  0.00     0.154 C 
ENDROOT
BRANCH   1  11
HETATM   11  N4  UNL     1      11.652 -13.400 -21.617  1.00  0.00    -0.282 N 
HETATM   12  N3  UNL     1      10.729 -12.705 -21.148  1.00  0.00    -0.242 N 
ATOM     13  H3  UNL     1       9.810 -13.142 -21.077  1.00  0.00     0.208 HD
ATOM     14  H4  UNL     1      12.588 -13.004 -21.707  1.00  0.00     0.188 HD
BRANCH  12  15
HETATM   15  N2  UNL     1      10.834 -11.413 -20.720  1.00  0.00    -0.281 N 
ATOM     16  H2  UNL     1      11.521 -10.834 -21.204  1.00  0.00     0.188 HD
BRANCH  15  17
HETATM   17  C7  UNL     1      10.109 -10.784 -19.691  1.00  0.00     0.118 A 
HETATM   18  C6  UNL     1      10.454  -9.498 -19.303  1.00  0.00     0.097 A 
HETATM   19  C5  UNL     1       9.724  -8.865 -18.273  1.00  0.00     0.058 A 
HETATM   20  C3  UNL     1       8.687  -9.526 -17.669  1.00  0.00     0.068 A 
HETATM   21  C2  UNL     1       8.340 -10.795 -18.047  1.00  0.00     0.119 A 
HETATM   22  C15 UNL     1       9.047 -11.445 -19.067  1.00  0.00     0.131 A 
BRANCH  18  23
HETATM   23  O3  UNL     1      11.451  -8.764 -19.826  1.00  0.00    -0.358 OA
ATOM     24  H3  UNL     1      12.314  -8.952 -19.477  1.00  0.00     0.217 HD
ENDBRANCH  18  23
BRANCH  20  25
HETATM   25  C4  UNL     1       7.965  -8.802 -16.614  1.00  0.00     0.267 C 
HETATM   26  N1  UNL     1       6.792  -8.063 -16.910  1.00  0.00    -0.057 NA
HETATM   27  O2  UNL     1       8.375  -8.829 -15.439  1.00  0.00    -0.271 OA
ENDBRANCH  20  25
BRANCH  21  28
HETATM   28  O1  UNL     1       7.315 -11.479 -17.466  1.00  0.00    -0.352 OA
HETATM   29  C1  UNL     1       5.973 -11.442 -17.958  1.00  0.00     0.210 C 
ENDBRANCH  21  28
BRANCH  22  30
HETATM   30  O8  UNL     1       8.707 -12.708 -19.446  1.00  0.00    -0.356 OA
ATOM     31  H8  UNL     1       8.113 -12.849 -20.173  1.00  0.00     0.218 HD
ENDBRANCH  22  30
ENDBRANCH  15  17
ENDBRANCH  12  15
ENDBRANCH   1  11
BRANCH   2  32
HETATM   32  C10 UNL     1      12.513 -15.328 -19.912  1.00  0.00     0.296 C 
BRANCH  32  33
HETATM   33  O4  UNL     1      11.847 -14.400 -19.115  1.00  0.00    -0.367 OA
ATOM     34  H4  UNL     1      11.807 -14.699 -18.214  1.00  0.00     0.213 HD
ENDBRANCH  32  33
BRANCH  32  35
HETATM   35  O5  UNL     1      13.724 -14.746 -20.307  1.00  0.00    -0.367 OA
ATOM     36  H5  UNL     1      14.173 -15.282 -20.951  1.00  0.00     0.213 HD
ENDBRANCH  32  35
ENDBRANCH   2  32
BRANCH  10  37
HETATM   37  N8  UNL     1      10.696 -13.879 -23.978  1.00  0.00    -0.382 N 
ATOM     38  H82 UNL     1      11.443 -13.583 -24.605  1.00  0.00     0.157 HD
ATOM     39  H81 UNL     1       9.787 -13.457 -23.792  1.00  0.00     0.157 HD
ENDBRANCH  10  37
BRANCH   9  40
HETATM   40  N7  UNL     1      10.600 -15.955 -25.367  1.00  0.00    -0.333 N 
ATOM     41  H72 UNL     1       9.655 -15.964 -25.749  1.00  0.00     0.177 HD
ATOM     42  H71 UNL     1      11.464 -15.864 -25.902  1.00  0.00     0.177 HD
ENDBRANCH   9  40
TORSDOF 12
ENDMDL
MODEL 5
REMARK VINA RESULT: -7.443381168      1.692      2.051
REMARK  12 active torsions:
REMARK  status: ('A' for Active; 'I' for Inactive)
REMARK    1  A    between atoms: O1_2  and  C2_3 
REMARK    2  A    between atoms: C3_4  and  C4_5 
REMARK    3  A    between atoms: C6_9  and  O3_10 
REMARK    4  A    between atoms: C7_12  and  N2_13 
REMARK    5  A    between atoms: N2_13  and  N3_15 
REMARK    6  A    between atoms: N4_17  and  C8_19 
REMARK    7  A    between atoms: C9_20  and  C10_21 
REMARK    8  A    between atoms: C10_21  and  O4_22 
REMARK    9  A    between atoms: C10_21  and  O5_24 
REMARK   10  A    between atoms: N6_32  and  N7_33 
REMARK   11  A    between atoms: C14_36  and  N8_37 
REMARK   12  A    between atoms: C15_40  and  O8_41 
ROOT
HETATM    1  C8  UNL     1      11.252 -13.810 -21.072  1.00  0.00     0.111 C 
HETATM    2  C9  UNL     1      10.746 -14.153 -22.307  1.00  0.00     0.096 C 
HETATM    3  C11 UNL     1      11.083 -15.294 -23.032  1.00  0.00     0.264 C 
HETATM    4  O6  UNL     1      10.653 -15.350 -24.198  1.00  0.00    -0.267 OA
HETATM    5  N5  UNL     1      11.821 -16.365 -22.647  1.00  0.00    -0.269 N 
HETATM    6  C12 UNL     1      12.265 -17.254 -23.696  1.00  0.00     0.164 C 
HETATM    7  C13 UNL     1      12.194 -16.705 -21.384  1.00  0.00     0.351 C 
HETATM    8  O7  UNL     1      12.578 -17.888 -21.252  1.00  0.00    -0.244 OA
HETATM    9  N6  UNL     1      12.210 -15.955 -20.261  1.00  0.00    -0.193 N 
HETATM   10  C14 UNL     1      11.935 -14.645 -20.181  1.00  0.00     0.154 C 
ENDROOT
BRANCH   1  11
HETATM   11  N4  UNL     1      11.047 -12.460 -20.684  1.00  0.00    -0.282 N 
HETATM   12  N3  UNL     1      10.185 -12.171 -19.830  1.00  0.00    -0.242 N 
ATOM     13  H3  UNL     1       9.647 -12.943 -19.435  1.00  0.00     0.208 HD
ATOM     14  H4  UNL     1      11.609 -11.720 -21.106  1.00  0.00     0.188 HD
BRANCH  12  15
HETATM   15  N2  UNL     1       9.895 -10.918 -19.375  1.00  0.00    -0.281 N 
ATOM     16  H2  UNL     1      10.578 -10.192 -19.592  1.00  0.00     0.188 HD
BRANCH  15  17
HETATM   17  C7  UNL     1       8.766 -10.506 -18.642  1.00  0.00     0.118 A 
HETATM   18  C6  UNL     1       8.803  -9.304 -17.952  1.00  0.00     0.097 A 
HETATM   19  C5  UNL     1       7.669  -8.889 -17.219  1.00  0.00     0.058 A 
HETATM   20  C3  UNL     1       6.548  -9.676 -17.197  1.00  0.00     0.068 A 
HETATM   21  C2  UNL     1       6.504 -10.864 -17.876  1.00  0.00     0.119 A 
HETATM   22  C15 UNL     1       7.614 -11.298 -18.611  1.00  0.00     0.131 A 
BRANCH  18  23
HETATM   23  O3  UNL     1       9.849  -8.460 -17.907  1.00  0.00    -0.358 OA
ATOM     24  H3  UNL     1      10.393  -8.537 -17.132  1.00  0.00     0.217 HD
ENDBRANCH  18  23
BRANCH  20  25
HETATM   25  C4  UNL     1       5.403  -9.177 -16.425  1.00  0.00     0.267 C 
HETATM   26  N1  UNL     1       4.345  -8.480 -17.060  1.00  0.00    -0.057 NA
HETATM   27  O2  UNL     1       5.346  -9.360 -15.195  1.00  0.00    -0.271 OA
ENDBRANCH  20  25
BRANCH  21  28
HETATM   28  O1  UNL     1       5.406 -11.670 -17.873  1.00  0.00    -0.352 OA
HETATM   29  C1  UNL     1       5.064 -12.520 -16.774  1.00  0.00     0.210 C 
ENDBRANCH  21  28
BRANCH  22  30
HETATM   30  O8  UNL     1       7.576 -12.480 -19.288  1.00  0.00    -0.356 OA
ATOM     31  H8  UNL     1       6.816 -12.713 -19.807  1.00  0.00     0.218 HD
ENDBRANCH  22  30
ENDBRANCH  15  17
ENDBRANCH  12  15
ENDBRANCH   1  11
BRANCH   2  32
HETATM   32  C10 UNL     1       9.756 -13.246 -22.938  1.00  0.00     0.296 C 
BRANCH  32  33
HETATM   33  O4  UNL     1       8.737 -13.977 -23.544  1.00  0.00    -0.367 OA
ATOM     34  H4  UNL     1       8.823 -14.902 -23.345  1.00  0.00     0.213 HD
ENDBRANCH  32  33
BRANCH  32  35
HETATM   35  O5  UNL     1      10.346 -12.453 -23.929  1.00  0.00    -0.367 OA
ATOM     36  H5  UNL     1      11.099 -11.979 -23.593  1.00  0.00     0.213 HD
ENDBRANCH  32  35
ENDBRANCH   2  32
BRANCH  10  37
HETATM   37  N8  UNL     1      12.361 -14.070 -19.135  1.00  0.00    -0.382 N 
ATOM     38  H82 UNL     1      12.133 -13.079 -19.064  1.00  0.00     0.157 HD
ATOM     39  H81 UNL     1      12.877 -14.674 -18.495  1.00  0.00     0.157 HD
ENDBRANCH  10  37
BRANCH   9  40
HETATM   40  N7  UNL     1      12.537 -16.562 -19.056  1.00  0.00    -0.333 N 
ATOM     41  H72 UNL     1      11.970 -17.374 -18.813  1.00  0.00     0.177 HD
ATOM     42  H71 UNL     1      13.301 -16.175 -18.502  1.00  0.00     0.177 HD
ENDBRANCH   9  40
TORSDOF 12
ENDMDL
