MODEL 1
REMARK VINA RESULT: -5.898574618      0.000      0.000
REMARK  5 active torsions:
REMARK  status: ('A' for Active; 'I' for Inactive)
REMARK    1  A    between atoms: N1_1  and  C1_5 
REMARK    2  A    between atoms: C1_5  and  N2_6 
REMARK    3  A    between atoms: C1_5  and  C2_10 
REMARK    4  A    between atoms: C2_10  and  C3_11 
REMARK    5  A    between atoms: C3_11  and  C4_12 
ROOT
HETATM    1  C3  UNL     1     -24.467   8.116  12.069  1.00  0.00     0.082 C 
ENDROOT
BRANCH   1   2
HETATM    2  C2  UNL     1     -23.499   7.091  12.577  1.00  0.00     0.069 C 
BRANCH   2   3
HETATM    3  C1  UNL     1     -22.990   6.328  11.349  1.00  0.00     0.378 C 
BRANCH   3   4
HETATM    4  N1  UNL     1     -22.550   5.055  11.786  1.00  0.00    -0.051 N 
ATOM      5  H13 UNL     1     -23.243   4.348  11.544  1.00  0.00     0.276 HD
ATOM      6  H12 UNL     1     -21.765   4.746  11.213  1.00  0.00     0.276 HD
ATOM      7  H11 UNL     1     -22.307   4.977  12.774  1.00  0.00     0.276 HD
ENDBRANCH   3   4
BRANCH   3   8
HETATM    8  N2  UNL     1     -22.014   7.145  10.711  1.00  0.00    -0.051 N 
ATOM      9  H23 UNL     1     -21.086   6.748  10.853  1.00  0.00     0.276 HD
ATOM     10  H22 UNL     1     -22.099   7.057   9.699  1.00  0.00     0.276 HD
ATOM     11  H21 UNL     1     -22.012   8.131  10.973  1.00  0.00     0.276 HD
ENDBRANCH   3   8
ENDBRANCH   2   3
ENDBRANCH   1   2
BRANCH   1  12
HETATM   12  C4  UNL     1     -25.643   8.311  12.926  1.00  0.00     0.108 C 
HETATM   13  N3  UNL     1     -26.090   9.504  13.126  1.00  0.00    -0.291 N 
HETATM   14  N4  UNL     1     -27.184   9.951  13.893  1.00  0.00    -0.319 N 
ATOM     15  H3  UNL     1     -25.569  10.241  12.653  1.00  0.00     0.188 HD
HETATM   16  C5  UNL     1     -27.927   9.142  14.853  1.00  0.00     0.271 C 
ATOM     17  H4  UNL     1     -27.481  10.919  13.767  1.00  0.00     0.181 HD
HETATM   18  N5  UNL     1     -27.123   8.051  15.369  1.00  0.00    -0.105 NA
HETATM   19  N6  UNL     1     -27.140   6.936  14.497  1.00  0.00    -0.029 NA
HETATM   20  N7  UNL     1     -26.194   7.119  13.474  1.00  0.00    -0.275 N 
ATOM     21  H7  UNL     1     -25.847   6.256  13.055  1.00  0.00     0.185 HD
ENDBRANCH   1  12
TORSDOF 5
ENDMDL
MODEL 2
REMARK VINA RESULT: -5.897513161      0.814      1.150
REMARK  5 active torsions:
REMARK  status: ('A' for Active; 'I' for Inactive)
REMARK    1  A    between atoms: N1_1  and  C1_5 
REMARK    2  A    between atoms: C1_5  and  N2_6 
REMARK    3  A    between atoms: C1_5  and  C2_10 
REMARK    4  A    between atoms: C2_10  and  C3_11 
REMARK    5  A    between atoms: C3_11  and  C4_12 
ROOT
HETATM    1  C3  UNL     1     -24.702   8.487  12.255  1.00  0.00     0.082 C 
ENDROOT
BRANCH   1   2
HETATM    2  C2  UNL     1     -24.141   7.099  12.206  1.00  0.00     0.069 C 
BRANCH   2   3
HETATM    3  C1  UNL     1     -22.616   7.245  12.266  1.00  0.00     0.378 C 
BRANCH   3   4
HETATM    4  N1  UNL     1     -22.114   7.051  10.956  1.00  0.00    -0.051 N 
ATOM      5  H13 UNL     1     -22.839   7.269  10.272  1.00  0.00     0.276 HD
ATOM      6  H12 UNL     1     -21.431   7.776  10.737  1.00  0.00     0.276 HD
ATOM      7  H11 UNL     1     -21.717   6.132  10.757  1.00  0.00     0.276 HD
ENDBRANCH   3   4
BRANCH   3   8
HETATM    8  N2  UNL     1     -22.139   6.346  13.260  1.00  0.00    -0.051 N 
ATOM      9  H23 UNL     1     -22.476   5.404  13.064  1.00  0.00     0.276 HD
ATOM     10  H22 UNL     1     -21.135   6.209  13.148  1.00  0.00     0.276 HD
ATOM     11  H21 UNL     1     -22.348   6.593  14.228  1.00  0.00     0.276 HD
ENDBRANCH   3   8
ENDBRANCH   2   3
ENDBRANCH   1   2
BRANCH   1  12
HETATM   12  C4  UNL     1     -25.874   8.632  13.129  1.00  0.00     0.108 C 
HETATM   13  N3  UNL     1     -26.387   9.802  13.311  1.00  0.00    -0.291 N 
HETATM   14  N4  UNL     1     -27.492  10.202  14.087  1.00  0.00    -0.319 N 
ATOM     15  H3  UNL     1     -25.917  10.558  12.813  1.00  0.00     0.188 HD
HETATM   16  C5  UNL     1     -28.171   9.372  15.077  1.00  0.00     0.271 C 
ATOM     17  H4  UNL     1     -27.846  11.148  13.946  1.00  0.00     0.181 HD
HETATM   18  N5  UNL     1     -27.296   8.342  15.602  1.00  0.00    -0.105 NA
HETATM   19  N6  UNL     1     -27.263   7.209  14.755  1.00  0.00    -0.029 NA
HETATM   20  N7  UNL     1     -26.346   7.423  13.711  1.00  0.00    -0.275 N 
ATOM     21  H7  UNL     1     -25.956   6.573  13.304  1.00  0.00     0.185 HD
ENDBRANCH   1  12
TORSDOF 5
ENDMDL
MODEL 3
REMARK VINA RESULT: -5.840885896      0.963      1.039
REMARK  5 active torsions:
REMARK  status: ('A' for Active; 'I' for Inactive)
REMARK    1  A    between atoms: N1_1  and  C1_5 
REMARK    2  A    between atoms: C1_5  and  N2_6 
REMARK    3  A    between atoms: C1_5  and  C2_10 
REMARK    4  A    between atoms: C2_10  and  C3_11 
REMARK    5  A    between atoms: C3_11  and  C4_12 
ROOT
HETATM    1  C3  UNL     1     -23.711   8.182  12.231  1.00  0.00     0.082 C 
ENDROOT
BRANCH   1   2
HETATM    2  C2  UNL     1     -23.598   6.870  11.518  1.00  0.00     0.069 C 
BRANCH   2   3
HETATM    3  C1  UNL     1     -22.286   6.232  11.988  1.00  0.00     0.378 C 
BRANCH   3   4
HETATM    4  N1  UNL     1     -22.300   4.874  11.586  1.00  0.00    -0.051 N 
ATOM      5  H13 UNL     1     -21.472   4.399  11.944  1.00  0.00     0.276 HD
ATOM      6  H12 UNL     1     -23.032   4.373  12.091  1.00  0.00     0.276 HD
ATOM      7  H11 UNL     1     -22.391   4.701  10.585  1.00  0.00     0.276 HD
ENDBRANCH   3   4
BRANCH   3   8
HETATM    8  N2  UNL     1     -22.168   6.472  13.385  1.00  0.00    -0.051 N 
ATOM      9  H23 UNL     1     -22.952   7.041  13.705  1.00  0.00     0.276 HD
ATOM     10  H22 UNL     1     -22.345   5.610  13.899  1.00  0.00     0.276 HD
ATOM     11  H21 UNL     1     -21.291   6.887  13.698  1.00  0.00     0.276 HD
ENDBRANCH   3   8
ENDBRANCH   2   3
ENDBRANCH   1   2
BRANCH   1  12
HETATM   12  C4  UNL     1     -25.020   8.419  12.853  1.00  0.00     0.108 C 
HETATM   13  N3  UNL     1     -25.440   9.629  13.005  1.00  0.00    -0.291 N 
HETATM   14  N4  UNL     1     -26.639  10.115  13.564  1.00  0.00    -0.319 N 
ATOM     15  H3  UNL     1     -24.802  10.349  12.667  1.00  0.00     0.188 HD
HETATM   16  C5  UNL     1     -27.591   9.323  14.334  1.00  0.00     0.271 C 
ATOM     17  H4  UNL     1     -26.858  11.101  13.418  1.00  0.00     0.181 HD
HETATM   18  N5  UNL     1     -26.956   8.178  14.957  1.00  0.00    -0.105 NA
HETATM   19  N6  UNL     1     -26.857   7.088  14.059  1.00  0.00    -0.029 NA
HETATM   20  N7  UNL     1     -25.724   7.245  13.242  1.00  0.00    -0.275 N 
ATOM     21  H7  UNL     1     -25.344   6.376  12.868  1.00  0.00     0.185 HD
ENDBRANCH   1  12
TORSDOF 5
ENDMDL
MODEL 4
REMARK VINA RESULT: -5.650672563      0.564      1.134
REMARK  5 active torsions:
REMARK  status: ('A' for Active; 'I' for Inactive)
REMARK    1  A    between atoms: N1_1  and  C1_5 
REMARK    2  A    between atoms: C1_5  and  N2_6 
REMARK    3  A    between atoms: C1_5  and  C2_10 
REMARK    4  A    between atoms: C2_10  and  C3_11 
REMARK    5  A    between atoms: C3_11  and  C4_12 
ROOT
HETATM    1  C3  UNL     1     -23.906   7.844  12.082  1.00  0.00     0.082 C 
ENDROOT
BRANCH   1   2
HETATM    2  C2  UNL     1     -22.945   7.010  12.873  1.00  0.00     0.069 C 
BRANCH   2   3
HETATM    3  C1  UNL     1     -22.030   6.318  11.856  1.00  0.00     0.378 C 
BRANCH   3   4
HETATM    4  N1  UNL     1     -22.046   7.090  10.668  1.00  0.00    -0.051 N 
ATOM      5  H13 UNL     1     -21.162   6.980  10.173  1.00  0.00     0.276 HD
ATOM      6  H12 UNL     1     -22.688   6.674   9.994  1.00  0.00     0.276 HD
ATOM      7  H11 UNL     1     -22.258   8.082  10.780  1.00  0.00     0.276 HD
ENDBRANCH   3   4
BRANCH   3   8
HETATM    8  N2  UNL     1     -22.468   4.969  11.733  1.00  0.00    -0.051 N 
ATOM      9  H23 UNL     1     -22.816   4.637  12.632  1.00  0.00     0.276 HD
ATOM     10  H22 UNL     1     -23.324   4.934  11.180  1.00  0.00     0.276 HD
ATOM     11  H21 UNL     1     -21.788   4.308  11.359  1.00  0.00     0.276 HD
ENDBRANCH   3   8
ENDBRANCH   2   3
ENDBRANCH   1   2
BRANCH   1  12
HETATM   12  C4  UNL     1     -25.156   8.154  12.787  1.00  0.00     0.108 C 
HETATM   13  N3  UNL     1     -25.528   9.383  12.904  1.00  0.00    -0.291 N 
HETATM   14  N4  UNL     1     -26.667   9.936  13.524  1.00  0.00    -0.319 N 
ATOM     15  H3  UNL     1     -24.899  10.064  12.480  1.00  0.00     0.188 HD
HETATM   16  C5  UNL     1     -27.579   9.216  14.405  1.00  0.00     0.271 C 
ATOM     17  H4  UNL     1     -26.869  10.919  13.341  1.00  0.00     0.181 HD
HETATM   18  N5  UNL     1     -26.930   8.085  15.040  1.00  0.00    -0.105 NA
HETATM   19  N6  UNL     1     -26.932   6.947  14.198  1.00  0.00    -0.029 NA
HETATM   20  N7  UNL     1     -25.860   7.025  13.291  1.00  0.00    -0.275 N 
ATOM     21  H7  UNL     1     -25.535   6.126  12.936  1.00  0.00     0.185 HD
ENDBRANCH   1  12
TORSDOF 5
ENDMDL
MODEL 5
REMARK VINA RESULT: -5.595293501      1.264      2.357
REMARK  5 active torsions:
REMARK  status: ('A' for Active; 'I' for Inactive)
REMARK    1  A    between atoms: N1_1  and  C1_5 
REMARK    2  A    between atoms: C1_5  and  N2_6 
REMARK    3  A    between atoms: C1_5  and  C2_10 
REMARK    4  A    between atoms: C2_10  and  C3_11 
REMARK    5  A    between atoms: C3_11  and  C4_12 
ROOT
HETATM    1  C3  UNL     1     -23.699   7.149  11.456  1.00  0.00     0.082 C 
ENDROOT
BRANCH   1   2
HETATM    2  C2  UNL     1     -22.255   7.402  11.761  1.00  0.00     0.069 C 
BRANCH   2   3
HETATM    3  C1  UNL     1     -21.693   6.089  12.319  1.00  0.00     0.378 C 
BRANCH   3   4
HETATM    4  N1  UNL     1     -22.398   5.024  11.707  1.00  0.00    -0.051 N 
ATOM      5  H13 UNL     1     -23.402   5.175  11.801  1.00  0.00     0.276 HD
ATOM      6  H12 UNL     1     -22.298   5.082  10.694  1.00  0.00     0.276 HD
ATOM      7  H11 UNL     1     -22.158   4.085  12.024  1.00  0.00     0.276 HD
ENDBRANCH   3   4
BRANCH   3   8
HETATM    8  N2  UNL     1     -21.771   6.159  13.739  1.00  0.00    -0.051 N 
ATOM      9  H23 UNL     1     -21.524   5.256  14.142  1.00  0.00     0.276 HD
ATOM     10  H22 UNL     1     -21.009   6.735  14.097  1.00  0.00     0.276 HD
ATOM     11  H21 UNL     1     -22.658   6.479  14.125  1.00  0.00     0.276 HD
ENDBRANCH   3   8
ENDBRANCH   2   3
ENDBRANCH   1   2
BRANCH   1  12
HETATM   12  C4  UNL     1     -24.634   7.848  12.348  1.00  0.00     0.108 C 
HETATM   13  N3  UNL     1     -25.504   7.166  13.013  1.00  0.00    -0.291 N 
HETATM   14  N4  UNL     1     -26.495   7.590  13.920  1.00  0.00    -0.319 N 
ATOM     15  H3  UNL     1     -25.468   6.159  12.858  1.00  0.00     0.188 HD
HETATM   16  C5  UNL     1     -26.916   8.972  14.123  1.00  0.00     0.271 C 
ATOM     17  H4  UNL     1     -26.956   6.873  14.480  1.00  0.00     0.181 HD
HETATM   18  N5  UNL     1     -26.659   9.787  12.951  1.00  0.00    -0.105 NA
HETATM   19  N6  UNL     1     -25.323  10.254  12.926  1.00  0.00    -0.029 NA
HETATM   20  N7  UNL     1     -24.483   9.262  12.393  1.00  0.00    -0.275 N 
ATOM     21  H7  UNL     1     -23.624   9.613  11.968  1.00  0.00     0.185 HD
ENDBRANCH   1  12
TORSDOF 5
ENDMDL
