MODEL 1
REMARK VINA RESULT: -5.948448372      0.000      0.000
REMARK  5 active torsions:
REMARK  status: ('A' for Active; 'I' for Inactive)
REMARK    1  A    between atoms: C2_3  and  N2_4 
REMARK    2  A    between atoms: C2_3  and  C3_8 
REMARK    3  A    between atoms: C3_8  and  C4_9 
REMARK    4  A    between atoms: C4_9  and  S1_10 
REMARK    5  A    between atoms: S1_10  and  C5_11 
ROOT
HETATM    1  N1  UNL     1     -20.870   6.447  12.972  1.00  0.00    -0.195 NA
HETATM    2  C1  UNL     1     -21.903   6.740  12.531  1.00  0.00     0.092 C 
HETATM    3  C2  UNL     1     -23.220   7.112  11.994  1.00  0.00     0.289 C 
ENDROOT
BRANCH   3   4
HETATM    4  N2  UNL     1     -24.207   6.274  12.616  1.00  0.00    -0.063 N 
ATOM      5  H23 UNL     1     -23.803   5.445  13.051  1.00  0.00     0.275 HD
ATOM      6  H22 UNL     1     -24.604   6.690  13.458  1.00  0.00     0.275 HD
ATOM      7  H21 UNL     1     -24.914   6.047  11.917  1.00  0.00     0.275 HD
ENDBRANCH   3   4
BRANCH   3   8
HETATM    8  C3  UNL     1     -23.515   8.575  12.347  1.00  0.00     0.058 C 
BRANCH   8   9
HETATM    9  C4  UNL     1     -25.001   8.757  12.174  1.00  0.00     0.080 C 
BRANCH   9  10
HETATM   10  S1  UNL     1     -25.723   9.783  13.477  1.00  0.00    -0.129 SA
BRANCH  10  11
HETATM   11  C5  UNL     1     -27.223   8.894  14.043  1.00  0.00     0.268 C 
HETATM   12  N3  UNL     1     -27.600   9.266  15.367  1.00  0.00    -0.095 NA
HETATM   13  N4  UNL     1     -27.188   8.173  16.139  1.00  0.00    -0.019 NA
HETATM   14  N5  UNL     1     -27.493   7.095  15.298  1.00  0.00    -0.019 NA
HETATM   15  N6  UNL     1     -26.831   7.479  14.109  1.00  0.00    -0.095 NA
ENDBRANCH  10  11
ENDBRANCH   9  10
ENDBRANCH   8   9
ENDBRANCH   3   8
TORSDOF 5
ENDMDL
MODEL 2
REMARK VINA RESULT: -5.786493062      1.504      1.860
REMARK  5 active torsions:
REMARK  status: ('A' for Active; 'I' for Inactive)
REMARK    1  A    between atoms: C2_3  and  N2_4 
REMARK    2  A    between atoms: C2_3  and  C3_8 
REMARK    3  A    between atoms: C3_8  and  C4_9 
REMARK    4  A    between atoms: C4_9  and  S1_10 
REMARK    5  A    between atoms: S1_10  and  C5_11 
ROOT
HETATM    1  N1  UNL     1     -21.468   6.402  14.329  1.00  0.00    -0.195 NA
HETATM    2  C1  UNL     1     -21.510   6.193  13.189  1.00  0.00     0.092 C 
HETATM    3  C2  UNL     1     -21.586   5.924  11.745  1.00  0.00     0.289 C 
ENDROOT
BRANCH   3   4
HETATM    4  N2  UNL     1     -22.375   4.739  11.554  1.00  0.00    -0.063 N 
ATOM      5  H23 UNL     1     -21.812   3.929  11.293  1.00  0.00     0.275 HD
ATOM      6  H22 UNL     1     -22.749   4.369  12.428  1.00  0.00     0.275 HD
ATOM      7  H21 UNL     1     -23.102   4.950  10.872  1.00  0.00     0.275 HD
ENDBRANCH   3   4
BRANCH   3   8
HETATM    8  C3  UNL     1     -22.279   7.101  11.048  1.00  0.00     0.058 C 
BRANCH   8   9
HETATM    9  C4  UNL     1     -23.734   7.017  11.428  1.00  0.00     0.080 C 
BRANCH   9  10
HETATM   10  S1  UNL     1     -24.264   8.424  12.434  1.00  0.00    -0.129 SA
BRANCH  10  11
HETATM   11  C5  UNL     1     -26.054   8.176  12.742  1.00  0.00     0.268 C 
HETATM   12  N3  UNL     1     -26.588   9.159  13.628  1.00  0.00    -0.095 NA
HETATM   13  N4  UNL     1     -26.725   8.463  14.835  1.00  0.00    -0.019 NA
HETATM   14  N5  UNL     1     -27.152   7.203  14.396  1.00  0.00    -0.019 NA
HETATM   15  N6  UNL     1     -26.150   6.890  13.448  1.00  0.00    -0.095 NA
ENDBRANCH  10  11
ENDBRANCH   9  10
ENDBRANCH   8   9
ENDBRANCH   3   8
TORSDOF 5
ENDMDL
MODEL 3
REMARK VINA RESULT: -5.610679023      1.537      5.568
REMARK  5 active torsions:
REMARK  status: ('A' for Active; 'I' for Inactive)
REMARK    1  A    between atoms: C2_3  and  N2_4 
REMARK    2  A    between atoms: C2_3  and  C3_8 
REMARK    3  A    between atoms: C3_8  and  C4_9 
REMARK    4  A    between atoms: C4_9  and  S1_10 
REMARK    5  A    between atoms: S1_10  and  C5_11 
ROOT
HETATM    1  N1  UNL     1     -27.457   7.964  15.187  1.00  0.00    -0.195 NA
HETATM    2  C1  UNL     1     -27.156   8.756  14.395  1.00  0.00     0.092 C 
HETATM    3  C2  UNL     1     -26.765   9.772  13.406  1.00  0.00     0.289 C 
ENDROOT
BRANCH   3   4
HETATM    4  N2  UNL     1     -27.022  11.067  13.973  1.00  0.00    -0.063 N 
ATOM      5  H23 UNL     1     -27.356  11.017  14.935  1.00  0.00     0.275 HD
ATOM      6  H22 UNL     1     -26.169  11.596  14.151  1.00  0.00     0.275 HD
ATOM      7  H21 UNL     1     -27.669  11.558  13.356  1.00  0.00     0.275 HD
ENDBRANCH   3   4
BRANCH   3   8
HETATM    8  C3  UNL     1     -25.264   9.644  13.117  1.00  0.00     0.058 C 
BRANCH   8   9
HETATM    9  C4  UNL     1     -25.138   8.663  11.980  1.00  0.00     0.080 C 
BRANCH   9  10
HETATM   10  S1  UNL     1     -24.311   7.135  12.481  1.00  0.00    -0.129 SA
BRANCH  10  11
HETATM   11  C5  UNL     1     -22.519   7.522  12.519  1.00  0.00     0.268 C 
HETATM   12  N3  UNL     1     -21.858   7.125  11.319  1.00  0.00    -0.095 NA
HETATM   13  N4  UNL     1     -21.173   5.963  11.699  1.00  0.00    -0.019 NA
HETATM   14  N5  UNL     1     -20.747   6.290  12.993  1.00  0.00    -0.019 NA
HETATM   15  N6  UNL     1     -21.966   6.683  13.592  1.00  0.00    -0.095 NA
ENDBRANCH  10  11
ENDBRANCH   9  10
ENDBRANCH   8   9
ENDBRANCH   3   8
TORSDOF 5
ENDMDL
MODEL 4
REMARK VINA RESULT: -5.430674468      0.937      1.361
REMARK  5 active torsions:
REMARK  status: ('A' for Active; 'I' for Inactive)
REMARK    1  A    between atoms: C2_3  and  N2_4 
REMARK    2  A    between atoms: C2_3  and  C3_8 
REMARK    3  A    between atoms: C3_8  and  C4_9 
REMARK    4  A    between atoms: C4_9  and  S1_10 
REMARK    5  A    between atoms: S1_10  and  C5_11 
ROOT
HETATM    1  N1  UNL     1     -23.165   5.828  10.257  1.00  0.00    -0.195 NA
HETATM    2  C1  UNL     1     -23.260   6.265  11.327  1.00  0.00     0.092 C 
HETATM    3  C2  UNL     1     -23.360   6.829  12.681  1.00  0.00     0.289 C 
ENDROOT
BRANCH   3   4
HETATM    4  N2  UNL     1     -22.134   6.547  13.373  1.00  0.00    -0.063 N 
ATOM      5  H23 UNL     1     -22.245   6.541  14.387  1.00  0.00     0.275 HD
ATOM      6  H22 UNL     1     -21.833   5.578  13.263  1.00  0.00     0.275 HD
ATOM      7  H21 UNL     1     -21.431   7.216  13.057  1.00  0.00     0.275 HD
ENDBRANCH   3   4
BRANCH   3   8
HETATM    8  C3  UNL     1     -23.539   8.349  12.584  1.00  0.00     0.058 C 
BRANCH   8   9
HETATM    9  C4  UNL     1     -24.984   8.580  12.225  1.00  0.00     0.080 C 
BRANCH   9  10
HETATM   10  S1  UNL     1     -25.794   9.740  13.351  1.00  0.00    -0.129 SA
BRANCH  10  11
HETATM   11  C5  UNL     1     -27.266   8.861  14.004  1.00  0.00     0.268 C 
HETATM   12  N3  UNL     1     -27.603   9.284  15.323  1.00  0.00    -0.095 NA
HETATM   13  N4  UNL     1     -27.154   8.228  16.125  1.00  0.00    -0.019 NA
HETATM   14  N5  UNL     1     -27.475   7.113  15.340  1.00  0.00    -0.019 NA
HETATM   15  N6  UNL     1     -26.856   7.453  14.115  1.00  0.00    -0.095 NA
ENDBRANCH  10  11
ENDBRANCH   9  10
ENDBRANCH   8   9
ENDBRANCH   3   8
TORSDOF 5
ENDMDL
MODEL 5
REMARK VINA RESULT: -5.191043791      2.367      2.932
REMARK  5 active torsions:
REMARK  status: ('A' for Active; 'I' for Inactive)
REMARK    1  A    between atoms: C2_3  and  N2_4 
REMARK    2  A    between atoms: C2_3  and  C3_8 
REMARK    3  A    between atoms: C3_8  and  C4_9 
REMARK    4  A    between atoms: C4_9  and  S1_10 
REMARK    5  A    between atoms: S1_10  and  C5_11 
ROOT
HETATM    1  N1  UNL     1     -21.465   6.454  14.095  1.00  0.00    -0.195 NA
HETATM    2  C1  UNL     1     -21.676   6.216  12.979  1.00  0.00     0.092 C 
HETATM    3  C2  UNL     1     -21.963   5.904  11.571  1.00  0.00     0.289 C 
ENDROOT
BRANCH   3   4
HETATM    4  N2  UNL     1     -22.352   4.524  11.492  1.00  0.00    -0.063 N 
ATOM      5  H23 UNL     1     -21.569   3.904  11.284  1.00  0.00     0.275 HD
ATOM      6  H22 UNL     1     -22.599   4.131  12.400  1.00  0.00     0.275 HD
ATOM      7  H21 UNL     1     -23.107   4.447  10.811  1.00  0.00     0.275 HD
ENDBRANCH   3   4
BRANCH   3   8
HETATM    8  C3  UNL     1     -23.126   6.778  11.087  1.00  0.00     0.058 C 
BRANCH   8   9
HETATM    9  C4  UNL     1     -23.343   7.819  12.154  1.00  0.00     0.080 C 
BRANCH   9  10
HETATM   10  S1  UNL     1     -25.068   7.904  12.691  1.00  0.00    -0.129 SA
BRANCH  10  11
HETATM   11  C5  UNL     1     -25.550   9.668  12.552  1.00  0.00     0.268 C 
HETATM   12  N3  UNL     1     -24.417  10.531  12.480  1.00  0.00    -0.095 NA
HETATM   13  N4  UNL     1     -24.360  11.096  13.760  1.00  0.00    -0.019 NA
HETATM   14  N5  UNL     1     -25.717  11.280  14.054  1.00  0.00    -0.019 NA
HETATM   15  N6  UNL     1     -26.229   9.983  13.817  1.00  0.00    -0.095 NA
ENDBRANCH  10  11
ENDBRANCH   9  10
ENDBRANCH   8   9
ENDBRANCH   3   8
TORSDOF 5
ENDMDL
