MODEL 1
REMARK VINA RESULT: -9.363498648      0.000      0.000
REMARK  8 active torsions:
REMARK  status: ('A' for Active; 'I' for Inactive)
REMARK    1  A    between atoms: C2_2  and  C3_3 
REMARK    2  A    between atoms: N1_5  and  C5_6 
REMARK    3  A    between atoms: C6_8  and  C7_9 
REMARK       I    between atoms: C7_9  and  N2_11 
REMARK    4  A    between atoms: N2_11  and  C8_13 
REMARK    5  A    between atoms: C8_13  and  C9_14 
REMARK    6  A    between atoms: C8_13  and  C12_19 
REMARK    7  A    between atoms: C9_14  and  C10_15 
REMARK    8  A    between atoms: C10_15  and  C11_16 
ROOT
HETATM    1  C5  UNL     1      20.031  -7.576 -29.446  1.00  0.00     0.112 A 
HETATM    2  S1  UNL     1      19.711  -5.996 -30.027  1.00  0.00    -0.046 SA
HETATM    3  C6  UNL     1      18.033  -6.159 -30.307  1.00  0.00     0.145 A 
HETATM    4  N3  UNL     1      17.810  -7.405 -29.942  1.00  0.00    -0.335 N 
ATOM      5  H3  UNL     1      16.869  -7.794 -30.002  1.00  0.00     0.167 HD
HETATM    6  C13 UNL     1      18.801  -8.148 -29.502  1.00  0.00     0.149 A 
HETATM    7  C14 UNL     1      18.535  -9.546 -29.106  1.00  0.00     0.120 C 
HETATM    8  N4  UNL     1      18.297 -10.644 -28.806  1.00  0.00    -0.190 NA
ENDROOT
BRANCH   1   9
HETATM    9  N1  UNL     1      21.321  -8.070 -29.031  1.00  0.00    -0.369 N 
HETATM   10  C4  UNL     1      21.722  -9.406 -29.240  1.00  0.00     0.156 C 
HETATM   11  C3  UNL     1      23.033  -9.847 -28.667  1.00  0.00     0.203 C 
HETATM   12  N5  UNL     1      23.954  -8.817 -28.326  1.00  0.00    -0.068 N 
HETATM   13  C16 UNL     1      23.313  -7.731 -27.600  1.00  0.00     0.252 C 
ATOM     14  H52 UNL     1      24.751  -9.189 -27.808  1.00  0.00     0.277 HD
ATOM     15  H51 UNL     1      24.446  -8.472 -29.150  1.00  0.00     0.277 HD
HETATM   16  C15 UNL     1      22.209  -7.118 -28.382  1.00  0.00     0.151 C 
BRANCH  11  17
HETATM   17  C2  UNL     1      22.786 -10.753 -27.446  1.00  0.00     0.030 C 
HETATM   18  C1  UNL     1      22.510 -12.156 -27.957  1.00  0.00     0.007 C 
ENDBRANCH  11  17
ENDBRANCH   1   9
BRANCH   3  19
HETATM   19  C7  UNL     1      17.077  -5.155 -30.828  1.00  0.00     0.276 C 
HETATM   20  O1  UNL     1      16.061  -5.551 -31.418  1.00  0.00    -0.265 OA
HETATM   21  N2  UNL     1      17.347  -3.803 -30.643  1.00  0.00    -0.341 N 
ATOM     22  H2  UNL     1      18.204  -3.552 -30.150  1.00  0.00     0.163 HD
BRANCH  21  23
HETATM   23  C8  UNL     1      16.490  -2.724 -31.105  1.00  0.00     0.186 C 
BRANCH  23  24
HETATM   24  C9  UNL     1      17.060  -1.434 -30.623  1.00  0.00     0.046 C 
BRANCH  24  25
HETATM   25  C10 UNL     1      16.947  -1.169 -29.165  1.00  0.00     0.116 C 
BRANCH  25  26
HETATM   26  C11 UNL     1      16.109  -0.038 -28.774  1.00  0.00     0.172 C 
HETATM   27  O2  UNL     1      14.883  -0.012 -28.939  1.00  0.00    -0.648 OA
HETATM   28  O3  UNL     1      16.696   1.074 -28.184  1.00  0.00    -0.648 OA
ENDBRANCH  25  26
ENDBRANCH  24  25
ENDBRANCH  23  24
BRANCH  23  29
HETATM   29  C12 UNL     1      16.434  -2.686 -32.592  1.00  0.00     0.196 C 
HETATM   30  O4  UNL     1      15.395  -2.729 -33.272  1.00  0.00    -0.646 OA
HETATM   31  O5  UNL     1      17.651  -2.594 -33.271  1.00  0.00    -0.646 OA
ENDBRANCH  23  29
ENDBRANCH  21  23
ENDBRANCH   3  19
TORSDOF 8
ENDMDL
MODEL 2
REMARK VINA RESULT: -9.119925213      0.738      1.928
REMARK  8 active torsions:
REMARK  status: ('A' for Active; 'I' for Inactive)
REMARK    1  A    between atoms: C2_2  and  C3_3 
REMARK    2  A    between atoms: N1_5  and  C5_6 
REMARK    3  A    between atoms: C6_8  and  C7_9 
REMARK       I    between atoms: C7_9  and  N2_11 
REMARK    4  A    between atoms: N2_11  and  C8_13 
REMARK    5  A    between atoms: C8_13  and  C9_14 
REMARK    6  A    between atoms: C8_13  and  C12_19 
REMARK    7  A    between atoms: C9_14  and  C10_15 
REMARK    8  A    between atoms: C10_15  and  C11_16 
ROOT
HETATM    1  C5  UNL     1      20.100  -7.529 -29.274  1.00  0.00     0.112 A 
HETATM    2  S1  UNL     1      19.772  -5.941 -29.828  1.00  0.00    -0.046 SA
HETATM    3  C6  UNL     1      18.121  -6.140 -30.221  1.00  0.00     0.145 A 
HETATM    4  N3  UNL     1      17.911  -7.403 -29.910  1.00  0.00    -0.335 N 
ATOM      5  H3  UNL     1      16.988  -7.815 -30.043  1.00  0.00     0.167 HD
HETATM    6  C13 UNL     1      18.894  -8.133 -29.429  1.00  0.00     0.149 A 
HETATM    7  C14 UNL     1      18.644  -9.549 -29.094  1.00  0.00     0.120 C 
HETATM    8  N4  UNL     1      18.420 -10.663 -28.844  1.00  0.00    -0.190 NA
ENDROOT
BRANCH   1   9
HETATM    9  N1  UNL     1      21.375  -8.001 -28.791  1.00  0.00    -0.369 N 
HETATM   10  C4  UNL     1      22.161  -7.258 -27.886  1.00  0.00     0.156 C 
HETATM   11  C3  UNL     1      23.520  -7.780 -27.539  1.00  0.00     0.203 C 
HETATM   12  N5  UNL     1      23.756  -9.159 -27.803  1.00  0.00    -0.068 N 
HETATM   13  C16 UNL     1      23.277  -9.550 -29.120  1.00  0.00     0.252 C 
ATOM     14  H52 UNL     1      24.741  -9.397 -27.681  1.00  0.00     0.277 HD
ATOM     15  H51 UNL     1      23.357  -9.749 -27.073  1.00  0.00     0.277 HD
HETATM   16  C15 UNL     1      21.823  -9.295 -29.279  1.00  0.00     0.151 C 
BRANCH  11  17
HETATM   17  C2  UNL     1      24.597  -6.923 -28.230  1.00  0.00     0.030 C 
HETATM   18  C1  UNL     1      24.106  -5.487 -28.251  1.00  0.00     0.007 C 
ENDBRANCH  11  17
ENDBRANCH   1   9
BRANCH   3  19
HETATM   19  C7  UNL     1      17.172  -5.147 -30.774  1.00  0.00     0.276 C 
HETATM   20  O1  UNL     1      16.165  -5.553 -31.371  1.00  0.00    -0.265 OA
HETATM   21  N2  UNL     1      17.438  -3.791 -30.607  1.00  0.00    -0.341 N 
ATOM     22  H2  UNL     1      18.287  -3.531 -30.106  1.00  0.00     0.163 HD
BRANCH  21  23
HETATM   23  C8  UNL     1      16.586  -2.721 -31.100  1.00  0.00     0.186 C 
BRANCH  23  24
HETATM   24  C9  UNL     1      17.116  -1.427 -30.585  1.00  0.00     0.046 C 
BRANCH  24  25
HETATM   25  C10 UNL     1      16.960  -1.188 -29.126  1.00  0.00     0.116 C 
BRANCH  25  26
HETATM   26  C11 UNL     1      16.087  -0.083 -28.738  1.00  0.00     0.172 C 
HETATM   27  O2  UNL     1      14.874  -0.057 -28.981  1.00  0.00    -0.648 OA
HETATM   28  O3  UNL     1      16.624   1.005 -28.061  1.00  0.00    -0.648 OA
ENDBRANCH  25  26
ENDBRANCH  24  25
ENDBRANCH  23  24
BRANCH  23  29
HETATM   29  C12 UNL     1      16.596  -2.673 -32.588  1.00  0.00     0.196 C 
HETATM   30  O4  UNL     1      17.615  -2.684 -33.299  1.00  0.00    -0.646 OA
HETATM   31  O5  UNL     1      15.358  -2.611 -33.229  1.00  0.00    -0.646 OA
ENDBRANCH  23  29
ENDBRANCH  21  23
ENDBRANCH   3  19
TORSDOF 8
ENDMDL
MODEL 3
REMARK VINA RESULT: -9.074513865      4.095      8.857
REMARK  8 active torsions:
REMARK  status: ('A' for Active; 'I' for Inactive)
REMARK    1  A    between atoms: C2_2  and  C3_3 
REMARK    2  A    between atoms: N1_5  and  C5_6 
REMARK    3  A    between atoms: C6_8  and  C7_9 
REMARK       I    between atoms: C7_9  and  N2_11 
REMARK    4  A    between atoms: N2_11  and  C8_13 
REMARK    5  A    between atoms: C8_13  and  C9_14 
REMARK    6  A    between atoms: C8_13  and  C12_19 
REMARK    7  A    between atoms: C9_14  and  C10_15 
REMARK    8  A    between atoms: C10_15  and  C11_16 
ROOT
HETATM    1  C5  UNL     1      17.812  -4.609 -31.503  1.00  0.00     0.112 A 
HETATM    2  S1  UNL     1      18.724  -6.056 -31.389  1.00  0.00    -0.046 SA
HETATM    3  C6  UNL     1      19.476  -5.768 -29.880  1.00  0.00     0.145 A 
HETATM    4  N3  UNL     1      18.991  -4.589 -29.549  1.00  0.00    -0.335 N 
ATOM      5  H3  UNL     1      19.270  -4.151 -28.671  1.00  0.00     0.167 HD
HETATM    6  C13 UNL     1      18.147  -3.976 -30.350  1.00  0.00     0.149 A 
HETATM    7  C14 UNL     1      17.621  -2.651 -29.966  1.00  0.00     0.120 C 
HETATM    8  N4  UNL     1      17.226  -1.606 -29.641  1.00  0.00    -0.190 NA
ENDROOT
BRANCH   1   9
HETATM    9  N1  UNL     1      16.942  -4.253 -32.597  1.00  0.00    -0.369 N 
HETATM   10  C4  UNL     1      15.605  -4.695 -32.674  1.00  0.00     0.156 C 
HETATM   11  C3  UNL     1      14.824  -4.368 -33.908  1.00  0.00     0.203 C 
HETATM   12  N5  UNL     1      15.325  -3.306 -34.713  1.00  0.00    -0.068 N 
HETATM   13  C16 UNL     1      16.762  -3.410 -34.918  1.00  0.00     0.252 C 
ATOM     14  H52 UNL     1      14.827  -3.247 -35.601  1.00  0.00     0.277 HD
ATOM     15  H51 UNL     1      15.071  -2.397 -34.327  1.00  0.00     0.277 HD
HETATM   16  C15 UNL     1      17.507  -3.402 -33.633  1.00  0.00     0.151 C 
BRANCH  11  17
HETATM   17  C2  UNL     1      14.651  -5.636 -34.764  1.00  0.00     0.030 C 
HETATM   18  C1  UNL     1      14.733  -6.837 -33.838  1.00  0.00     0.007 C 
ENDBRANCH  11  17
ENDBRANCH   1   9
BRANCH   3  19
HETATM   19  C7  UNL     1      20.429  -6.626 -29.140  1.00  0.00     0.276 C 
HETATM   20  O1  UNL     1      20.096  -7.787 -28.866  1.00  0.00    -0.265 OA
HETATM   21  N2  UNL     1      21.667  -6.103 -28.775  1.00  0.00    -0.341 N 
ATOM     22  H2  UNL     1      21.871  -5.139 -29.033  1.00  0.00     0.163 HD
BRANCH  21  23
HETATM   23  C8  UNL     1      22.687  -6.842 -28.049  1.00  0.00     0.186 C 
BRANCH  23  24
HETATM   24  C9  UNL     1      23.266  -7.863 -28.967  1.00  0.00     0.046 C 
BRANCH  24  25
HETATM   25  C10 UNL     1      23.546  -9.197 -28.374  1.00  0.00     0.116 C 
BRANCH  25  26
HETATM   26  C11 UNL     1      22.431 -10.139 -28.338  1.00  0.00     0.172 C 
HETATM   27  O2  UNL     1      21.854 -10.548 -29.352  1.00  0.00    -0.648 OA
HETATM   28  O3  UNL     1      21.980 -10.615 -27.113  1.00  0.00    -0.648 OA
ENDBRANCH  25  26
ENDBRANCH  24  25
ENDBRANCH  23  24
BRANCH  23  29
HETATM   29  C12 UNL     1      23.782  -5.940 -27.601  1.00  0.00     0.196 C 
HETATM   30  O4  UNL     1      24.903  -5.853 -28.130  1.00  0.00    -0.646 OA
HETATM   31  O5  UNL     1      23.522  -5.128 -26.495  1.00  0.00    -0.646 OA
ENDBRANCH  23  29
ENDBRANCH  21  23
ENDBRANCH   3  19
TORSDOF 8
ENDMDL
MODEL 4
REMARK VINA RESULT: -8.964257576      1.715      2.533
REMARK  8 active torsions:
REMARK  status: ('A' for Active; 'I' for Inactive)
REMARK    1  A    between atoms: C2_2  and  C3_3 
REMARK    2  A    between atoms: N1_5  and  C5_6 
REMARK    3  A    between atoms: C6_8  and  C7_9 
REMARK       I    between atoms: C7_9  and  N2_11 
REMARK    4  A    between atoms: N2_11  and  C8_13 
REMARK    5  A    between atoms: C8_13  and  C9_14 
REMARK    6  A    between atoms: C8_13  and  C12_19 
REMARK    7  A    between atoms: C9_14  and  C10_15 
REMARK    8  A    between atoms: C10_15  and  C11_16 
ROOT
HETATM    1  C5  UNL     1      21.463  -6.790 -29.208  1.00  0.00     0.112 A 
HETATM    2  S1  UNL     1      19.789  -7.039 -29.482  1.00  0.00    -0.046 SA
HETATM    3  C6  UNL     1      19.335  -5.420 -29.792  1.00  0.00     0.145 A 
HETATM    4  N3  UNL     1      20.481  -4.782 -29.670  1.00  0.00    -0.335 N 
ATOM      5  H3  UNL     1      20.519  -3.772 -29.804  1.00  0.00     0.167 HD
HETATM    6  C13 UNL     1      21.576  -5.448 -29.374  1.00  0.00     0.149 A 
HETATM    7  C14 UNL     1      22.850  -4.714 -29.232  1.00  0.00     0.120 C 
HETATM    8  N4  UNL     1      23.838  -4.110 -29.122  1.00  0.00    -0.190 NA
ENDROOT
BRANCH   1   9
HETATM    9  N1  UNL     1      22.420  -7.820 -28.884  1.00  0.00    -0.369 N 
HETATM   10  C4  UNL     1      22.158  -9.188 -29.098  1.00  0.00     0.156 C 
HETATM   11  C3  UNL     1      23.168 -10.184 -28.619  1.00  0.00     0.203 C 
HETATM   12  N5  UNL     1      24.479  -9.686 -28.369  1.00  0.00    -0.068 N 
HETATM   13  C16 UNL     1      24.454  -8.441 -27.616  1.00  0.00     0.252 C 
ATOM     14  H52 UNL     1      25.059 -10.387 -27.907  1.00  0.00     0.277 HD
ATOM     15  H51 UNL     1      25.008  -9.585 -29.235  1.00  0.00     0.277 HD
HETATM   16  C15 UNL     1      23.688  -7.382 -28.323  1.00  0.00     0.151 C 
BRANCH  11  17
HETATM   17  C2  UNL     1      22.634 -10.903 -27.367  1.00  0.00     0.030 C 
HETATM   18  C1  UNL     1      22.515 -12.381 -27.695  1.00  0.00     0.007 C 
ENDBRANCH  11  17
ENDBRANCH   1   9
BRANCH   3  19
HETATM   19  C7  UNL     1      17.995  -4.878 -30.113  1.00  0.00     0.276 C 
HETATM   20  O1  UNL     1      16.997  -5.563 -29.851  1.00  0.00    -0.265 OA
HETATM   21  N2  UNL     1      17.897  -3.619 -30.699  1.00  0.00    -0.341 N 
ATOM     22  H2  UNL     1      18.762  -3.113 -30.887  1.00  0.00     0.163 HD
BRANCH  21  23
HETATM   23  C8  UNL     1      16.644  -2.977 -31.059  1.00  0.00     0.186 C 
BRANCH  23  24
HETATM   24  C9  UNL     1      16.761  -1.522 -30.761  1.00  0.00     0.046 C 
BRANCH  24  25
HETATM   25  C10 UNL     1      16.914  -1.154 -29.329  1.00  0.00     0.116 C 
BRANCH  25  26
HETATM   26  C11 UNL     1      16.082  -0.055 -28.847  1.00  0.00     0.172 C 
HETATM   27  O2  UNL     1      14.851  -0.029 -28.973  1.00  0.00    -0.648 OA
HETATM   28  O3  UNL     1      16.680   1.027 -28.213  1.00  0.00    -0.648 OA
ENDBRANCH  25  26
ENDBRANCH  24  25
ENDBRANCH  23  24
BRANCH  23  29
HETATM   29  C12 UNL     1      16.360  -3.137 -32.511  1.00  0.00     0.196 C 
HETATM   30  O4  UNL     1      16.832  -2.429 -33.417  1.00  0.00    -0.646 OA
HETATM   31  O5  UNL     1      15.493  -4.169 -32.879  1.00  0.00    -0.646 OA
ENDBRANCH  23  29
ENDBRANCH  21  23
ENDBRANCH   3  19
TORSDOF 8
ENDMDL
MODEL 5
REMARK VINA RESULT: -8.951973925      4.467      8.159
REMARK  8 active torsions:
REMARK  status: ('A' for Active; 'I' for Inactive)
REMARK    1  A    between atoms: C2_2  and  C3_3 
REMARK    2  A    between atoms: N1_5  and  C5_6 
REMARK    3  A    between atoms: C6_8  and  C7_9 
REMARK       I    between atoms: C7_9  and  N2_11 
REMARK    4  A    between atoms: N2_11  and  C8_13 
REMARK    5  A    between atoms: C8_13  and  C9_14 
REMARK    6  A    between atoms: C8_13  and  C12_19 
REMARK    7  A    between atoms: C9_14  and  C10_15 
REMARK    8  A    between atoms: C10_15  and  C11_16 
ROOT
HETATM    1  C5  UNL     1      18.192  -4.126 -31.558  1.00  0.00     0.112 A 
HETATM    2  S1  UNL     1      19.691  -4.912 -31.833  1.00  0.00    -0.046 SA
HETATM    3  C6  UNL     1      20.571  -4.256 -30.522  1.00  0.00     0.145 A 
HETATM    4  N3  UNL     1      19.676  -3.477 -29.949  1.00  0.00    -0.335 N 
ATOM      5  H3  UNL     1      19.924  -2.942 -29.117  1.00  0.00     0.167 HD
HETATM    6  C13 UNL     1      18.463  -3.390 -30.450  1.00  0.00     0.149 A 
HETATM    7  C14 UNL     1      17.476  -2.505 -29.799  1.00  0.00     0.120 C 
HETATM    8  N4  UNL     1      16.721  -1.797 -29.269  1.00  0.00    -0.190 NA
ENDROOT
BRANCH   1   9
HETATM    9  N1  UNL     1      17.007  -4.279 -32.365  1.00  0.00    -0.369 N 
HETATM   10  C4  UNL     1      16.155  -5.397 -32.253  1.00  0.00     0.156 C 
HETATM   11  C3  UNL     1      15.018  -5.517 -33.218  1.00  0.00     0.203 C 
HETATM   12  N5  UNL     1      14.628  -4.323 -33.890  1.00  0.00    -0.068 N 
HETATM   13  C16 UNL     1      15.775  -3.585 -34.398  1.00  0.00     0.252 C 
ATOM     14  H52 UNL     1      13.955  -4.519 -34.632  1.00  0.00     0.277 HD
ATOM     15  H51 UNL     1      14.044  -3.737 -33.295  1.00  0.00     0.277 HD
HETATM   16  C15 UNL     1      16.718  -3.213 -33.312  1.00  0.00     0.151 C 
BRANCH  11  17
HETATM   17  C2  UNL     1      15.325  -6.620 -34.248  1.00  0.00     0.030 C 
HETATM   18  C1  UNL     1      15.233  -7.958 -33.535  1.00  0.00     0.007 C 
ENDBRANCH  11  17
ENDBRANCH   1   9
BRANCH   3  19
HETATM   19  C7  UNL     1      21.979  -4.501 -30.135  1.00  0.00     0.276 C 
HETATM   20  O1  UNL     1      22.881  -4.083 -30.874  1.00  0.00    -0.265 OA
HETATM   21  N2  UNL     1      22.246  -5.192 -28.956  1.00  0.00    -0.341 N 
ATOM     22  H2  UNL     1      21.453  -5.507 -28.399  1.00  0.00     0.163 HD
BRANCH  21  23
HETATM   23  C8  UNL     1      23.582  -5.493 -28.467  1.00  0.00     0.186 C 
BRANCH  23  24
HETATM   24  C9  UNL     1      23.694  -4.984 -27.072  1.00  0.00     0.046 C 
BRANCH  24  25
HETATM   25  C10 UNL     1      23.892  -3.518 -26.921  1.00  0.00     0.116 C 
BRANCH  25  26
HETATM   26  C11 UNL     1      23.561  -2.949 -25.617  1.00  0.00     0.172 C 
HETATM   27  O2  UNL     1      23.705  -3.561 -24.552  1.00  0.00    -0.648 OA
HETATM   28  O3  UNL     1      23.057  -1.656 -25.545  1.00  0.00    -0.648 OA
ENDBRANCH  25  26
ENDBRANCH  24  25
ENDBRANCH  23  24
BRANCH  23  29
HETATM   29  C12 UNL     1      23.826  -6.961 -28.452  1.00  0.00     0.196 C 
HETATM   30  O4  UNL     1      23.380  -7.772 -29.282  1.00  0.00    -0.646 OA
HETATM   31  O5  UNL     1      24.622  -7.462 -27.419  1.00  0.00    -0.646 OA
ENDBRANCH  23  29
ENDBRANCH  21  23
ENDBRANCH   3  19
TORSDOF 8
ENDMDL
