MODEL 1
REMARK VINA RESULT: -8.995078139      0.000      0.000
REMARK  15 active torsions:
REMARK  status: ('A' for Active; 'I' for Inactive)
REMARK    1  A    between atoms: C2_2  and  C3_3 
REMARK    2  A    between atoms: C3_3  and  N1_6 
REMARK       I    between atoms: N1_6  and  C6_8 
REMARK    3  A    between atoms: C6_8  and  C7_10 
REMARK    4  A    between atoms: C7_10  and  C8_11 
REMARK    5  A    between atoms: C7_10  and  C15_18 
REMARK    6  A    between atoms: C8_11  and  C9_12 
REMARK    7  A    between atoms: C15_18  and  C16_19 
REMARK    8  A    between atoms: C15_18  and  N6_44 
REMARK    9  A    between atoms: C16_19  and  N2_20 
REMARK       I    between atoms: N2_20  and  C17_22 
REMARK   10  A    between atoms: C17_22  and  C18_24 
REMARK       I    between atoms: C18_24  and  N3_26 
REMARK   11  A    between atoms: N3_26  and  C19_28 
REMARK   12  A    between atoms: C19_28  and  C20_29 
REMARK   13  A    between atoms: C19_28  and  C27_41 
REMARK   14  A    between atoms: C20_29  and  C21_31 
REMARK   15  A    between atoms: C22_34  and  C23_35 
ROOT
HETATM    1  N2  UNL     1       8.255  24.210  -0.470  1.00  0.00    -0.351 N 
ATOM      2  H2  UNL     1       7.613  23.489  -0.139  1.00  0.00     0.162 HD
HETATM    3  C17 UNL     1       8.348  25.443   0.217  1.00  0.00     0.309 C 
HETATM    4  O2  UNL     1       9.139  26.326  -0.192  1.00  0.00    -0.262 OA
ENDROOT
BRANCH   1   5
HETATM    5  C16 UNL     1       9.050  23.976  -1.613  1.00  0.00     0.152 C 
BRANCH   5   6
HETATM    6  C15 UNL     1       8.370  24.398  -2.945  1.00  0.00     0.132 C 
BRANCH   6   7
HETATM    7  C7  UNL     1       8.900  23.587  -4.055  1.00  0.00     0.030 C 
BRANCH   7   8
HETATM    8  C6  UNL     1      10.270  23.735  -4.490  1.00  0.00     0.250 C 
HETATM    9  N1  UNL     1      11.348  22.836  -4.447  1.00  0.00    -0.349 N 
ATOM     10  H1  UNL     1      11.175  21.910  -4.054  1.00  0.00     0.163 HD
HETATM   11  O1  UNL     1      10.609  24.862  -5.010  1.00  0.00    -0.268 OA
BRANCH   9  12
HETATM   12  C3  UNL     1      12.686  23.125  -4.919  1.00  0.00     0.025 C 
HETATM   13  C4  UNL     1      13.207  24.448  -4.386  1.00  0.00     0.038 C 
HETATM   14  C5  UNL     1      13.673  22.065  -4.465  1.00  0.00     0.038 C 
BRANCH  12  15
HETATM   15  C2  UNL     1      12.726  23.147  -6.414  1.00  0.00     0.026 C 
HETATM   16  C1  UNL     1      12.033  21.919  -6.982  1.00  0.00     0.007 C 
ENDBRANCH  12  15
ENDBRANCH   9  12
ENDBRANCH   7   8
BRANCH   7  17
HETATM   17  C8  UNL     1       7.899  23.177  -5.091  1.00  0.00    -0.007 C 
BRANCH  17  18
HETATM   18  C9  UNL     1       8.279  22.480  -6.311  1.00  0.00     0.009 C 
HETATM   19  C10 UNL     1       8.512  23.244  -7.560  1.00  0.00     0.008 C 
HETATM   20  C11 UNL     1       8.333  22.361  -8.791  1.00  0.00     0.001 C 
HETATM   21  C12 UNL     1       8.569  20.912  -8.526  1.00  0.00     0.000 C 
HETATM   22  C13 UNL     1       7.557  20.412  -7.519  1.00  0.00     0.001 C 
HETATM   23  C14 UNL     1       7.081  21.538  -6.634  1.00  0.00     0.008 C 
ENDBRANCH  17  18
ENDBRANCH   7  17
ENDBRANCH   6   7
BRANCH   6  24
HETATM   24  N6  UNL     1       8.339  25.805  -3.033  1.00  0.00    -0.416 N 
HETATM   25  C30 UNL     1       7.596  26.431  -4.050  1.00  0.00     0.140 C 
ATOM     26  H6  UNL     1       8.857  26.368  -2.359  1.00  0.00     0.153 HD
ENDBRANCH   6  24
ENDBRANCH   5   6
ENDBRANCH   1   5
BRANCH   3  27
HETATM   27  C18 UNL     1       7.539  25.729   1.411  1.00  0.00     0.310 C 
HETATM   28  O3  UNL     1       6.270  25.803   1.275  1.00  0.00    -0.262 OA
HETATM   29  N3  UNL     1       8.140  25.915   2.664  1.00  0.00    -0.341 N 
ATOM     30  H3  UNL     1       9.153  25.853   2.763  1.00  0.00     0.163 HD
BRANCH  29  31
HETATM   31  C19 UNL     1       7.311  26.199   3.820  1.00  0.00     0.166 C 
BRANCH  31  32
HETATM   32  C20 UNL     1       6.998  24.947   4.526  1.00  0.00     0.215 C 
HETATM   33  O4  UNL     1       7.979  24.184   4.812  1.00  0.00    -0.287 OA
BRANCH  32  34
HETATM   34  C21 UNL     1       5.648  24.558   4.901  1.00  0.00     0.154 A 
HETATM   35  N4  UNL     1       5.356  23.635   5.857  1.00  0.00    -0.341 N 
HETATM   36  C22 UNL     1       4.015  23.539   5.956  1.00  0.00     0.029 A 
ATOM     37  H4  UNL     1       6.035  23.107   6.404  1.00  0.00     0.167 HD
HETATM   38  C26 UNL     1       3.477  24.415   5.050  1.00  0.00     0.115 A 
HETATM   39  N5  UNL     1       4.516  25.031   4.412  1.00  0.00    -0.347 N 
ATOM     40  H5  UNL     1       4.432  25.738   3.681  1.00  0.00     0.167 HD
BRANCH  36  41
HETATM   41  C23 UNL     1       3.317  22.626   6.904  1.00  0.00     0.029 C 
HETATM   42  C24 UNL     1       2.678  23.506   7.964  1.00  0.00     0.016 C 
HETATM   43  C25 UNL     1       2.247  21.826   6.189  1.00  0.00     0.016 C 
ENDBRANCH  36  41
ENDBRANCH  32  34
ENDBRANCH  31  32
BRANCH  31  44
HETATM   44  C27 UNL     1       8.083  27.128   4.759  1.00  0.00     0.008 C 
HETATM   45  C28 UNL     1       9.135  27.905   3.990  1.00  0.00     0.012 C 
HETATM   46  C29 UNL     1       7.107  28.075   5.380  1.00  0.00     0.012 C 
ENDBRANCH  31  44
ENDBRANCH  29  31
ENDBRANCH   3  27
TORSDOF 15
ENDMDL
MODEL 2
REMARK VINA RESULT: -8.764469600      2.503      3.740
REMARK  15 active torsions:
REMARK  status: ('A' for Active; 'I' for Inactive)
REMARK    1  A    between atoms: C2_2  and  C3_3 
REMARK    2  A    between atoms: C3_3  and  N1_6 
REMARK       I    between atoms: N1_6  and  C6_8 
REMARK    3  A    between atoms: C6_8  and  C7_10 
REMARK    4  A    between atoms: C7_10  and  C8_11 
REMARK    5  A    between atoms: C7_10  and  C15_18 
REMARK    6  A    between atoms: C8_11  and  C9_12 
REMARK    7  A    between atoms: C15_18  and  C16_19 
REMARK    8  A    between atoms: C15_18  and  N6_44 
REMARK    9  A    between atoms: C16_19  and  N2_20 
REMARK       I    between atoms: N2_20  and  C17_22 
REMARK   10  A    between atoms: C17_22  and  C18_24 
REMARK       I    between atoms: C18_24  and  N3_26 
REMARK   11  A    between atoms: N3_26  and  C19_28 
REMARK   12  A    between atoms: C19_28  and  C20_29 
REMARK   13  A    between atoms: C19_28  and  C27_41 
REMARK   14  A    between atoms: C20_29  and  C21_31 
REMARK   15  A    between atoms: C22_34  and  C23_35 
ROOT
HETATM    1  N2  UNL     1       9.709  24.891  -1.402  1.00  0.00    -0.351 N 
ATOM      2  H2  UNL     1      10.455  25.178  -0.767  1.00  0.00     0.162 HD
HETATM    3  C17 UNL     1       8.356  25.077  -1.034  1.00  0.00     0.309 C 
HETATM    4  O2  UNL     1       7.443  24.723  -1.817  1.00  0.00    -0.262 OA
ENDROOT
BRANCH   1   5
HETATM    5  C16 UNL     1      10.028  24.310  -2.649  1.00  0.00     0.152 C 
BRANCH   5   6
HETATM    6  C15 UNL     1      10.684  25.300  -3.651  1.00  0.00     0.132 C 
BRANCH   6   7
HETATM    7  C7  UNL     1      12.152  25.205  -3.557  1.00  0.00     0.030 C 
BRANCH   7   8
HETATM    8  C6  UNL     1      12.913  26.204  -2.840  1.00  0.00     0.250 C 
HETATM    9  N1  UNL     1      13.910  27.088  -3.282  1.00  0.00    -0.349 N 
ATOM     10  H1  UNL     1      14.166  27.056  -4.269  1.00  0.00     0.163 HD
HETATM   11  O1  UNL     1      12.674  26.343  -1.583  1.00  0.00    -0.268 OA
BRANCH   9  12
HETATM   12  C3  UNL     1      14.601  28.043  -2.441  1.00  0.00     0.025 C 
HETATM   13  C4  UNL     1      13.644  29.013  -1.771  1.00  0.00     0.038 C 
HETATM   14  C5  UNL     1      15.356  27.349  -1.322  1.00  0.00     0.038 C 
BRANCH  12  15
HETATM   15  C2  UNL     1      15.608  28.814  -3.234  1.00  0.00     0.026 C 
HETATM   16  C1  UNL     1      16.710  29.337  -2.327  1.00  0.00     0.007 C 
ENDBRANCH  12  15
ENDBRANCH   9  12
ENDBRANCH   7   8
BRANCH   7  17
HETATM   17  C8  UNL     1      12.831  24.534  -4.711  1.00  0.00    -0.007 C 
BRANCH  17  18
HETATM   18  C9  UNL     1      12.133  23.618  -5.602  1.00  0.00     0.009 C 
HETATM   19  C10 UNL     1      12.732  22.302  -5.930  1.00  0.00     0.008 C 
HETATM   20  C11 UNL     1      12.189  21.760  -7.250  1.00  0.00     0.001 C 
HETATM   21  C12 UNL     1      10.836  22.282  -7.597  1.00  0.00     0.000 C 
HETATM   22  C13 UNL     1      10.904  23.783  -7.774  1.00  0.00     0.001 C 
HETATM   23  C14 UNL     1      12.035  24.367  -6.964  1.00  0.00     0.008 C 
ENDBRANCH  17  18
ENDBRANCH   7  17
ENDBRANCH   6   7
BRANCH   6  24
HETATM   24  N6  UNL     1      10.038  26.550  -3.569  1.00  0.00    -0.416 N 
HETATM   25  C30 UNL     1       8.932  26.827  -4.394  1.00  0.00     0.140 C 
ATOM     26  H6  UNL     1      10.372  27.254  -2.912  1.00  0.00     0.153 HD
ENDBRANCH   6  24
ENDBRANCH   5   6
ENDBRANCH   1   5
BRANCH   3  27
HETATM   27  C18 UNL     1       7.979  25.678   0.254  1.00  0.00     0.310 C 
HETATM   28  O3  UNL     1       6.749  25.965   0.449  1.00  0.00    -0.262 OA
HETATM   29  N3  UNL     1       8.941  25.932   1.242  1.00  0.00    -0.341 N 
ATOM     30  H3  UNL     1       9.920  25.699   1.078  1.00  0.00     0.163 HD
BRANCH  29  31
HETATM   31  C19 UNL     1       8.535  26.530   2.499  1.00  0.00     0.166 C 
BRANCH  31  32
HETATM   32  C20 UNL     1       8.157  25.476   3.452  1.00  0.00     0.215 C 
HETATM   33  O4  UNL     1       9.097  24.738   3.900  1.00  0.00    -0.287 OA
BRANCH  32  34
HETATM   34  C21 UNL     1       6.790  25.248   3.892  1.00  0.00     0.154 A 
HETATM   35  N4  UNL     1       6.450  24.524   4.992  1.00  0.00    -0.341 N 
HETATM   36  C22 UNL     1       5.108  24.537   5.109  1.00  0.00     0.029 A 
ATOM     37  H4  UNL     1       7.101  24.053   5.621  1.00  0.00     0.167 HD
HETATM   38  C26 UNL     1       4.616  25.279   4.067  1.00  0.00     0.115 A 
HETATM   39  N5  UNL     1       5.685  25.705   3.330  1.00  0.00    -0.347 N 
ATOM     40  H5  UNL     1       5.638  26.280   2.489  1.00  0.00     0.167 HD
BRANCH  36  41
HETATM   41  C23 UNL     1       4.364  23.849   6.202  1.00  0.00     0.029 C 
HETATM   42  C24 UNL     1       2.946  23.645   5.700  1.00  0.00     0.016 C 
HETATM   43  C25 UNL     1       4.995  22.508   6.518  1.00  0.00     0.016 C 
ENDBRANCH  36  41
ENDBRANCH  32  34
ENDBRANCH  31  32
BRANCH  31  44
HETATM   44  C27 UNL     1       9.714  27.323   3.067  1.00  0.00     0.008 C 
HETATM   45  C28 UNL     1      10.361  28.162   1.981  1.00  0.00     0.012 C 
HETATM   46  C29 UNL     1       9.196  28.212   4.152  1.00  0.00     0.012 C 
ENDBRANCH  31  44
ENDBRANCH  29  31
ENDBRANCH   3  27
TORSDOF 15
ENDMDL
MODEL 3
REMARK VINA RESULT: -8.710177396      2.444      4.735
REMARK  15 active torsions:
REMARK  status: ('A' for Active; 'I' for Inactive)
REMARK    1  A    between atoms: C2_2  and  C3_3 
REMARK    2  A    between atoms: C3_3  and  N1_6 
REMARK       I    between atoms: N1_6  and  C6_8 
REMARK    3  A    between atoms: C6_8  and  C7_10 
REMARK    4  A    between atoms: C7_10  and  C8_11 
REMARK    5  A    between atoms: C7_10  and  C15_18 
REMARK    6  A    between atoms: C8_11  and  C9_12 
REMARK    7  A    between atoms: C15_18  and  C16_19 
REMARK    8  A    between atoms: C15_18  and  N6_44 
REMARK    9  A    between atoms: C16_19  and  N2_20 
REMARK       I    between atoms: N2_20  and  C17_22 
REMARK   10  A    between atoms: C17_22  and  C18_24 
REMARK       I    between atoms: C18_24  and  N3_26 
REMARK   11  A    between atoms: N3_26  and  C19_28 
REMARK   12  A    between atoms: C19_28  and  C20_29 
REMARK   13  A    between atoms: C19_28  and  C27_41 
REMARK   14  A    between atoms: C20_29  and  C21_31 
REMARK   15  A    between atoms: C22_34  and  C23_35 
ROOT
HETATM    1  N2  UNL     1       9.545  25.825  -0.040  1.00  0.00    -0.351 N 
ATOM      2  H2  UNL     1      10.036  26.210   0.767  1.00  0.00     0.162 HD
HETATM    3  C17 UNL     1       8.163  25.536   0.044  1.00  0.00     0.309 C 
HETATM    4  O2  UNL     1       7.564  25.063  -0.950  1.00  0.00    -0.262 OA
ENDROOT
BRANCH   1   5
HETATM    5  C16 UNL     1      10.247  25.579  -1.241  1.00  0.00     0.152 C 
BRANCH   5   6
HETATM    6  C15 UNL     1      10.671  26.871  -1.992  1.00  0.00     0.132 C 
BRANCH   6   7
HETATM    7  C7  UNL     1      11.826  26.586  -2.863  1.00  0.00     0.030 C 
BRANCH   7   8
HETATM    8  C6  UNL     1      11.674  25.771  -4.048  1.00  0.00     0.250 C 
HETATM    9  N1  UNL     1      12.395  24.648  -4.485  1.00  0.00    -0.349 N 
ATOM     10  H1  UNL     1      13.158  24.317  -3.895  1.00  0.00     0.163 HD
HETATM   11  O1  UNL     1      10.737  26.088  -4.870  1.00  0.00    -0.268 OA
BRANCH   9  12
HETATM   12  C3  UNL     1      12.134  23.925  -5.712  1.00  0.00     0.025 C 
HETATM   13  C4  UNL     1      10.728  23.355  -5.754  1.00  0.00     0.038 C 
HETATM   14  C5  UNL     1      12.262  24.830  -6.924  1.00  0.00     0.038 C 
BRANCH  12  15
HETATM   15  C2  UNL     1      13.121  22.814  -5.891  1.00  0.00     0.026 C 
HETATM   16  C1  UNL     1      13.485  22.206  -4.547  1.00  0.00     0.007 C 
ENDBRANCH  12  15
ENDBRANCH   9  12
ENDBRANCH   7   8
BRANCH   7  17
HETATM   17  C8  UNL     1      13.157  26.547  -2.178  1.00  0.00    -0.007 C 
BRANCH  17  18
HETATM   18  C9  UNL     1      14.302  27.309  -2.654  1.00  0.00     0.009 C 
HETATM   19  C10 UNL     1      15.460  27.545  -1.759  1.00  0.00     0.008 C 
HETATM   20  C11 UNL     1      16.252  28.777  -2.190  1.00  0.00     0.001 C 
HETATM   21  C12 UNL     1      16.112  29.098  -3.640  1.00  0.00     0.000 C 
HETATM   22  C13 UNL     1      14.667  29.418  -3.950  1.00  0.00     0.001 C 
HETATM   23  C14 UNL     1      13.745  28.728  -2.974  1.00  0.00     0.008 C 
ENDBRANCH  17  18
ENDBRANCH   7  17
ENDBRANCH   6   7
BRANCH   6  24
HETATM   24  N6  UNL     1      10.701  27.953  -1.089  1.00  0.00    -0.416 N 
HETATM   25  C30 UNL     1      10.086  29.172  -1.429  1.00  0.00     0.140 C 
ATOM     26  H6  UNL     1      11.170  27.852  -0.189  1.00  0.00     0.153 HD
ENDBRANCH   6  24
ENDBRANCH   5   6
ENDBRANCH   1   5
BRANCH   3  27
HETATM   27  C18 UNL     1       7.395  25.777   1.274  1.00  0.00     0.310 C 
HETATM   28  O3  UNL     1       6.120  25.817   1.191  1.00  0.00    -0.262 OA
HETATM   29  N3  UNL     1       8.041  25.959   2.506  1.00  0.00    -0.341 N 
ATOM     30  H3  UNL     1       9.058  25.924   2.562  1.00  0.00     0.163 HD
BRANCH  29  31
HETATM   31  C19 UNL     1       7.251  26.198   3.698  1.00  0.00     0.166 C 
BRANCH  31  32
HETATM   32  C20 UNL     1       6.940  24.919   4.354  1.00  0.00     0.215 C 
HETATM   33  O4  UNL     1       7.912  24.113   4.538  1.00  0.00    -0.287 OA
BRANCH  32  34
HETATM   34  C21 UNL     1       5.603  24.547   4.788  1.00  0.00     0.154 A 
HETATM   35  N4  UNL     1       5.340  23.621   5.748  1.00  0.00    -0.341 N 
HETATM   36  C22 UNL     1       4.004  23.546   5.909  1.00  0.00     0.029 A 
ATOM     37  H4  UNL     1       6.035  23.076   6.258  1.00  0.00     0.167 HD
HETATM   38  C26 UNL     1       3.439  24.439   5.036  1.00  0.00     0.115 A 
HETATM   39  N5  UNL     1       4.458  25.044   4.356  1.00  0.00    -0.347 N 
ATOM     40  H5  UNL     1       4.352  25.759   3.636  1.00  0.00     0.167 HD
BRANCH  36  41
HETATM   41  C23 UNL     1       3.336  22.635   6.880  1.00  0.00     0.029 C 
HETATM   42  C24 UNL     1       2.704  23.519   7.941  1.00  0.00     0.016 C 
HETATM   43  C25 UNL     1       2.264  21.812   6.195  1.00  0.00     0.016 C 
ENDBRANCH  36  41
ENDBRANCH  32  34
ENDBRANCH  31  32
BRANCH  31  44
HETATM   44  C27 UNL     1       8.066  27.070   4.657  1.00  0.00     0.008 C 
HETATM   45  C28 UNL     1       9.137  27.832   3.900  1.00  0.00     0.012 C 
HETATM   46  C29 UNL     1       7.132  28.032   5.317  1.00  0.00     0.012 C 
ENDBRANCH  31  44
ENDBRANCH  29  31
ENDBRANCH   3  27
TORSDOF 15
ENDMDL
MODEL 4
REMARK VINA RESULT: -8.578707633      2.220      4.869
REMARK  15 active torsions:
REMARK  status: ('A' for Active; 'I' for Inactive)
REMARK    1  A    between atoms: C2_2  and  C3_3 
REMARK    2  A    between atoms: C3_3  and  N1_6 
REMARK       I    between atoms: N1_6  and  C6_8 
REMARK    3  A    between atoms: C6_8  and  C7_10 
REMARK    4  A    between atoms: C7_10  and  C8_11 
REMARK    5  A    between atoms: C7_10  and  C15_18 
REMARK    6  A    between atoms: C8_11  and  C9_12 
REMARK    7  A    between atoms: C15_18  and  C16_19 
REMARK    8  A    between atoms: C15_18  and  N6_44 
REMARK    9  A    between atoms: C16_19  and  N2_20 
REMARK       I    between atoms: N2_20  and  C17_22 
REMARK   10  A    between atoms: C17_22  and  C18_24 
REMARK       I    between atoms: C18_24  and  N3_26 
REMARK   11  A    between atoms: N3_26  and  C19_28 
REMARK   12  A    between atoms: C19_28  and  C20_29 
REMARK   13  A    between atoms: C19_28  and  C27_41 
REMARK   14  A    between atoms: C20_29  and  C21_31 
REMARK   15  A    between atoms: C22_34  and  C23_35 
ROOT
HETATM    1  N2  UNL     1       9.229  23.912  -1.289  1.00  0.00    -0.351 N 
ATOM      2  H2  UNL     1       9.869  23.746  -0.512  1.00  0.00     0.162 HD
HETATM    3  C17 UNL     1       8.156  24.822  -1.141  1.00  0.00     0.309 C 
HETATM    4  O2  UNL     1       7.372  25.023  -2.098  1.00  0.00    -0.262 OA
ENDROOT
BRANCH   1   5
HETATM    5  C16 UNL     1       9.414  23.232  -2.513  1.00  0.00     0.152 C 
BRANCH   5   6
HETATM    6  C15 UNL     1      10.444  23.915  -3.457  1.00  0.00     0.132 C 
BRANCH   6   7
HETATM    7  C7  UNL     1       9.796  25.021  -4.185  1.00  0.00     0.030 C 
BRANCH   7   8
HETATM    8  C6  UNL     1       8.963  24.759  -5.338  1.00  0.00     0.250 C 
HETATM    9  N1  UNL     1       7.570  24.624  -5.449  1.00  0.00    -0.349 N 
ATOM     10  H1  UNL     1       7.016  24.724  -4.598  1.00  0.00     0.163 HD
HETATM   11  O1  UNL     1       9.550  24.618  -6.474  1.00  0.00    -0.268 OA
BRANCH   9  12
HETATM   12  C3  UNL     1       6.862  24.352  -6.682  1.00  0.00     0.025 C 
HETATM   13  C4  UNL     1       7.056  25.454  -7.709  1.00  0.00     0.038 C 
HETATM   14  C5  UNL     1       7.355  23.073  -7.333  1.00  0.00     0.038 C 
BRANCH  12  15
HETATM   15  C2  UNL     1       5.399  24.173  -6.423  1.00  0.00     0.026 C 
HETATM   16  C1  UNL     1       4.866  25.316  -5.574  1.00  0.00     0.007 C 
ENDBRANCH  12  15
ENDBRANCH   9  12
ENDBRANCH   7   8
BRANCH   7  17
HETATM   17  C8  UNL     1      10.527  26.327  -4.158  1.00  0.00    -0.007 C 
BRANCH  17  18
HETATM   18  C9  UNL     1      11.428  26.695  -3.075  1.00  0.00     0.009 C 
HETATM   19  C10 UNL     1      11.236  27.977  -2.354  1.00  0.00     0.008 C 
HETATM   20  C11 UNL     1      12.532  28.443  -1.697  1.00  0.00     0.001 C 
HETATM   21  C12 UNL     1      13.477  27.331  -1.388  1.00  0.00     0.000 C 
HETATM   22  C13 UNL     1      13.896  26.653  -2.673  1.00  0.00     0.001 C 
HETATM   23  C14 UNL     1      12.834  26.811  -3.734  1.00  0.00     0.008 C 
ENDBRANCH  17  18
ENDBRANCH   7  17
ENDBRANCH   6   7
BRANCH   6  24
HETATM   24  N6  UNL     1      11.174  22.928  -4.149  1.00  0.00    -0.416 N 
HETATM   25  C30 UNL     1      12.490  23.192  -4.573  1.00  0.00     0.140 C 
ATOM     26  H6  UNL     1      10.748  22.022  -4.344  1.00  0.00     0.153 HD
ENDBRANCH   6  24
ENDBRANCH   5   6
ENDBRANCH   1   5
BRANCH   3  27
HETATM   27  C18 UNL     1       7.926  25.550   0.116  1.00  0.00     0.310 C 
HETATM   28  O3  UNL     1       6.727  25.877   0.413  1.00  0.00    -0.262 OA
HETATM   29  N3  UNL     1       8.993  25.879   0.966  1.00  0.00    -0.341 N 
ATOM     30  H3  UNL     1       9.946  25.613   0.721  1.00  0.00     0.163 HD
BRANCH  29  31
HETATM   31  C19 UNL     1       8.730  26.602   2.195  1.00  0.00     0.166 C 
BRANCH  31  32
HETATM   32  C20 UNL     1       8.451  25.650   3.281  1.00  0.00     0.215 C 
HETATM   33  O4  UNL     1       9.458  25.095   3.836  1.00  0.00    -0.287 OA
BRANCH  32  34
HETATM   34  C21 UNL     1       7.109  25.326   3.735  1.00  0.00     0.154 A 
HETATM   35  N4  UNL     1       6.811  24.293   4.568  1.00  0.00    -0.341 N 
HETATM   36  C22 UNL     1       5.482  24.301   4.794  1.00  0.00     0.029 A 
ATOM     37  H4  UNL     1       7.479  23.626   4.954  1.00  0.00     0.167 HD
HETATM   38  C26 UNL     1       4.957  25.353   4.091  1.00  0.00     0.115 A 
HETATM   39  N5  UNL     1       5.992  25.969   3.445  1.00  0.00    -0.347 N 
ATOM     40  H5  UNL     1       5.915  26.788   2.842  1.00  0.00     0.167 HD
BRANCH  36  41
HETATM   41  C23 UNL     1       4.783  23.314   5.664  1.00  0.00     0.029 C 
HETATM   42  C24 UNL     1       5.559  23.258   6.968  1.00  0.00     0.016 C 
HETATM   43  C25 UNL     1       3.358  23.751   5.934  1.00  0.00     0.016 C 
ENDBRANCH  36  41
ENDBRANCH  32  34
ENDBRANCH  31  32
BRANCH  31  44
HETATM   44  C27 UNL     1       9.969  27.425   2.553  1.00  0.00     0.008 C 
HETATM   45  C28 UNL     1      10.602  28.002   1.301  1.00  0.00     0.012 C 
HETATM   46  C29 UNL     1       9.544  28.533   3.462  1.00  0.00     0.012 C 
ENDBRANCH  31  44
ENDBRANCH  29  31
ENDBRANCH   3  27
TORSDOF 15
ENDMDL
MODEL 5
REMARK VINA RESULT: -8.561231061      2.457     11.003
REMARK  15 active torsions:
REMARK  status: ('A' for Active; 'I' for Inactive)
REMARK    1  A    between atoms: C2_2  and  C3_3 
REMARK    2  A    between atoms: C3_3  and  N1_6 
REMARK       I    between atoms: N1_6  and  C6_8 
REMARK    3  A    between atoms: C6_8  and  C7_10 
REMARK    4  A    between atoms: C7_10  and  C8_11 
REMARK    5  A    between atoms: C7_10  and  C15_18 
REMARK    6  A    between atoms: C8_11  and  C9_12 
REMARK    7  A    between atoms: C15_18  and  C16_19 
REMARK    8  A    between atoms: C15_18  and  N6_44 
REMARK    9  A    between atoms: C16_19  and  N2_20 
REMARK       I    between atoms: N2_20  and  C17_22 
REMARK   10  A    between atoms: C17_22  and  C18_24 
REMARK       I    between atoms: C18_24  and  N3_26 
REMARK   11  A    between atoms: N3_26  and  C19_28 
REMARK   12  A    between atoms: C19_28  and  C20_29 
REMARK   13  A    between atoms: C19_28  and  C27_41 
REMARK   14  A    between atoms: C20_29  and  C21_31 
REMARK   15  A    between atoms: C22_34  and  C23_35 
ROOT
HETATM    1  N2  UNL     1       9.158  24.463  -0.245  1.00  0.00    -0.351 N 
ATOM      2  H2  UNL     1      10.038  24.016   0.015  1.00  0.00     0.162 HD
HETATM    3  C17 UNL     1       8.683  24.370  -1.574  1.00  0.00     0.309 C 
HETATM    4  O2  UNL     1       7.602  24.921  -1.889  1.00  0.00    -0.262 OA
ENDROOT
BRANCH   1   5
HETATM    5  C16 UNL     1       8.416  25.175   0.723  1.00  0.00     0.152 C 
BRANCH   5   6
HETATM    6  C15 UNL     1       9.219  26.312   1.415  1.00  0.00     0.132 C 
BRANCH   6   7
HETATM    7  C7  UNL     1       8.547  26.707   2.666  1.00  0.00     0.030 C 
BRANCH   7   8
HETATM    8  C6  UNL     1       8.342  28.102   2.985  1.00  0.00     0.250 C 
HETATM    9  N1  UNL     1       8.522  28.802   4.189  1.00  0.00    -0.349 N 
ATOM     10  H1  UNL     1       8.857  28.276   4.996  1.00  0.00     0.163 HD
HETATM   11  O1  UNL     1       7.924  28.872   2.042  1.00  0.00    -0.268 OA
BRANCH   9  12
HETATM   12  C3  UNL     1       8.268  30.216   4.369  1.00  0.00     0.025 C 
HETATM   13  C4  UNL     1       9.399  31.075   3.831  1.00  0.00     0.038 C 
HETATM   14  C5  UNL     1       7.015  30.651   3.630  1.00  0.00     0.038 C 
BRANCH  12  15
HETATM   15  C2  UNL     1       8.053  30.535   5.815  1.00  0.00     0.026 C 
HETATM   16  C1  UNL     1       7.915  29.257   6.626  1.00  0.00     0.007 C 
ENDBRANCH  12  15
ENDBRANCH   9  12
ENDBRANCH   7   8
BRANCH   7  17
HETATM   17  C8  UNL     1       8.720  25.765   3.817  1.00  0.00    -0.007 C 
BRANCH  17  18
HETATM   18  C9  UNL     1       7.590  25.221   4.556  1.00  0.00     0.009 C 
HETATM   19  C10 UNL     1       7.656  23.844   5.102  1.00  0.00     0.008 C 
HETATM   20  C11 UNL     1       6.260  23.266   5.317  1.00  0.00     0.001 C 
HETATM   21  C12 UNL     1       5.210  24.304   5.527  1.00  0.00     0.000 C 
HETATM   22  C13 UNL     1       5.103  25.171   4.293  1.00  0.00     0.001 C 
HETATM   23  C14 UNL     1       6.410  25.194   3.539  1.00  0.00     0.008 C 
ENDBRANCH  17  18
ENDBRANCH   7  17
ENDBRANCH   6   7
BRANCH   6  24
HETATM   24  N6  UNL     1       9.585  27.280   0.458  1.00  0.00    -0.416 N 
HETATM   25  C30 UNL     1      10.938  27.624   0.286  1.00  0.00     0.140 C 
ATOM     26  H6  UNL     1       8.868  27.731  -0.110  1.00  0.00     0.153 HD
ENDBRANCH   6  24
ENDBRANCH   5   6
ENDBRANCH   1   5
BRANCH   3  27
HETATM   27  C18 UNL     1       9.424  23.639  -2.612  1.00  0.00     0.310 C 
HETATM   28  O3  UNL     1       9.432  22.361  -2.560  1.00  0.00    -0.262 OA
HETATM   29  N3  UNL     1      10.105  24.321  -3.631  1.00  0.00    -0.341 N 
ATOM     30  H3  UNL     1      10.091  25.340  -3.664  1.00  0.00     0.163 HD
BRANCH  29  31
HETATM   31  C19 UNL     1      10.829  23.567  -4.636  1.00  0.00     0.166 C 
BRANCH  31  32
HETATM   32  C20 UNL     1      10.096  23.606  -5.911  1.00  0.00     0.215 C 
HETATM   33  O4  UNL     1      10.412  24.532  -6.730  1.00  0.00    -0.287 OA
BRANCH  32  34
HETATM   34  C21 UNL     1       9.054  22.656  -6.262  1.00  0.00     0.154 A 
HETATM   35  N4  UNL     1       8.390  22.653  -7.449  1.00  0.00    -0.341 N 
HETATM   36  C22 UNL     1       7.513  21.629  -7.441  1.00  0.00     0.029 A 
ATOM     37  H4  UNL     1       8.531  23.313  -8.214  1.00  0.00     0.167 HD
HETATM   38  C26 UNL     1       7.642  20.994  -6.234  1.00  0.00     0.115 A 
HETATM   39  N5  UNL     1       8.605  21.655  -5.526  1.00  0.00    -0.347 N 
ATOM     40  H5  UNL     1       8.924  21.416  -4.587  1.00  0.00     0.167 HD
BRANCH  36  41
HETATM   41  C23 UNL     1       6.605  21.307  -8.577  1.00  0.00     0.029 C 
HETATM   42  C24 UNL     1       6.232  19.842  -8.434  1.00  0.00     0.016 C 
HETATM   43  C25 UNL     1       5.355  22.161  -8.524  1.00  0.00     0.016 C 
ENDBRANCH  36  41
ENDBRANCH  32  34
ENDBRANCH  31  32
BRANCH  31  44
HETATM   44  C27 UNL     1      12.206  24.206  -4.828  1.00  0.00     0.008 C 
HETATM   45  C28 UNL     1      12.453  25.263  -3.768  1.00  0.00     0.012 C 
HETATM   46  C29 UNL     1      13.237  23.129  -4.717  1.00  0.00     0.012 C 
ENDBRANCH  31  44
ENDBRANCH  29  31
ENDBRANCH   3  27
TORSDOF 15
ENDMDL
