MODEL 1
REMARK VINA RESULT: -9.019488725      0.000      0.000
REMARK  10 active torsions:
REMARK  status: ('A' for Active; 'I' for Inactive)
REMARK    1  A    between atoms: C2_2  and  C3_3 
REMARK    2  A    between atoms: C3_3  and  C4_4 
REMARK    3  A    between atoms: C4_4  and  C5_5 
REMARK    4  A    between atoms: C5_5  and  C6_6 
REMARK    5  A    between atoms: C6_6  and  N1_7 
REMARK       I    between atoms: N1_7  and  C7_9 
REMARK       I    between atoms: C7_9  and  N2_11 
REMARK    6  A    between atoms: N2_11  and  C8_13 
REMARK    7  A    between atoms: C8_13  and  C9_14 
REMARK    8  A    between atoms: C9_14  and  C10_15 
REMARK    9  A    between atoms: C10_15  and  N3_16 
REMARK       I    between atoms: N3_16  and  C11_18 
REMARK   10  A    between atoms: C11_18  and  C12_20 
ROOT
HETATM    1  N3  UNL     1     -11.433 -26.138  -0.518  1.00  0.00    -0.361 N 
ATOM      2  H3  UNL     1     -11.002 -26.854  -1.101  1.00  0.00     0.162 HD
HETATM    3  C11 UNL     1     -12.771 -25.744  -0.830  1.00  0.00     0.223 C 
HETATM    4  O2  UNL     1     -13.235 -24.864  -0.079  1.00  0.00    -0.273 OA
ENDROOT
BRANCH   1   5
HETATM    5  C10 UNL     1     -10.656 -25.596   0.557  1.00  0.00     0.124 C 
BRANCH   5   6
HETATM    6  C9  UNL     1      -9.539 -24.687   0.136  1.00  0.00     0.039 C 
BRANCH   6   7
HETATM    7  C8  UNL     1      -9.863 -23.263   0.494  1.00  0.00     0.126 C 
BRANCH   7   8
HETATM    8  N2  UNL     1     -10.406 -23.115   1.804  1.00  0.00    -0.343 N 
HETATM    9  C7  UNL     1     -10.594 -21.787   2.387  1.00  0.00     0.316 C 
HETATM   10  N1  UNL     1     -11.125 -21.695   3.664  1.00  0.00    -0.343 N 
HETATM   11  O1  UNL     1     -10.258 -20.825   1.684  1.00  0.00    -0.247 OA
ATOM     12  H1  UNL     1     -11.355 -22.606   4.060  1.00  0.00     0.164 HD
ATOM     13  H2  UNL     1     -10.667 -23.943   2.339  1.00  0.00     0.164 HD
BRANCH  10  14
HETATM   14  C6  UNL     1     -11.419 -20.627   4.541  1.00  0.00     0.124 C 
BRANCH  14  15
HETATM   15  C5  UNL     1     -10.625 -19.397   4.486  1.00  0.00     0.020 C 
BRANCH  15  16
HETATM   16  C4  UNL     1     -10.622 -18.406   5.572  1.00  0.00     0.002 C 
BRANCH  16  17
HETATM   17  C3  UNL     1      -9.349 -17.585   5.678  1.00  0.00    -0.000 C 
BRANCH  17  18
HETATM   18  C2  UNL     1      -8.790 -17.323   4.292  1.00  0.00    -0.005 C 
HETATM   19  C1  UNL     1      -9.106 -15.918   3.829  1.00  0.00     0.005 C 
ENDBRANCH  17  18
ENDBRANCH  16  17
ENDBRANCH  15  16
ENDBRANCH  14  15
ENDBRANCH  10  14
ENDBRANCH   7   8
ENDBRANCH   6   7
ENDBRANCH   5   6
ENDBRANCH   1   5
BRANCH   3  20
HETATM   20  C12 UNL     1     -13.421 -26.392  -1.951  1.00  0.00     0.091 C 
HETATM   21  C13 UNL     1     -14.562 -25.854  -2.675  1.00  0.00     0.009 C 
HETATM   22  C14 UNL     1     -14.913 -24.437  -2.759  1.00  0.00     0.007 C 
HETATM   23  C22 UNL     1     -15.498 -26.718  -1.870  1.00  0.00    -0.001 C 
HETATM   24  C15 UNL     1     -14.824 -23.922  -4.216  1.00  0.00     0.013 C 
HETATM   25  C18 UNL     1     -16.292 -24.035  -2.407  1.00  0.00     0.021 C 
HETATM   26  C16 UNL     1     -16.162 -24.439  -4.747  1.00  0.00     0.079 C 
HETATM   27  C17 UNL     1     -17.072 -23.905  -3.696  1.00  0.00     0.135 C 
HETATM   28  O3  UNL     1     -18.182 -23.458  -3.777  1.00  0.00    -0.297 OA
HETATM   29  C19 UNL     1     -16.306 -22.616  -1.814  1.00  0.00     0.024 C 
HETATM   30  C20 UNL     1     -17.061 -24.906  -1.509  1.00  0.00     0.018 C 
HETATM   31  C21 UNL     1     -16.273 -25.998  -0.832  1.00  0.00     0.007 C 
HETATM   32  C23 UNL     1     -14.319 -27.533  -1.460  1.00  0.00    -0.031 C 
HETATM   33  C24 UNL     1     -14.170 -28.818  -2.254  1.00  0.00     0.016 C 
HETATM   34  C25 UNL     1     -14.290 -27.774   0.013  1.00  0.00     0.016 C 
ENDBRANCH   3  20
TORSDOF 10
ENDMDL
MODEL 2
REMARK VINA RESULT: -8.490710294      2.847      5.346
REMARK  10 active torsions:
REMARK  status: ('A' for Active; 'I' for Inactive)
REMARK    1  A    between atoms: C2_2  and  C3_3 
REMARK    2  A    between atoms: C3_3  and  C4_4 
REMARK    3  A    between atoms: C4_4  and  C5_5 
REMARK    4  A    between atoms: C5_5  and  C6_6 
REMARK    5  A    between atoms: C6_6  and  N1_7 
REMARK       I    between atoms: N1_7  and  C7_9 
REMARK       I    between atoms: C7_9  and  N2_11 
REMARK    6  A    between atoms: N2_11  and  C8_13 
REMARK    7  A    between atoms: C8_13  and  C9_14 
REMARK    8  A    between atoms: C9_14  and  C10_15 
REMARK    9  A    between atoms: C10_15  and  N3_16 
REMARK       I    between atoms: N3_16  and  C11_18 
REMARK   10  A    between atoms: C11_18  and  C12_20 
ROOT
HETATM    1  N3  UNL     1     -12.493 -26.009   0.844  1.00  0.00    -0.361 N 
ATOM      2  H3  UNL     1     -13.362 -25.526   0.615  1.00  0.00     0.162 HD
HETATM    3  C11 UNL     1     -12.445 -27.422   0.641  1.00  0.00     0.223 C 
HETATM    4  O2  UNL     1     -11.355 -27.947   0.943  1.00  0.00    -0.273 OA
ENDROOT
BRANCH   1   5
HETATM    5  C10 UNL     1     -11.407 -25.222   1.347  1.00  0.00     0.124 C 
BRANCH   5   6
HETATM    6  C9  UNL     1     -10.688 -24.400   0.318  1.00  0.00     0.039 C 
BRANCH   6   7
HETATM    7  C8  UNL     1     -10.031 -23.213   0.966  1.00  0.00     0.126 C 
BRANCH   7   8
HETATM    8  N2  UNL     1     -10.552 -22.908   2.257  1.00  0.00    -0.343 N 
HETATM    9  C7  UNL     1     -10.708 -21.520   2.689  1.00  0.00     0.316 C 
HETATM   10  N1  UNL     1     -11.218 -21.275   3.954  1.00  0.00    -0.343 N 
HETATM   11  O1  UNL     1     -10.367 -20.649   1.878  1.00  0.00    -0.247 OA
ATOM     12  H1  UNL     1     -11.458 -22.131   4.454  1.00  0.00     0.164 HD
ATOM     13  H2  UNL     1     -10.818 -23.666   2.886  1.00  0.00     0.164 HD
BRANCH  10  14
HETATM   14  C6  UNL     1     -11.481 -20.110   4.709  1.00  0.00     0.124 C 
BRANCH  14  15
HETATM   15  C5  UNL     1     -10.378 -19.226   5.096  1.00  0.00     0.020 C 
BRANCH  15  16
HETATM   16  C4  UNL     1      -9.878 -18.154   4.223  1.00  0.00     0.002 C 
BRANCH  16  17
HETATM   17  C3  UNL     1      -9.321 -16.947   4.957  1.00  0.00    -0.000 C 
BRANCH  17  18
HETATM   18  C2  UNL     1      -9.309 -17.214   6.450  1.00  0.00    -0.005 C 
HETATM   19  C1  UNL     1      -9.793 -16.011   7.227  1.00  0.00     0.005 C 
ENDBRANCH  17  18
ENDBRANCH  16  17
ENDBRANCH  15  16
ENDBRANCH  14  15
ENDBRANCH  10  14
ENDBRANCH   7   8
ENDBRANCH   6   7
ENDBRANCH   5   6
ENDBRANCH   1   5
BRANCH   3  20
HETATM   20  C12 UNL     1     -13.632 -28.070   0.122  1.00  0.00     0.091 C 
HETATM   21  C13 UNL     1     -13.788 -29.506  -0.051  1.00  0.00     0.009 C 
HETATM   22  C14 UNL     1     -13.056 -30.527   0.697  1.00  0.00     0.007 C 
HETATM   23  C22 UNL     1     -13.440 -29.382  -1.512  1.00  0.00    -0.001 C 
HETATM   24  C15 UNL     1     -14.012 -31.384   1.561  1.00  0.00     0.013 C 
HETATM   25  C18 UNL     1     -12.351 -31.581  -0.064  1.00  0.00     0.021 C 
HETATM   26  C16 UNL     1     -14.538 -32.335   0.485  1.00  0.00     0.079 C 
HETATM   27  C17 UNL     1     -13.247 -32.799  -0.093  1.00  0.00     0.135 C 
HETATM   28  O3  UNL     1     -12.918 -33.875  -0.508  1.00  0.00    -0.297 OA
HETATM   29  C19 UNL     1     -11.100 -32.053   0.697  1.00  0.00     0.024 C 
HETATM   30  C20 UNL     1     -11.953 -31.290  -1.448  1.00  0.00     0.018 C 
HETATM   31  C21 UNL     1     -12.080 -29.850  -1.870  1.00  0.00     0.007 C 
HETATM   32  C23 UNL     1     -13.699 -27.918  -1.402  1.00  0.00    -0.031 C 
HETATM   33  C24 UNL     1     -15.066 -27.509  -1.920  1.00  0.00     0.016 C 
HETATM   34  C25 UNL     1     -12.601 -27.109  -2.008  1.00  0.00     0.016 C 
ENDBRANCH   3  20
TORSDOF 10
ENDMDL
MODEL 3
REMARK VINA RESULT: -8.486052074      2.797      5.324
REMARK  10 active torsions:
REMARK  status: ('A' for Active; 'I' for Inactive)
REMARK    1  A    between atoms: C2_2  and  C3_3 
REMARK    2  A    between atoms: C3_3  and  C4_4 
REMARK    3  A    between atoms: C4_4  and  C5_5 
REMARK    4  A    between atoms: C5_5  and  C6_6 
REMARK    5  A    between atoms: C6_6  and  N1_7 
REMARK       I    between atoms: N1_7  and  C7_9 
REMARK       I    between atoms: C7_9  and  N2_11 
REMARK    6  A    between atoms: N2_11  and  C8_13 
REMARK    7  A    between atoms: C8_13  and  C9_14 
REMARK    8  A    between atoms: C9_14  and  C10_15 
REMARK    9  A    between atoms: C10_15  and  N3_16 
REMARK       I    between atoms: N3_16  and  C11_18 
REMARK   10  A    between atoms: C11_18  and  C12_20 
ROOT
HETATM    1  N3  UNL     1     -12.572 -25.600   0.542  1.00  0.00    -0.361 N 
ATOM      2  H3  UNL     1     -13.473 -25.167   0.341  1.00  0.00     0.162 HD
HETATM    3  C11 UNL     1     -12.478 -27.021   0.426  1.00  0.00     0.223 C 
HETATM    4  O2  UNL     1     -11.349 -27.483   0.687  1.00  0.00    -0.273 OA
ENDROOT
BRANCH   1   5
HETATM    5  C10 UNL     1     -11.489 -24.741   0.919  1.00  0.00     0.124 C 
BRANCH   5   6
HETATM    6  C9  UNL     1     -11.599 -24.149   2.294  1.00  0.00     0.039 C 
BRANCH   6   7
HETATM    7  C8  UNL     1     -10.814 -22.869   2.373  1.00  0.00     0.126 C 
BRANCH   7   8
HETATM    8  N2  UNL     1     -10.989 -22.170   3.604  1.00  0.00    -0.343 N 
HETATM    9  C7  UNL     1     -10.900 -20.712   3.651  1.00  0.00     0.316 C 
HETATM   10  N1  UNL     1     -11.076 -20.078   4.871  1.00  0.00    -0.343 N 
HETATM   11  O1  UNL     1     -10.670 -20.139   2.578  1.00  0.00    -0.247 OA
ATOM     12  H1  UNL     1     -11.279 -20.731   5.628  1.00  0.00     0.164 HD
ATOM     13  H2  UNL     1     -11.177 -22.693   4.459  1.00  0.00     0.164 HD
BRANCH  10  14
HETATM   14  C6  UNL     1     -11.039 -18.733   5.305  1.00  0.00     0.124 C 
BRANCH  14  15
HETATM   15  C5  UNL     1      -9.754 -18.040   5.423  1.00  0.00     0.020 C 
BRANCH  15  16
HETATM   16  C4  UNL     1      -9.174 -17.254   4.324  1.00  0.00     0.002 C 
BRANCH  16  17
HETATM   17  C3  UNL     1      -9.586 -15.792   4.305  1.00  0.00    -0.000 C 
BRANCH  17  18
HETATM   18  C2  UNL     1      -9.776 -15.293   5.725  1.00  0.00    -0.005 C 
HETATM   19  C1  UNL     1      -9.112 -13.950   5.928  1.00  0.00     0.005 C 
ENDBRANCH  17  18
ENDBRANCH  16  17
ENDBRANCH  15  16
ENDBRANCH  14  15
ENDBRANCH  10  14
ENDBRANCH   7   8
ENDBRANCH   6   7
ENDBRANCH   5   6
ENDBRANCH   1   5
BRANCH   3  20
HETATM   20  C12 UNL     1     -13.667 -27.746   0.031  1.00  0.00     0.091 C 
HETATM   21  C13 UNL     1     -13.772 -29.195  -0.043  1.00  0.00     0.009 C 
HETATM   22  C14 UNL     1     -12.948 -30.138   0.712  1.00  0.00     0.007 C 
HETATM   23  C22 UNL     1     -13.528 -29.151  -1.529  1.00  0.00    -0.001 C 
HETATM   24  C15 UNL     1     -13.807 -30.975   1.691  1.00  0.00     0.013 C 
HETATM   25  C18 UNL     1     -12.251 -31.209  -0.030  1.00  0.00     0.021 C 
HETATM   26  C16 UNL     1     -14.362 -32.012   0.714  1.00  0.00     0.079 C 
HETATM   27  C17 UNL     1     -13.093 -32.461   0.077  1.00  0.00     0.135 C 
HETATM   28  O3  UNL     1     -12.747 -33.547  -0.294  1.00  0.00    -0.297 OA
HETATM   29  C19 UNL     1     -10.933 -31.582   0.670  1.00  0.00     0.024 C 
HETATM   30  C20 UNL     1     -11.959 -30.992  -1.453  1.00  0.00     0.018 C 
HETATM   31  C21 UNL     1     -12.176 -29.587  -1.952  1.00  0.00     0.007 C 
HETATM   32  C23 UNL     1     -13.842 -27.694  -1.491  1.00  0.00    -0.031 C 
HETATM   33  C24 UNL     1     -15.257 -27.372  -1.937  1.00  0.00     0.016 C 
HETATM   34  C25 UNL     1     -12.823 -26.883  -2.219  1.00  0.00     0.016 C 
ENDBRANCH   3  20
TORSDOF 10
ENDMDL
MODEL 4
REMARK VINA RESULT: -8.482881945      5.753     14.759
REMARK  10 active torsions:
REMARK  status: ('A' for Active; 'I' for Inactive)
REMARK    1  A    between atoms: C2_2  and  C3_3 
REMARK    2  A    between atoms: C3_3  and  C4_4 
REMARK    3  A    between atoms: C4_4  and  C5_5 
REMARK    4  A    between atoms: C5_5  and  C6_6 
REMARK    5  A    between atoms: C6_6  and  N1_7 
REMARK       I    between atoms: N1_7  and  C7_9 
REMARK       I    between atoms: C7_9  and  N2_11 
REMARK    6  A    between atoms: N2_11  and  C8_13 
REMARK    7  A    between atoms: C8_13  and  C9_14 
REMARK    8  A    between atoms: C9_14  and  C10_15 
REMARK    9  A    between atoms: C10_15  and  N3_16 
REMARK       I    between atoms: N3_16  and  C11_18 
REMARK   10  A    between atoms: C11_18  and  C12_20 
ROOT
HETATM    1  N3  UNL     1      -9.347 -16.083   7.237  1.00  0.00    -0.361 N 
ATOM      2  H3  UNL     1      -8.394 -16.169   6.885  1.00  0.00     0.162 HD
HETATM    3  C11 UNL     1      -9.702 -14.871   7.907  1.00  0.00     0.223 C 
HETATM    4  O2  UNL     1     -10.880 -14.835   8.312  1.00  0.00    -0.273 OA
ENDROOT
BRANCH   1   5
HETATM    5  C10 UNL     1     -10.238 -17.185   7.025  1.00  0.00     0.124 C 
BRANCH   5   6
HETATM    6  C9  UNL     1      -9.904 -18.052   5.846  1.00  0.00     0.039 C 
BRANCH   6   7
HETATM    7  C8  UNL     1     -11.163 -18.556   5.198  1.00  0.00     0.126 C 
BRANCH   7   8
HETATM    8  N2  UNL     1     -11.193 -19.972   5.036  1.00  0.00    -0.343 N 
HETATM    9  C7  UNL     1     -10.964 -20.577   3.725  1.00  0.00     0.316 C 
HETATM   10  N1  UNL     1     -11.003 -21.958   3.618  1.00  0.00    -0.343 N 
HETATM   11  O1  UNL     1     -10.747 -19.796   2.788  1.00  0.00    -0.247 OA
ATOM     12  H1  UNL     1     -11.174 -22.417   4.512  1.00  0.00     0.164 HD
ATOM     13  H2  UNL     1     -11.376 -20.569   5.842  1.00  0.00     0.164 HD
BRANCH  10  14
HETATM   14  C6  UNL     1     -10.861 -22.875   2.552  1.00  0.00     0.124 C 
BRANCH  14  15
HETATM   15  C5  UNL     1      -9.946 -22.576   1.448  1.00  0.00     0.020 C 
BRANCH  15  16
HETATM   16  C4  UNL     1      -9.441 -23.611   0.534  1.00  0.00     0.002 C 
BRANCH  16  17
HETATM   17  C3  UNL     1     -10.519 -24.382  -0.207  1.00  0.00    -0.000 C 
BRANCH  17  18
HETATM   18  C2  UNL     1      -9.886 -25.489  -1.029  1.00  0.00    -0.005 C 
HETATM   19  C1  UNL     1     -10.796 -26.693  -1.122  1.00  0.00     0.005 C 
ENDBRANCH  17  18
ENDBRANCH  16  17
ENDBRANCH  15  16
ENDBRANCH  14  15
ENDBRANCH  10  14
ENDBRANCH   7   8
ENDBRANCH   6   7
ENDBRANCH   5   6
ENDBRANCH   1   5
BRANCH   3  20
HETATM   20  C12 UNL     1      -8.683 -13.850   8.037  1.00  0.00     0.091 C 
HETATM   21  C13 UNL     1      -8.666 -12.819   9.063  1.00  0.00     0.009 C 
HETATM   22  C14 UNL     1      -9.316 -12.921  10.369  1.00  0.00     0.007 C 
HETATM   23  C22 UNL     1      -9.272 -11.831   8.101  1.00  0.00    -0.001 C 
HETATM   24  C15 UNL     1      -8.278 -12.887  11.517  1.00  0.00     0.013 C 
HETATM   25  C18 UNL     1     -10.225 -11.832  10.785  1.00  0.00     0.021 C 
HETATM   26  C16 UNL     1      -8.033 -11.380  11.590  1.00  0.00     0.079 C 
HETATM   27  C17 UNL     1      -9.441 -10.901  11.683  1.00  0.00     0.135 C 
HETATM   28  O3  UNL     1      -9.917  -9.993  12.304  1.00  0.00    -0.297 OA
HETATM   29  C19 UNL     1     -11.341 -12.377  11.693  1.00  0.00     0.024 C 
HETATM   30  C20 UNL     1     -10.854 -11.014   9.740  1.00  0.00     0.018 C 
HETATM   31  C21 UNL     1     -10.705 -11.534   8.333  1.00  0.00     0.007 C 
HETATM   32  C23 UNL     1      -8.893 -12.751   6.990  1.00  0.00    -0.031 C 
HETATM   33  C24 UNL     1      -7.622 -12.334   6.272  1.00  0.00     0.016 C 
HETATM   34  C25 UNL     1     -10.024 -12.983   6.045  1.00  0.00     0.016 C 
ENDBRANCH   3  20
TORSDOF 10
ENDMDL
MODEL 5
REMARK VINA RESULT: -8.350057215      1.081      1.538
REMARK  10 active torsions:
REMARK  status: ('A' for Active; 'I' for Inactive)
REMARK    1  A    between atoms: C2_2  and  C3_3 
REMARK    2  A    between atoms: C3_3  and  C4_4 
REMARK    3  A    between atoms: C4_4  and  C5_5 
REMARK    4  A    between atoms: C5_5  and  C6_6 
REMARK    5  A    between atoms: C6_6  and  N1_7 
REMARK       I    between atoms: N1_7  and  C7_9 
REMARK       I    between atoms: C7_9  and  N2_11 
REMARK    6  A    between atoms: N2_11  and  C8_13 
REMARK    7  A    between atoms: C8_13  and  C9_14 
REMARK    8  A    between atoms: C9_14  and  C10_15 
REMARK    9  A    between atoms: C10_15  and  N3_16 
REMARK       I    between atoms: N3_16  and  C11_18 
REMARK   10  A    between atoms: C11_18  and  C12_20 
ROOT
HETATM    1  N3  UNL     1     -11.126 -25.790  -0.571  1.00  0.00    -0.361 N 
ATOM      2  H3  UNL     1     -10.619 -26.388  -1.223  1.00  0.00     0.162 HD
HETATM    3  C11 UNL     1     -12.527 -25.610  -0.787  1.00  0.00     0.223 C 
HETATM    4  O2  UNL     1     -13.083 -24.866   0.045  1.00  0.00    -0.273 OA
ENDROOT
BRANCH   1   5
HETATM    5  C10 UNL     1     -10.384 -25.190   0.498  1.00  0.00     0.124 C 
BRANCH   5   6
HETATM    6  C9  UNL     1      -9.924 -23.785   0.239  1.00  0.00     0.039 C 
BRANCH   6   7
HETATM    7  C8  UNL     1     -10.325 -22.888   1.377  1.00  0.00     0.126 C 
BRANCH   7   8
HETATM    8  N2  UNL     1      -9.388 -21.846   1.638  1.00  0.00    -0.343 N 
HETATM    9  C7  UNL     1      -9.793 -20.644   2.365  1.00  0.00     0.316 C 
HETATM   10  N1  UNL     1      -8.846 -19.659   2.594  1.00  0.00    -0.343 N 
HETATM   11  O1  UNL     1     -10.975 -20.594   2.731  1.00  0.00    -0.247 OA
ATOM     12  H1  UNL     1      -7.926 -19.906   2.230  1.00  0.00     0.164 HD
ATOM     13  H2  UNL     1      -8.426 -21.940   1.314  1.00  0.00     0.164 HD
BRANCH  10  14
HETATM   14  C6  UNL     1      -8.865 -18.389   3.215  1.00  0.00     0.124 C 
BRANCH  14  15
HETATM   15  C5  UNL     1      -9.609 -18.198   4.463  1.00  0.00     0.020 C 
BRANCH  15  16
HETATM   16  C4  UNL     1      -8.999 -17.615   5.667  1.00  0.00     0.002 C 
BRANCH  16  17
HETATM   17  C3  UNL     1      -9.992 -17.149   6.717  1.00  0.00    -0.000 C 
BRANCH  17  18
HETATM   18  C2  UNL     1     -11.295 -16.749   6.051  1.00  0.00    -0.005 C 
HETATM   19  C1  UNL     1     -12.487 -17.305   6.799  1.00  0.00     0.005 C 
ENDBRANCH  17  18
ENDBRANCH  16  17
ENDBRANCH  15  16
ENDBRANCH  14  15
ENDBRANCH  10  14
ENDBRANCH   7   8
ENDBRANCH   6   7
ENDBRANCH   5   6
ENDBRANCH   1   5
BRANCH   3  20
HETATM   20  C12 UNL     1     -13.129 -26.290  -1.916  1.00  0.00     0.091 C 
HETATM   21  C13 UNL     1     -14.316 -25.838  -2.623  1.00  0.00     0.009 C 
HETATM   22  C14 UNL     1     -14.785 -24.454  -2.680  1.00  0.00     0.007 C 
HETATM   23  C22 UNL     1     -15.170 -26.791  -1.828  1.00  0.00    -0.001 C 
HETATM   24  C15 UNL     1     -14.751 -23.908  -4.128  1.00  0.00     0.013 C 
HETATM   25  C18 UNL     1     -16.190 -24.175  -2.313  1.00  0.00     0.021 C 
HETATM   26  C16 UNL     1     -16.044 -24.526  -4.660  1.00  0.00     0.079 C 
HETATM   27  C17 UNL     1     -16.988 -24.089  -3.594  1.00  0.00     0.135 C 
HETATM   28  O3  UNL     1     -18.132 -23.735  -3.661  1.00  0.00    -0.297 OA
HETATM   29  C19 UNL     1     -16.318 -22.772  -1.695  1.00  0.00     0.024 C 
HETATM   30  C20 UNL     1     -16.877 -25.123  -1.426  1.00  0.00     0.018 C 
HETATM   31  C21 UNL     1     -15.996 -26.156  -0.773  1.00  0.00     0.007 C 
HETATM   32  C23 UNL     1     -13.924 -27.511  -1.440  1.00  0.00    -0.031 C 
HETATM   33  C24 UNL     1     -13.674 -28.765  -2.257  1.00  0.00     0.016 C 
HETATM   34  C25 UNL     1     -13.864 -27.774   0.029  1.00  0.00     0.016 C 
ENDBRANCH   3  20
TORSDOF 10
ENDMDL
