MODEL 1
REMARK VINA RESULT: -7.067056317      0.000      0.000
REMARK  7 active torsions:
REMARK  status: ('A' for Active; 'I' for Inactive)
REMARK    1  A    between atoms: C2_2  and  C3_3 
REMARK    2  A    between atoms: C3_3  and  C4_4 
REMARK    3  A    between atoms: C4_4  and  C5_5 
REMARK    4  A    between atoms: C7_8  and  N1_10 
REMARK       I    between atoms: N1_10  and  C9_12 
REMARK    5  A    between atoms: C9_12  and  C10_14 
REMARK    6  A    between atoms: C13_17  and  N2_18 
REMARK    7  A    between atoms: N2_18  and  C14_20 
ROOT
HETATM    1  N1  UNL     1      -2.086  25.966  53.791  1.00  0.00    -0.350 N 
ATOM      2  H1  UNL     1      -1.429  25.475  54.397  1.00  0.00     0.163 HD
HETATM    3  C9  UNL     1      -1.746  26.223  52.446  1.00  0.00     0.222 C 
HETATM    4  O1  UNL     1      -2.565  26.829  51.710  1.00  0.00    -0.273 OA
ENDROOT
BRANCH   1   5
HETATM    5  C7  UNL     1      -3.389  26.407  54.325  1.00  0.00     0.048 C 
HETATM    6  C6  UNL     1      -4.429  25.413  53.990  1.00  0.00     0.079 C 
HETATM    7  C4  UNL     1      -5.826  25.988  53.723  1.00  0.00     0.130 C 
HETATM    8  O3  UNL     1      -5.676  27.285  53.149  1.00  0.00    -0.269 OA
HETATM    9  N3  UNL     1      -5.028  28.097  54.014  1.00  0.00    -0.097 NA
HETATM   10  C16 UNL     1      -3.619  27.804  53.823  1.00  0.00     0.173 C 
HETATM   11  C8  UNL     1      -3.190  26.525  55.844  1.00  0.00     0.040 C 
BRANCH   7  12
HETATM   12  C3  UNL     1      -6.541  26.179  54.977  1.00  0.00     0.011 C 
BRANCH  12  13
HETATM   13  C2  UNL     1      -7.968  26.420  55.112  1.00  0.00    -0.032 C 
HETATM   14  C1  UNL     1      -8.513  27.739  55.501  1.00  0.00     0.036 C 
ENDBRANCH  12  13
ENDBRANCH   7  12
BRANCH   7  15
HETATM   15  C5  UNL     1      -6.407  25.164  52.643  1.00  0.00     0.266 C 
HETATM   16  F1  UNL     1      -7.425  25.678  51.901  1.00  0.00    -0.252 F 
ENDBRANCH   7  15
ENDBRANCH   1   5
BRANCH   3  17
HETATM   17  C10 UNL     1      -0.467  25.806  51.872  1.00  0.00     0.080 C 
HETATM   18  C11 UNL     1       0.449  27.000  51.585  1.00  0.00     0.016 C 
HETATM   19  C12 UNL     1       1.752  26.285  51.288  1.00  0.00     0.026 C 
HETATM   20  C13 UNL     1       1.792  25.167  52.307  1.00  0.00     0.084 C 
HETATM   21  C15 UNL     1       0.385  25.011  52.835  1.00  0.00     0.039 C 
BRANCH  20  22
HETATM   22  N2  UNL     1       2.268  23.960  51.653  1.00  0.00    -0.364 N 
ATOM     23  H2  UNL     1       2.951  24.040  50.899  1.00  0.00     0.162 HD
BRANCH  22  24
HETATM   24  C14 UNL     1       1.811  22.674  52.033  1.00  0.00     0.348 C 
HETATM   25  O2  UNL     1       2.339  22.040  52.981  1.00  0.00    -0.284 OA
ENDBRANCH  22  24
ENDBRANCH  20  22
ENDBRANCH   3  17
TORSDOF 7
ENDMDL
MODEL 2
REMARK VINA RESULT: -7.042040940      1.748      2.114
REMARK  7 active torsions:
REMARK  status: ('A' for Active; 'I' for Inactive)
REMARK    1  A    between atoms: C2_2  and  C3_3 
REMARK    2  A    between atoms: C3_3  and  C4_4 
REMARK    3  A    between atoms: C4_4  and  C5_5 
REMARK    4  A    between atoms: C7_8  and  N1_10 
REMARK       I    between atoms: N1_10  and  C9_12 
REMARK    5  A    between atoms: C9_12  and  C10_14 
REMARK    6  A    between atoms: C13_17  and  N2_18 
REMARK    7  A    between atoms: N2_18  and  C14_20 
ROOT
HETATM    1  N1  UNL     1      -3.143  26.646  54.956  1.00  0.00    -0.350 N 
ATOM      2  H1  UNL     1      -2.334  26.509  55.562  1.00  0.00     0.163 HD
HETATM    3  C9  UNL     1      -3.114  26.171  53.628  1.00  0.00     0.222 C 
HETATM    4  O1  UNL     1      -4.118  26.345  52.891  1.00  0.00    -0.273 OA
ENDROOT
BRANCH   1   5
HETATM    5  C7  UNL     1      -4.338  27.339  55.471  1.00  0.00     0.048 C 
HETATM    6  C6  UNL     1      -5.439  26.372  55.655  1.00  0.00     0.079 C 
HETATM    7  C4  UNL     1      -6.847  26.920  55.394  1.00  0.00     0.130 C 
HETATM    8  O3  UNL     1      -6.759  27.923  54.383  1.00  0.00    -0.269 OA
HETATM    9  N3  UNL     1      -5.969  28.934  54.808  1.00  0.00    -0.097 NA
HETATM   10  C16 UNL     1      -4.613  28.489  54.543  1.00  0.00     0.173 C 
HETATM   11  C8  UNL     1      -3.907  27.961  56.808  1.00  0.00     0.040 C 
BRANCH   7  12
HETATM   12  C3  UNL     1      -7.357  27.587  56.585  1.00  0.00     0.011 C 
BRANCH  12  13
HETATM   13  C2  UNL     1      -6.915  27.343  57.948  1.00  0.00    -0.032 C 
HETATM   14  C1  UNL     1      -6.738  28.436  58.929  1.00  0.00     0.036 C 
ENDBRANCH  12  13
ENDBRANCH   7  12
BRANCH   7  15
HETATM   15  C5  UNL     1      -7.605  25.819  54.766  1.00  0.00     0.266 C 
HETATM   16  F1  UNL     1      -6.931  24.717  54.339  1.00  0.00    -0.252 F 
ENDBRANCH   7  15
ENDBRANCH   1   5
BRANCH   3  17
HETATM   17  C10 UNL     1      -1.953  25.478  53.072  1.00  0.00     0.080 C 
HETATM   18  C11 UNL     1      -1.113  26.394  52.176  1.00  0.00     0.016 C 
HETATM   19  C12 UNL     1       0.125  25.539  51.987  1.00  0.00     0.026 C 
HETATM   20  C13 UNL     1       0.354  24.928  53.352  1.00  0.00     0.084 C 
HETATM   21  C15 UNL     1      -0.937  25.087  54.121  1.00  0.00     0.039 C 
BRANCH  20  22
HETATM   22  N2  UNL     1       0.719  23.531  53.180  1.00  0.00    -0.364 N 
ATOM     23  H2  UNL     1       0.372  22.842  53.846  1.00  0.00     0.162 HD
BRANCH  22  24
HETATM   24  C14 UNL     1       1.546  23.102  52.112  1.00  0.00     0.348 C 
HETATM   25  O2  UNL     1       1.417  21.964  51.595  1.00  0.00    -0.284 OA
ENDBRANCH  22  24
ENDBRANCH  20  22
ENDBRANCH   3  17
TORSDOF 7
ENDMDL
MODEL 3
REMARK VINA RESULT: -6.914066948      2.294      2.825
REMARK  7 active torsions:
REMARK  status: ('A' for Active; 'I' for Inactive)
REMARK    1  A    between atoms: C2_2  and  C3_3 
REMARK    2  A    between atoms: C3_3  and  C4_4 
REMARK    3  A    between atoms: C4_4  and  C5_5 
REMARK    4  A    between atoms: C7_8  and  N1_10 
REMARK       I    between atoms: N1_10  and  C9_12 
REMARK    5  A    between atoms: C9_12  and  C10_14 
REMARK    6  A    between atoms: C13_17  and  N2_18 
REMARK    7  A    between atoms: N2_18  and  C14_20 
ROOT
HETATM    1  N1  UNL     1      -2.721  27.029  52.631  1.00  0.00    -0.350 N 
ATOM      2  H1  UNL     1      -2.528  27.534  51.765  1.00  0.00     0.163 HD
HETATM    3  C9  UNL     1      -1.867  25.983  53.040  1.00  0.00     0.222 C 
HETATM    4  O1  UNL     1      -2.116  25.369  54.109  1.00  0.00    -0.273 OA
ENDROOT
BRANCH   1   5
HETATM    5  C7  UNL     1      -3.892  27.394  53.449  1.00  0.00     0.048 C 
HETATM    6  C6  UNL     1      -3.459  27.745  54.817  1.00  0.00     0.079 C 
HETATM    7  C4  UNL     1      -4.442  27.373  55.933  1.00  0.00     0.130 C 
HETATM    8  O3  UNL     1      -5.143  26.194  55.542  1.00  0.00    -0.269 OA
HETATM    9  N3  UNL     1      -5.840  26.431  54.408  1.00  0.00    -0.097 NA
HETATM   10  C16 UNL     1      -4.879  26.266  53.333  1.00  0.00     0.173 C 
HETATM   11  C8  UNL     1      -4.531  28.596  52.735  1.00  0.00     0.040 C 
BRANCH   7  12
HETATM   12  C3  UNL     1      -5.450  28.414  56.085  1.00  0.00     0.011 C 
BRANCH  12  13
HETATM   13  C2  UNL     1      -6.260  28.644  57.270  1.00  0.00    -0.032 C 
HETATM   14  C1  UNL     1      -5.742  29.365  58.453  1.00  0.00     0.036 C 
ENDBRANCH  12  13
ENDBRANCH   7  12
BRANCH   7  15
HETATM   15  C5  UNL     1      -3.615  26.954  57.084  1.00  0.00     0.266 C 
HETATM   16  F1  UNL     1      -2.269  26.841  56.918  1.00  0.00    -0.252 F 
ENDBRANCH   7  15
ENDBRANCH   1   5
BRANCH   3  17
HETATM   17  C10 UNL     1      -0.694  25.584  52.263  1.00  0.00     0.080 C 
HETATM   18  C11 UNL     1       0.102  26.795  51.765  1.00  0.00     0.016 C 
HETATM   19  C12 UNL     1       1.362  26.113  51.269  1.00  0.00     0.026 C 
HETATM   20  C13 UNL     1       1.632  25.050  52.310  1.00  0.00     0.084 C 
HETATM   21  C15 UNL     1       0.350  24.869  53.089  1.00  0.00     0.039 C 
BRANCH  20  22
HETATM   22  N2  UNL     1       2.038  23.830  51.632  1.00  0.00    -0.364 N 
ATOM     23  H2  UNL     1       2.575  23.897  50.768  1.00  0.00     0.162 HD
BRANCH  22  24
HETATM   24  C14 UNL     1       1.706  22.549  52.138  1.00  0.00     0.348 C 
HETATM   25  O2  UNL     1       2.469  21.932  52.924  1.00  0.00    -0.284 OA
ENDBRANCH  22  24
ENDBRANCH  20  22
ENDBRANCH   3  17
TORSDOF 7
ENDMDL
MODEL 4
REMARK VINA RESULT: -6.777661485      1.578      1.677
REMARK  7 active torsions:
REMARK  status: ('A' for Active; 'I' for Inactive)
REMARK    1  A    between atoms: C2_2  and  C3_3 
REMARK    2  A    between atoms: C3_3  and  C4_4 
REMARK    3  A    between atoms: C4_4  and  C5_5 
REMARK    4  A    between atoms: C7_8  and  N1_10 
REMARK       I    between atoms: N1_10  and  C9_12 
REMARK    5  A    between atoms: C9_12  and  C10_14 
REMARK    6  A    between atoms: C13_17  and  N2_18 
REMARK    7  A    between atoms: N2_18  and  C14_20 
ROOT
HETATM    1  N1  UNL     1      -2.598  26.988  52.732  1.00  0.00    -0.350 N 
ATOM      2  H1  UNL     1      -2.360  27.844  52.231  1.00  0.00     0.163 HD
HETATM    3  C9  UNL     1      -1.774  25.849  52.608  1.00  0.00     0.222 C 
HETATM    4  O1  UNL     1      -2.080  24.800  53.231  1.00  0.00    -0.273 OA
ENDROOT
BRANCH   1   5
HETATM    5  C7  UNL     1      -3.803  26.945  53.581  1.00  0.00     0.048 C 
HETATM    6  C6  UNL     1      -4.633  25.779  53.216  1.00  0.00     0.079 C 
HETATM    7  C4  UNL     1      -6.147  25.982  53.351  1.00  0.00     0.130 C 
HETATM    8  O3  UNL     1      -6.443  27.351  53.081  1.00  0.00    -0.269 OA
HETATM    9  N3  UNL     1      -5.815  28.141  53.982  1.00  0.00    -0.097 NA
HETATM   10  C16 UNL     1      -4.464  28.290  53.474  1.00  0.00     0.173 C 
HETATM   11  C8  UNL     1      -3.283  26.836  55.023  1.00  0.00     0.040 C 
BRANCH   7  12
HETATM   12  C3  UNL     1      -6.569  25.736  54.722  1.00  0.00     0.011 C 
BRANCH  12  13
HETATM   13  C2  UNL     1      -7.778  26.253  55.344  1.00  0.00    -0.032 C 
HETATM   14  C1  UNL     1      -7.745  27.079  56.570  1.00  0.00     0.036 C 
ENDBRANCH  12  13
ENDBRANCH   7  12
BRANCH   7  15
HETATM   15  C5  UNL     1      -6.760  25.238  52.231  1.00  0.00     0.266 C 
HETATM   16  F1  UNL     1      -7.981  24.665  52.413  1.00  0.00    -0.252 F 
ENDBRANCH   7  15
ENDBRANCH   1   5
BRANCH   3  17
HETATM   17  C10 UNL     1      -0.571  25.843  51.778  1.00  0.00     0.080 C 
HETATM   18  C11 UNL     1      -0.010  27.254  51.572  1.00  0.00     0.016 C 
HETATM   19  C12 UNL     1       1.336  26.930  50.954  1.00  0.00     0.026 C 
HETATM   20  C13 UNL     1       1.814  25.728  51.738  1.00  0.00     0.084 C 
HETATM   21  C15 UNL     1       0.603  25.158  52.440  1.00  0.00     0.039 C 
BRANCH  20  22
HETATM   22  N2  UNL     1       2.407  24.777  50.812  1.00  0.00    -0.364 N 
ATOM     23  H2  UNL     1       2.845  23.933  51.180  1.00  0.00     0.162 HD
BRANCH  22  24
HETATM   24  C14 UNL     1       2.395  24.991  49.412  1.00  0.00     0.348 C 
HETATM   25  O2  UNL     1       3.409  25.413  48.800  1.00  0.00    -0.284 OA
ENDBRANCH  22  24
ENDBRANCH  20  22
ENDBRANCH   3  17
TORSDOF 7
ENDMDL
MODEL 5
REMARK VINA RESULT: -6.684610945      4.638      5.650
REMARK  7 active torsions:
REMARK  status: ('A' for Active; 'I' for Inactive)
REMARK    1  A    between atoms: C2_2  and  C3_3 
REMARK    2  A    between atoms: C3_3  and  C4_4 
REMARK    3  A    between atoms: C4_4  and  C5_5 
REMARK    4  A    between atoms: C7_8  and  N1_10 
REMARK       I    between atoms: N1_10  and  C9_12 
REMARK    5  A    between atoms: C9_12  and  C10_14 
REMARK    6  A    between atoms: C13_17  and  N2_18 
REMARK    7  A    between atoms: N2_18  and  C14_20 
ROOT
HETATM    1  N1  UNL     1      -5.118  29.379  53.676  1.00  0.00    -0.350 N 
ATOM      2  H1  UNL     1      -5.610  30.244  53.449  1.00  0.00     0.163 HD
HETATM    3  C9  UNL     1      -4.034  28.956  52.878  1.00  0.00     0.222 C 
HETATM    4  O1  UNL     1      -3.437  27.889  53.169  1.00  0.00    -0.273 OA
ENDROOT
BRANCH   1   5
HETATM    5  C7  UNL     1      -5.544  28.575  54.837  1.00  0.00     0.048 C 
HETATM    6  C6  UNL     1      -4.444  28.492  55.820  1.00  0.00     0.079 C 
HETATM    7  C4  UNL     1      -4.359  27.175  56.601  1.00  0.00     0.130 C 
HETATM    8  O3  UNL     1      -4.826  26.122  55.760  1.00  0.00    -0.269 OA
HETATM    9  N3  UNL     1      -6.116  26.345  55.420  1.00  0.00    -0.097 NA
HETATM   10  C16 UNL     1      -6.057  27.267  54.302  1.00  0.00     0.173 C 
HETATM   11  C8  UNL     1      -6.763  29.308  55.417  1.00  0.00     0.040 C 
BRANCH   7  12
HETATM   12  C3  UNL     1      -5.257  27.210  57.746  1.00  0.00     0.011 C 
BRANCH  12  13
HETATM   13  C2  UNL     1      -5.438  28.335  58.649  1.00  0.00    -0.032 C 
HETATM   14  C1  UNL     1      -6.767  28.729  59.165  1.00  0.00     0.036 C 
ENDBRANCH  12  13
ENDBRANCH   7  12
BRANCH   7  15
HETATM   15  C5  UNL     1      -2.919  26.900  56.782  1.00  0.00     0.266 C 
HETATM   16  F1  UNL     1      -2.198  26.449  55.721  1.00  0.00    -0.252 F 
ENDBRANCH   7  15
ENDBRANCH   1   5
BRANCH   3  17
HETATM   17  C10 UNL     1      -3.576  29.719  51.718  1.00  0.00     0.080 C 
HETATM   18  C11 UNL     1      -4.740  30.370  50.963  1.00  0.00     0.016 C 
HETATM   19  C12 UNL     1      -3.983  31.294  50.030  1.00  0.00     0.026 C 
HETATM   20  C13 UNL     1      -2.868  31.844  50.891  1.00  0.00     0.084 C 
HETATM   21  C15 UNL     1      -2.757  30.934  52.092  1.00  0.00     0.039 C 
BRANCH  20  22
HETATM   22  N2  UNL     1      -1.644  31.867  50.107  1.00  0.00    -0.364 N 
ATOM     23  H2  UNL     1      -0.895  32.506  50.375  1.00  0.00     0.162 HD
BRANCH  22  24
HETATM   24  C14 UNL     1      -1.463  31.027  48.981  1.00  0.00     0.348 C 
HETATM   25  O2  UNL     1      -1.007  29.862  49.094  1.00  0.00    -0.284 OA
ENDBRANCH  22  24
ENDBRANCH  20  22
ENDBRANCH   3  17
TORSDOF 7
ENDMDL
