MODEL 1
REMARK VINA RESULT: -9.533362437      0.000      0.000
REMARK  5 active torsions:
REMARK  status: ('A' for Active; 'I' for Inactive)
REMARK    1  A    between atoms: C2_2  and  C3_4 
REMARK    2  A    between atoms: C3_4  and  C4_5 
REMARK    3  A    between atoms: C5_6  and  C6_7 
REMARK    4  A    between atoms: C6_7  and  C8_9 
REMARK    5  A    between atoms: C20_22  and  O3_23 
ROOT
HETATM    1  C3  UNL     1       4.696   8.740   6.274  1.00  0.00     0.037 C 
HETATM    2  C14 UNL     1       5.476   7.710   7.043  1.00  0.00     0.021 C 
HETATM    3  C15 UNL     1       4.721   6.441   7.290  1.00  0.00     0.004 C 
HETATM    4  C16 UNL     1       3.505   6.590   8.128  1.00  0.00     0.041 C 
HETATM    5  C17 UNL     1       3.588   7.700   9.149  1.00  0.00     0.096 C 
HETATM    6  C18 UNL     1       2.298   7.590   9.974  1.00  0.00     0.046 C 
HETATM    7  C19 UNL     1       2.471   8.206  11.339  1.00  0.00     0.066 C 
HETATM    8  C20 UNL     1       3.809   7.840  11.899  1.00  0.00     0.293 C 
HETATM    9  O4  UNL     1       4.778   8.244  10.974  1.00  0.00    -0.207 OA
HETATM   10  O5  UNL     1       4.700   7.414   9.958  1.00  0.00    -0.227 OA
HETATM   11  C21 UNL     1       3.709   9.059   8.556  1.00  0.00     0.042 C 
HETATM   12  C22 UNL     1       3.475   9.125   7.082  1.00  0.00     0.024 C 
ENDROOT
BRANCH   1  13
HETATM   13  C2  UNL     1       5.587   9.916   6.075  1.00  0.00     0.135 C 
HETATM   14  C1  UNL     1       5.328  10.921   4.998  1.00  0.00     0.092 C 
HETATM   15  O1  UNL     1       6.543  10.040   6.820  1.00  0.00    -0.297 OA
ENDBRANCH   1  13
BRANCH   1  16
HETATM   16  C4  UNL     1       4.314   8.255   4.918  1.00  0.00    -0.013 C 
HETATM   17  C5  UNL     1       3.076   8.045   4.515  1.00  0.00    -0.025 C 
BRANCH  17  18
HETATM   18  C6  UNL     1       2.606   7.574   3.223  1.00  0.00     0.008 C 
HETATM   19  C7  UNL     1       3.746   7.016   2.360  1.00  0.00     0.014 C 
BRANCH  18  20
HETATM   20  C8  UNL     1       1.506   6.588   3.183  1.00  0.00    -0.005 C 
HETATM   21  C9  UNL     1       0.662   6.939   1.945  1.00  0.00     0.008 C 
HETATM   22  C10 UNL     1      -0.482   5.933   1.931  1.00  0.00     0.035 C 
HETATM   23  C11 UNL     1      -1.466   6.485   2.963  1.00  0.00     0.151 A 
HETATM   24  O2  UNL     1      -1.748   5.781   4.104  1.00  0.00    -0.375 OA
HETATM   25  C12 UNL     1      -0.826   6.976   4.104  1.00  0.00     0.151 A 
HETATM   26  C13 UNL     1       0.591   6.622   4.374  1.00  0.00     0.039 C 
ENDBRANCH  18  20
ENDBRANCH  17  18
ENDBRANCH   1  16
BRANCH   8  27
HETATM   27  O3  UNL     1       3.991   8.460  13.132  1.00  0.00    -0.368 OA
ATOM     28  H3  UNL     1       4.177   7.807  13.798  1.00  0.00     0.212 HD
ENDBRANCH   8  27
TORSDOF 5
ENDMDL
MODEL 2
REMARK VINA RESULT: -9.395246178      2.684      6.486
REMARK  5 active torsions:
REMARK  status: ('A' for Active; 'I' for Inactive)
REMARK    1  A    between atoms: C2_2  and  C3_4 
REMARK    2  A    between atoms: C3_4  and  C4_5 
REMARK    3  A    between atoms: C5_6  and  C6_7 
REMARK    4  A    between atoms: C6_7  and  C8_9 
REMARK    5  A    between atoms: C20_22  and  O3_23 
ROOT
HETATM    1  C3  UNL     1       0.904   7.175   4.965  1.00  0.00     0.037 C 
HETATM    2  C14 UNL     1      -0.120   8.169   5.440  1.00  0.00     0.021 C 
HETATM    3  C15 UNL     1       0.178   8.744   6.789  1.00  0.00     0.004 C 
HETATM    4  C16 UNL     1       0.185   7.762   7.901  1.00  0.00     0.041 C 
HETATM    5  C17 UNL     1      -0.753   6.595   7.702  1.00  0.00     0.096 C 
HETATM    6  C18 UNL     1      -0.680   5.788   9.006  1.00  0.00     0.046 C 
HETATM    7  C19 UNL     1      -1.925   4.964   9.207  1.00  0.00     0.066 C 
HETATM    8  C20 UNL     1      -3.133   5.762   8.831  1.00  0.00     0.293 C 
HETATM    9  O4  UNL     1      -2.956   6.199   7.515  1.00  0.00    -0.207 OA
HETATM   10  O5  UNL     1      -2.038   7.140   7.549  1.00  0.00    -0.227 OA
HETATM   11  C21 UNL     1      -0.409   5.733   6.540  1.00  0.00     0.042 C 
HETATM   12  C22 UNL     1       0.926   6.006   5.927  1.00  0.00     0.024 C 
ENDROOT
BRANCH   1  13
HETATM   13  C2  UNL     1       0.492   6.728   3.606  1.00  0.00     0.135 C 
HETATM   14  C1  UNL     1       1.500   6.308   2.582  1.00  0.00     0.092 C 
HETATM   15  O1  UNL     1      -0.697   6.713   3.346  1.00  0.00    -0.297 OA
ENDBRANCH   1  13
BRANCH   1  16
HETATM   16  C4  UNL     1       2.255   7.786   4.828  1.00  0.00    -0.013 C 
HETATM   17  C5  UNL     1       3.300   7.475   5.569  1.00  0.00    -0.025 C 
BRANCH  17  18
HETATM   18  C6  UNL     1       4.650   8.013   5.513  1.00  0.00     0.008 C 
HETATM   19  C7  UNL     1       4.751   9.226   4.579  1.00  0.00     0.014 C 
BRANCH  18  20
HETATM   20  C8  UNL     1       5.322   8.378   6.777  1.00  0.00    -0.005 C 
HETATM   21  C9  UNL     1       4.941   7.288   7.794  1.00  0.00     0.008 C 
HETATM   22  C10 UNL     1       5.618   7.690   9.099  1.00  0.00     0.035 C 
HETATM   23  C11 UNL     1       4.700   8.773   9.667  1.00  0.00     0.151 A 
HETATM   24  O2  UNL     1       5.148  10.059   9.816  1.00  0.00    -0.375 OA
HETATM   25  C12 UNL     1       4.236   9.652   8.684  1.00  0.00     0.151 A 
HETATM   26  C13 UNL     1       4.897   9.698   7.355  1.00  0.00     0.039 C 
ENDBRANCH  18  20
ENDBRANCH  17  18
ENDBRANCH   1  16
BRANCH   8  27
HETATM   27  O3  UNL     1      -4.277   4.978   8.960  1.00  0.00    -0.368 OA
ATOM     28  H3  UNL     1      -5.023   5.433   8.586  1.00  0.00     0.212 HD
ENDBRANCH   8  27
TORSDOF 5
ENDMDL
MODEL 3
REMARK VINA RESULT: -9.098503556      3.045      6.426
REMARK  5 active torsions:
REMARK  status: ('A' for Active; 'I' for Inactive)
REMARK    1  A    between atoms: C2_2  and  C3_4 
REMARK    2  A    between atoms: C3_4  and  C4_5 
REMARK    3  A    between atoms: C5_6  and  C6_7 
REMARK    4  A    between atoms: C6_7  and  C8_9 
REMARK    5  A    between atoms: C20_22  and  O3_23 
ROOT
HETATM    1  C3  UNL     1       4.160   8.478   8.886  1.00  0.00     0.037 C 
HETATM    2  C14 UNL     1       3.788   7.031   9.055  1.00  0.00     0.021 C 
HETATM    3  C15 UNL     1       3.344   6.370   7.788  1.00  0.00     0.004 C 
HETATM    4  C16 UNL     1       2.109   6.933   7.188  1.00  0.00     0.041 C 
HETATM    5  C17 UNL     1       1.136   7.504   8.194  1.00  0.00     0.096 C 
HETATM    6  C18 UNL     1      -0.101   7.906   7.379  1.00  0.00     0.046 C 
HETATM    7  C19 UNL     1      -1.334   7.943   8.245  1.00  0.00     0.066 C 
HETATM    8  C20 UNL     1      -1.340   6.774   9.178  1.00  0.00     0.293 C 
HETATM    9  O4  UNL     1      -0.144   6.808   9.903  1.00  0.00    -0.207 OA
HETATM   10  O5  UNL     1       0.812   6.456   9.071  1.00  0.00    -0.227 OA
HETATM   11  C21 UNL     1       1.662   8.673   8.947  1.00  0.00     0.042 C 
HETATM   12  C22 UNL     1       2.939   9.240   8.418  1.00  0.00     0.024 C 
ENDROOT
BRANCH   1  13
HETATM   13  C2  UNL     1       4.615   8.978  10.213  1.00  0.00     0.135 C 
HETATM   14  C1  UNL     1       4.184   8.321  11.486  1.00  0.00     0.092 C 
HETATM   15  O1  UNL     1       5.355   9.945  10.235  1.00  0.00    -0.297 OA
ENDBRANCH   1  13
BRANCH   1  16
HETATM   16  C4  UNL     1       5.301   8.656   7.945  1.00  0.00    -0.013 C 
HETATM   17  C5  UNL     1       5.207   9.184   6.740  1.00  0.00    -0.025 C 
BRANCH  17  18
HETATM   18  C6  UNL     1       6.254   9.397   5.754  1.00  0.00     0.008 C 
HETATM   19  C7  UNL     1       5.734   9.256   4.317  1.00  0.00     0.014 C 
BRANCH  18  20
HETATM   20  C8  UNL     1       7.041  10.647   5.812  1.00  0.00    -0.005 C 
HETATM   21  C9  UNL     1       7.010  11.238   4.392  1.00  0.00     0.008 C 
HETATM   22  C10 UNL     1       7.846  12.510   4.459  1.00  0.00     0.035 C 
HETATM   23  C11 UNL     1       9.287  12.003   4.395  1.00  0.00     0.151 A 
HETATM   24  O2  UNL     1      10.138  12.185   5.452  1.00  0.00    -0.375 OA
HETATM   25  C12 UNL     1       9.486  10.854   5.166  1.00  0.00     0.151 A 
HETATM   26  C13 UNL     1       8.484  10.462   6.189  1.00  0.00     0.039 C 
ENDBRANCH  18  20
ENDBRANCH  17  18
ENDBRANCH   1  16
BRANCH   8  27
HETATM   27  O3  UNL     1      -2.448   6.845  10.018  1.00  0.00    -0.368 OA
ATOM     28  H3  UNL     1      -2.935   6.030   9.979  1.00  0.00     0.212 HD
ENDBRANCH   8  27
TORSDOF 5
ENDMDL
MODEL 4
REMARK VINA RESULT: -9.067125831      1.122      1.418
REMARK  5 active torsions:
REMARK  status: ('A' for Active; 'I' for Inactive)
REMARK    1  A    between atoms: C2_2  and  C3_4 
REMARK    2  A    between atoms: C3_4  and  C4_5 
REMARK    3  A    between atoms: C5_6  and  C6_7 
REMARK    4  A    between atoms: C6_7  and  C8_9 
REMARK    5  A    between atoms: C20_22  and  O3_23 
ROOT
HETATM    1  C3  UNL     1       4.314   8.671   6.909  1.00  0.00     0.037 C 
HETATM    2  C14 UNL     1       4.988   7.545   7.643  1.00  0.00     0.021 C 
HETATM    3  C15 UNL     1       4.070   6.413   7.985  1.00  0.00     0.004 C 
HETATM    4  C16 UNL     1       2.966   6.762   8.912  1.00  0.00     0.041 C 
HETATM    5  C17 UNL     1       3.303   7.862   9.892  1.00  0.00     0.096 C 
HETATM    6  C18 UNL     1       2.085   7.967  10.820  1.00  0.00     0.046 C 
HETATM    7  C19 UNL     1       2.463   8.570  12.149  1.00  0.00     0.066 C 
HETATM    8  C20 UNL     1       3.771   8.009  12.610  1.00  0.00     0.293 C 
HETATM    9  O4  UNL     1       4.710   8.243  11.600  1.00  0.00    -0.207 OA
HETATM   10  O5  UNL     1       4.421   7.419  10.617  1.00  0.00    -0.227 OA
HETATM   11  C21 UNL     1       3.582   9.176   9.253  1.00  0.00     0.042 C 
HETATM   12  C22 UNL     1       3.239   9.255   7.801  1.00  0.00     0.024 C 
ENDROOT
BRANCH   1  13
HETATM   13  C2  UNL     1       5.356   9.691   6.607  1.00  0.00     0.135 C 
HETATM   14  C1  UNL     1       5.217  10.635   5.455  1.00  0.00     0.092 C 
HETATM   15  O1  UNL     1       6.336   9.738   7.329  1.00  0.00    -0.297 OA
ENDBRANCH   1  13
BRANCH   1  16
HETATM   16  C4  UNL     1       3.751   8.230   5.603  1.00  0.00    -0.013 C 
HETATM   17  C5  UNL     1       2.466   8.191   5.312  1.00  0.00    -0.025 C 
BRANCH  17  18
HETATM   18  C6  UNL     1       1.823   7.778   4.076  1.00  0.00     0.008 C 
HETATM   19  C7  UNL     1       2.839   7.336   3.014  1.00  0.00     0.014 C 
BRANCH  18  20
HETATM   20  C8  UNL     1       0.773   6.738   4.134  1.00  0.00    -0.005 C 
HETATM   21  C9  UNL     1      -0.552   7.483   4.375  1.00  0.00     0.008 C 
HETATM   22  C10 UNL     1      -1.621   6.400   4.460  1.00  0.00     0.035 C 
HETATM   23  C11 UNL     1      -1.476   5.855   5.881  1.00  0.00     0.151 A 
HETATM   24  O2  UNL     1      -1.093   4.558   6.095  1.00  0.00    -0.375 OA
HETATM   25  C12 UNL     1      -0.140   5.716   6.268  1.00  0.00     0.151 A 
HETATM   26  C13 UNL     1       0.937   5.743   5.247  1.00  0.00     0.039 C 
ENDBRANCH  18  20
ENDBRANCH  17  18
ENDBRANCH   1  16
BRANCH   8  27
HETATM   27  O3  UNL     1       4.148   8.612  13.807  1.00  0.00    -0.368 OA
ATOM     28  H3  UNL     1       4.961   9.089  13.687  1.00  0.00     0.212 HD
ENDBRANCH   8  27
TORSDOF 5
ENDMDL
MODEL 5
REMARK VINA RESULT: -9.065123083      3.286      6.432
REMARK  5 active torsions:
REMARK  status: ('A' for Active; 'I' for Inactive)
REMARK    1  A    between atoms: C2_2  and  C3_4 
REMARK    2  A    between atoms: C3_4  and  C4_5 
REMARK    3  A    between atoms: C5_6  and  C6_7 
REMARK    4  A    between atoms: C6_7  and  C8_9 
REMARK    5  A    between atoms: C20_22  and  O3_23 
ROOT
HETATM    1  C3  UNL     1       1.744   7.789   5.794  1.00  0.00     0.037 C 
HETATM    2  C14 UNL     1       0.494   8.598   6.009  1.00  0.00     0.021 C 
HETATM    3  C15 UNL     1       0.433   9.268   7.347  1.00  0.00     0.004 C 
HETATM    4  C16 UNL     1       0.402   8.345   8.508  1.00  0.00     0.041 C 
HETATM    5  C17 UNL     1      -0.269   7.021   8.230  1.00  0.00     0.096 C 
HETATM    6  C18 UNL     1      -0.302   6.290   9.579  1.00  0.00     0.046 C 
HETATM    7  C19 UNL     1      -1.402   5.261   9.615  1.00  0.00     0.066 C 
HETATM    8  C20 UNL     1      -2.638   5.812   8.977  1.00  0.00     0.293 C 
HETATM    9  O4  UNL     1      -2.297   6.225   7.684  1.00  0.00    -0.207 OA
HETATM   10  O5  UNL     1      -1.577   7.317   7.814  1.00  0.00    -0.227 OA
HETATM   11  C21 UNL     1       0.429   6.193   7.210  1.00  0.00     0.042 C 
HETATM   12  C22 UNL     1       1.787   6.681   6.824  1.00  0.00     0.024 C 
ENDROOT
BRANCH   1  13
HETATM   13  C2  UNL     1       1.676   7.225   4.418  1.00  0.00     0.135 C 
HETATM   14  C1  UNL     1       2.779   7.435   3.430  1.00  0.00     0.092 C 
HETATM   15  O1  UNL     1       0.688   6.580   4.114  1.00  0.00    -0.297 OA
ENDBRANCH   1  13
BRANCH   1  16
HETATM   16  C4  UNL     1       2.972   8.630   5.854  1.00  0.00    -0.013 C 
HETATM   17  C5  UNL     1       3.897   8.544   6.789  1.00  0.00    -0.025 C 
BRANCH  17  18
HETATM   18  C6  UNL     1       5.121   9.315   6.935  1.00  0.00     0.008 C 
HETATM   19  C7  UNL     1       6.077   8.697   7.963  1.00  0.00     0.014 C 
BRANCH  18  20
HETATM   20  C8  UNL     1       5.917   9.619   5.727  1.00  0.00    -0.005 C 
HETATM   21  C9  UNL     1       7.204  10.301   6.223  1.00  0.00     0.008 C 
HETATM   22  C10 UNL     1       8.002  10.633   4.969  1.00  0.00     0.035 C 
HETATM   23  C11 UNL     1       7.337  11.903   4.438  1.00  0.00     0.151 A 
HETATM   24  O2  UNL     1       6.701  11.903   3.225  1.00  0.00    -0.375 OA
HETATM   25  C12 UNL     1       5.943  11.856   4.530  1.00  0.00     0.151 A 
HETATM   26  C13 UNL     1       5.255  10.560   4.760  1.00  0.00     0.039 C 
ENDBRANCH  18  20
ENDBRANCH  17  18
ENDBRANCH   1  16
BRANCH   8  27
HETATM   27  O3  UNL     1      -3.633   4.839   8.956  1.00  0.00    -0.368 OA
ATOM     28  H3  UNL     1      -4.424   5.194   8.565  1.00  0.00     0.212 HD
ENDBRANCH   8  27
TORSDOF 5
ENDMDL
