MODEL 1
REMARK VINA RESULT: -7.612818042      0.000      0.000
REMARK  14 active torsions:
REMARK  status: ('A' for Active; 'I' for Inactive)
REMARK    1  A    between atoms: N1_1  and  C1_5 
REMARK    2  A    between atoms: C1_5  and  C2_6 
REMARK    3  A    between atoms: C2_6  and  C3_7 
REMARK    4  A    between atoms: C3_7  and  C4_8 
REMARK    5  A    between atoms: C4_8  and  C5_9 
REMARK    6  A    between atoms: C5_9  and  C6_10 
REMARK    7  A    between atoms: C6_10  and  C7_11 
REMARK    8  A    between atoms: C7_11  and  C8_12 
REMARK    9  A    between atoms: C8_12  and  C9_13 
REMARK   10  A    between atoms: C9_13  and  C10_14 
REMARK   11  A    between atoms: C10_14  and  C11_15 
REMARK   12  A    between atoms: C11_15  and  C12_16 
REMARK   13  A    between atoms: C12_16  and  C13_17 
REMARK   14  A    between atoms: C13_17  and  C14_18 
ROOT
HETATM    1  C9  UNL     1      20.837  -7.660   9.858  1.00  0.00     0.000 C 
ENDROOT
BRANCH   1   2
HETATM    2  C8  UNL     1      20.703  -9.113  10.336  1.00  0.00     0.000 C 
BRANCH   2   3
HETATM    3  C7  UNL     1      21.466  -9.330  11.610  1.00  0.00     0.000 C 
BRANCH   3   4
HETATM    4  C6  UNL     1      22.500  -8.251  11.847  1.00  0.00     0.000 C 
BRANCH   4   5
HETATM    5  C5  UNL     1      22.973  -8.217  13.271  1.00  0.00     0.000 C 
BRANCH   5   6
HETATM    6  C4  UNL     1      22.628  -9.529  13.931  1.00  0.00     0.000 C 
BRANCH   6   7
HETATM    7  C3  UNL     1      23.336  -9.731  15.233  1.00  0.00     0.002 C 
BRANCH   7   8
HETATM    8  C2  UNL     1      24.665 -10.436  15.064  1.00  0.00     0.027 C 
BRANCH   8   9
HETATM    9  C1  UNL     1      24.428 -11.910  15.318  1.00  0.00     0.229 C 
BRANCH   9  10
HETATM   10  N1  UNL     1      25.705 -12.631  15.350  1.00  0.00    -0.079 N 
ATOM     11  H13 UNL     1      26.265 -12.451  14.517  1.00  0.00     0.274 HD
ATOM     12  H12 UNL     1      26.343 -12.245  16.046  1.00  0.00     0.274 HD
ATOM     13  H11 UNL     1      25.544 -13.628  15.494  1.00  0.00     0.274 HD
ENDBRANCH   9  10
ENDBRANCH   8   9
ENDBRANCH   7   8
ENDBRANCH   6   7
ENDBRANCH   5   6
ENDBRANCH   4   5
ENDBRANCH   3   4
ENDBRANCH   2   3
ENDBRANCH   1   2
BRANCH   1  14
HETATM   14  C10 UNL     1      19.536  -7.088   9.434  1.00  0.00     0.000 C 
BRANCH  14  15
HETATM   15  C11 UNL     1      19.758  -5.775   8.704  1.00  0.00     0.000 C 
BRANCH  15  16
HETATM   16  C12 UNL     1      21.203  -5.543   8.467  1.00  0.00     0.002 C 
BRANCH  16  17
HETATM   17  C13 UNL     1      21.717  -4.171   8.735  1.00  0.00     0.036 C 
BRANCH  17  18
HETATM   18  C14 UNL     1      21.126  -3.407   9.856  1.00  0.00     0.223 C 
HETATM   19  C15 UNL     1      21.069  -4.244  11.138  1.00  0.00     0.036 C 
HETATM   20  C16 UNL     1      22.469  -4.626  11.469  1.00  0.00     0.004 C 
HETATM   21  C17 UNL     1      23.458  -3.508  11.432  1.00  0.00     0.036 C 
HETATM   22  C18 UNL     1      22.968  -2.222  10.917  1.00  0.00     0.223 C 
HETATM   23  C19 UNL     1      22.841  -1.202  12.059  1.00  0.00     0.037 C 
HETATM   24  N2  UNL     1      21.758  -2.195  10.211  1.00  0.00     0.097 N 
HETATM   25  C20 UNL     1      21.815  -0.250  11.487  1.00  0.00     0.032 C 
HETATM   26  C21 UNL     1      20.876  -1.203  10.784  1.00  0.00     0.273 C 
ENDBRANCH  17  18
ENDBRANCH  16  17
ENDBRANCH  15  16
ENDBRANCH  14  15
ENDBRANCH   1  14
TORSDOF 14
ENDMDL
MODEL 2
REMARK VINA RESULT: -7.280313367      1.086      2.229
REMARK  14 active torsions:
REMARK  status: ('A' for Active; 'I' for Inactive)
REMARK    1  A    between atoms: N1_1  and  C1_5 
REMARK    2  A    between atoms: C1_5  and  C2_6 
REMARK    3  A    between atoms: C2_6  and  C3_7 
REMARK    4  A    between atoms: C3_7  and  C4_8 
REMARK    5  A    between atoms: C4_8  and  C5_9 
REMARK    6  A    between atoms: C5_9  and  C6_10 
REMARK    7  A    between atoms: C6_10  and  C7_11 
REMARK    8  A    between atoms: C7_11  and  C8_12 
REMARK    9  A    between atoms: C8_12  and  C9_13 
REMARK   10  A    between atoms: C9_13  and  C10_14 
REMARK   11  A    between atoms: C10_14  and  C11_15 
REMARK   12  A    between atoms: C11_15  and  C12_16 
REMARK   13  A    between atoms: C12_16  and  C13_17 
REMARK   14  A    between atoms: C13_17  and  C14_18 
ROOT
HETATM    1  C9  UNL     1      21.594  -9.160  10.660  1.00  0.00     0.000 C 
ENDROOT
BRANCH   1   2
HETATM    2  C8  UNL     1      22.562  -8.001  10.945  1.00  0.00     0.000 C 
BRANCH   2   3
HETATM    3  C7  UNL     1      22.891  -7.926  12.406  1.00  0.00     0.000 C 
BRANCH   3   4
HETATM    4  C6  UNL     1      21.969  -8.784  13.244  1.00  0.00     0.000 C 
BRANCH   4   5
HETATM    5  C5  UNL     1      22.714  -9.833  14.018  1.00  0.00     0.000 C 
BRANCH   5   6
HETATM    6  C4  UNL     1      23.763  -9.160  14.866  1.00  0.00     0.000 C 
BRANCH   6   7
HETATM    7  C3  UNL     1      24.798 -10.111  15.378  1.00  0.00     0.002 C 
BRANCH   7   8
HETATM    8  C2  UNL     1      24.410 -11.558  15.159  1.00  0.00     0.027 C 
BRANCH   8   9
HETATM    9  C1  UNL     1      25.609 -12.407  15.529  1.00  0.00     0.229 C 
BRANCH   9  10
HETATM   10  N1  UNL     1      25.405 -13.791  15.089  1.00  0.00    -0.079 N 
ATOM     11  H13 UNL     1      24.489 -14.146  15.361  1.00  0.00     0.274 HD
ATOM     12  H12 UNL     1      25.297 -13.856  14.077  1.00  0.00     0.274 HD
ATOM     13  H11 UNL     1      26.161 -14.384  15.430  1.00  0.00     0.274 HD
ENDBRANCH   9  10
ENDBRANCH   8   9
ENDBRANCH   7   8
ENDBRANCH   6   7
ENDBRANCH   5   6
ENDBRANCH   4   5
ENDBRANCH   3   4
ENDBRANCH   2   3
ENDBRANCH   1   2
BRANCH   1  14
HETATM   14  C10 UNL     1      20.261  -8.682  10.219  1.00  0.00     0.000 C 
BRANCH  14  15
HETATM   15  C11 UNL     1      20.418  -7.528   9.244  1.00  0.00     0.000 C 
BRANCH  15  16
HETATM   16  C12 UNL     1      19.407  -6.477   9.506  1.00  0.00     0.002 C 
BRANCH  16  17
HETATM   17  C13 UNL     1      19.911  -5.171  10.016  1.00  0.00     0.036 C 
BRANCH  17  18
HETATM   18  C14 UNL     1      21.371  -4.937  10.023  1.00  0.00     0.223 C 
HETATM   19  C15 UNL     1      21.860  -4.398   8.674  1.00  0.00     0.036 C 
HETATM   20  C16 UNL     1      21.145  -3.115   8.435  1.00  0.00     0.004 C 
HETATM   21  C17 UNL     1      21.143  -2.164   9.587  1.00  0.00     0.036 C 
HETATM   22  C18 UNL     1      21.695  -2.672  10.851  1.00  0.00     0.223 C 
HETATM   23  C19 UNL     1      23.048  -2.009  11.150  1.00  0.00     0.037 C 
HETATM   24  N2  UNL     1      21.876  -4.053  11.001  1.00  0.00     0.097 N 
HETATM   25  C20 UNL     1      23.682  -3.036  12.060  1.00  0.00     0.032 C 
HETATM   26  C21 UNL     1      23.233  -4.328  11.417  1.00  0.00     0.273 C 
ENDBRANCH  17  18
ENDBRANCH  16  17
ENDBRANCH  15  16
ENDBRANCH  14  15
ENDBRANCH   1  14
TORSDOF 14
ENDMDL
MODEL 3
REMARK VINA RESULT: -7.024101461      1.200      2.568
REMARK  14 active torsions:
REMARK  status: ('A' for Active; 'I' for Inactive)
REMARK    1  A    between atoms: N1_1  and  C1_5 
REMARK    2  A    between atoms: C1_5  and  C2_6 
REMARK    3  A    between atoms: C2_6  and  C3_7 
REMARK    4  A    between atoms: C3_7  and  C4_8 
REMARK    5  A    between atoms: C4_8  and  C5_9 
REMARK    6  A    between atoms: C5_9  and  C6_10 
REMARK    7  A    between atoms: C6_10  and  C7_11 
REMARK    8  A    between atoms: C7_11  and  C8_12 
REMARK    9  A    between atoms: C8_12  and  C9_13 
REMARK   10  A    between atoms: C9_13  and  C10_14 
REMARK   11  A    between atoms: C10_14  and  C11_15 
REMARK   12  A    between atoms: C11_15  and  C12_16 
REMARK   13  A    between atoms: C12_16  and  C13_17 
REMARK   14  A    between atoms: C13_17  and  C14_18 
ROOT
HETATM    1  C9  UNL     1      22.271  -8.486  10.862  1.00  0.00     0.000 C 
ENDROOT
BRANCH   1   2
HETATM    2  C8  UNL     1      22.699  -8.042  12.269  1.00  0.00     0.000 C 
BRANCH   2   3
HETATM    3  C7  UNL     1      21.934  -8.788  13.322  1.00  0.00     0.000 C 
BRANCH   3   4
HETATM    4  C6  UNL     1      22.761  -9.879  13.965  1.00  0.00     0.000 C 
BRANCH   4   5
HETATM    5  C5  UNL     1      23.798  -9.331  14.902  1.00  0.00     0.000 C 
BRANCH   5   6
HETATM    6  C4  UNL     1      24.826 -10.401  15.170  1.00  0.00     0.000 C 
BRANCH   6   7
HETATM    7  C3  UNL     1      24.218 -11.702  15.590  1.00  0.00     0.002 C 
BRANCH   7   8
HETATM    8  C2  UNL     1      25.059 -12.892  15.180  1.00  0.00     0.027 C 
BRANCH   8   9
HETATM    9  C1  UNL     1      26.262 -12.931  16.098  1.00  0.00     0.229 C 
BRANCH   9  10
HETATM   10  N1  UNL     1      27.254 -13.886  15.594  1.00  0.00    -0.079 N 
ATOM     11  H13 UNL     1      27.880 -13.461  14.911  1.00  0.00     0.274 HD
ATOM     12  H12 UNL     1      27.946 -14.127  16.303  1.00  0.00     0.274 HD
ATOM     13  H11 UNL     1      26.789 -14.714  15.221  1.00  0.00     0.274 HD
ENDBRANCH   9  10
ENDBRANCH   8   9
ENDBRANCH   7   8
ENDBRANCH   6   7
ENDBRANCH   5   6
ENDBRANCH   4   5
ENDBRANCH   3   4
ENDBRANCH   2   3
ENDBRANCH   1   2
BRANCH   1  14
HETATM   14  C10 UNL     1      20.798  -8.600  10.734  1.00  0.00     0.000 C 
BRANCH  14  15
HETATM   15  C11 UNL     1      20.316  -7.796   9.540  1.00  0.00     0.000 C 
BRANCH  15  16
HETATM   16  C12 UNL     1      19.378  -6.731   9.968  1.00  0.00     0.002 C 
BRANCH  16  17
HETATM   17  C13 UNL     1      19.903  -5.336   9.976  1.00  0.00     0.036 C 
BRANCH  17  18
HETATM   18  C14 UNL     1      21.368  -5.139   9.969  1.00  0.00     0.223 C 
HETATM   19  C15 UNL     1      21.856  -4.591   8.624  1.00  0.00     0.036 C 
HETATM   20  C16 UNL     1      21.170  -3.288   8.412  1.00  0.00     0.004 C 
HETATM   21  C17 UNL     1      21.205  -2.355   9.577  1.00  0.00     0.036 C 
HETATM   22  C18 UNL     1      21.758  -2.895  10.828  1.00  0.00     0.223 C 
HETATM   23  C19 UNL     1      23.130  -2.270  11.121  1.00  0.00     0.037 C 
HETATM   24  N2  UNL     1      21.906  -4.283  10.955  1.00  0.00     0.097 N 
HETATM   25  C20 UNL     1      23.748  -3.327  12.008  1.00  0.00     0.032 C 
HETATM   26  C21 UNL     1      23.261  -4.598  11.352  1.00  0.00     0.273 C 
ENDBRANCH  17  18
ENDBRANCH  16  17
ENDBRANCH  15  16
ENDBRANCH  14  15
ENDBRANCH   1  14
TORSDOF 14
ENDMDL
MODEL 4
REMARK VINA RESULT: -6.955814485      1.544      9.301
REMARK  14 active torsions:
REMARK  status: ('A' for Active; 'I' for Inactive)
REMARK    1  A    between atoms: N1_1  and  C1_5 
REMARK    2  A    between atoms: C1_5  and  C2_6 
REMARK    3  A    between atoms: C2_6  and  C3_7 
REMARK    4  A    between atoms: C3_7  and  C4_8 
REMARK    5  A    between atoms: C4_8  and  C5_9 
REMARK    6  A    between atoms: C5_9  and  C6_10 
REMARK    7  A    between atoms: C6_10  and  C7_11 
REMARK    8  A    between atoms: C7_11  and  C8_12 
REMARK    9  A    between atoms: C8_12  and  C9_13 
REMARK   10  A    between atoms: C9_13  and  C10_14 
REMARK   11  A    between atoms: C10_14  and  C11_15 
REMARK   12  A    between atoms: C11_15  and  C12_16 
REMARK   13  A    between atoms: C12_16  and  C13_17 
REMARK   14  A    between atoms: C13_17  and  C14_18 
ROOT
HETATM    1  C9  UNL     1      22.662  -7.805  11.030  1.00  0.00     0.000 C 
ENDROOT
BRANCH   1   2
HETATM    2  C8  UNL     1      21.542  -8.844  10.865  1.00  0.00     0.000 C 
BRANCH   2   3
HETATM    3  C7  UNL     1      20.469  -8.334   9.951  1.00  0.00     0.000 C 
BRANCH   3   4
HETATM    4  C6  UNL     1      20.052  -6.920  10.293  1.00  0.00     0.000 C 
BRANCH   4   5
HETATM    5  C5  UNL     1      19.623  -6.143   9.082  1.00  0.00     0.000 C 
BRANCH   5   6
HETATM    6  C4  UNL     1      20.850  -5.720   8.314  1.00  0.00     0.000 C 
BRANCH   6   7
HETATM    7  C3  UNL     1      21.677  -4.712   9.047  1.00  0.00     0.002 C 
BRANCH   7   8
HETATM    8  C2  UNL     1      21.343  -3.291   8.647  1.00  0.00     0.027 C 
BRANCH   8   9
HETATM    9  C1  UNL     1      21.329  -2.458   9.912  1.00  0.00     0.229 C 
BRANCH   9  10
HETATM   10  N1  UNL     1      20.765  -3.231  11.022  1.00  0.00    -0.079 N 
ATOM     11  H13 UNL     1      19.880  -3.670  10.770  1.00  0.00     0.274 HD
ATOM     12  H12 UNL     1      21.303  -4.077  11.209  1.00  0.00     0.274 HD
ATOM     13  H11 UNL     1      20.677  -2.645  11.852  1.00  0.00     0.274 HD
ENDBRANCH   9  10
ENDBRANCH   8   9
ENDBRANCH   7   8
ENDBRANCH   6   7
ENDBRANCH   5   6
ENDBRANCH   4   5
ENDBRANCH   3   4
ENDBRANCH   2   3
ENDBRANCH   1   2
BRANCH   1  14
HETATM   14  C10 UNL     1      22.942  -7.505  12.455  1.00  0.00     0.000 C 
BRANCH  14  15
HETATM   15  C11 UNL     1      22.476  -8.655  13.330  1.00  0.00     0.000 C 
BRANCH  15  16
HETATM   16  C12 UNL     1      23.517  -9.015  14.322  1.00  0.00     0.002 C 
BRANCH  16  17
HETATM   17  C13 UNL     1      23.505 -10.416  14.830  1.00  0.00     0.036 C 
BRANCH  17  18
HETATM   18  C14 UNL     1      24.795 -11.039  15.200  1.00  0.00     0.223 C 
HETATM   19  C15 UNL     1      25.507 -10.248  16.302  1.00  0.00     0.036 C 
HETATM   20  C16 UNL     1      24.598 -10.232  17.480  1.00  0.00     0.004 C 
HETATM   21  C17 UNL     1      24.025 -11.559  17.858  1.00  0.00     0.036 C 
HETATM   22  C18 UNL     1      24.291 -12.670  16.934  1.00  0.00     0.223 C 
HETATM   23  C19 UNL     1      25.290 -13.657  17.557  1.00  0.00     0.037 C 
HETATM   24  N2  UNL     1      24.757 -12.379  15.645  1.00  0.00     0.097 N 
HETATM   25  C20 UNL     1      25.865 -14.311  16.320  1.00  0.00     0.032 C 
HETATM   26  C21 UNL     1      25.958 -13.137  15.373  1.00  0.00     0.273 C 
ENDBRANCH  17  18
ENDBRANCH  16  17
ENDBRANCH  15  16
ENDBRANCH  14  15
ENDBRANCH   1  14
TORSDOF 14
ENDMDL
MODEL 5
REMARK VINA RESULT: -6.844587992      1.632      3.746
REMARK  14 active torsions:
REMARK  status: ('A' for Active; 'I' for Inactive)
REMARK    1  A    between atoms: N1_1  and  C1_5 
REMARK    2  A    between atoms: C1_5  and  C2_6 
REMARK    3  A    between atoms: C2_6  and  C3_7 
REMARK    4  A    between atoms: C3_7  and  C4_8 
REMARK    5  A    between atoms: C4_8  and  C5_9 
REMARK    6  A    between atoms: C5_9  and  C6_10 
REMARK    7  A    between atoms: C6_10  and  C7_11 
REMARK    8  A    between atoms: C7_11  and  C8_12 
REMARK    9  A    between atoms: C8_12  and  C9_13 
REMARK   10  A    between atoms: C9_13  and  C10_14 
REMARK   11  A    between atoms: C10_14  and  C11_15 
REMARK   12  A    between atoms: C11_15  and  C12_16 
REMARK   13  A    between atoms: C12_16  and  C13_17 
REMARK   14  A    between atoms: C13_17  and  C14_18 
ROOT
HETATM    1  C9  UNL     1      22.103  -8.758  11.448  1.00  0.00     0.000 C 
ENDROOT
BRANCH   1   2
HETATM    2  C8  UNL     1      21.697  -8.851  12.927  1.00  0.00     0.000 C 
BRANCH   2   3
HETATM    3  C7  UNL     1      22.450  -9.946  13.621  1.00  0.00     0.000 C 
BRANCH   3   4
HETATM    4  C6  UNL     1      23.322  -9.420  14.740  1.00  0.00     0.000 C 
BRANCH   4   5
HETATM    5  C5  UNL     1      24.567 -10.239  14.926  1.00  0.00     0.000 C 
BRANCH   5   6
HETATM    6  C4  UNL     1      24.252 -11.406  15.827  1.00  0.00     0.000 C 
BRANCH   6   7
HETATM    7  C3  UNL     1      24.404 -12.728  15.143  1.00  0.00     0.002 C 
BRANCH   7   8
HETATM    8  C2  UNL     1      25.764 -13.347  15.379  1.00  0.00     0.027 C 
BRANCH   8   9
HETATM    9  C1  UNL     1      25.549 -14.616  16.178  1.00  0.00     0.229 C 
BRANCH   9  10
HETATM   10  N1  UNL     1      26.836 -15.158  16.624  1.00  0.00    -0.079 N 
ATOM     11  H13 UNL     1      27.293 -14.548  17.301  1.00  0.00     0.274 HD
ATOM     12  H12 UNL     1      26.719 -15.979  17.218  1.00  0.00     0.274 HD
ATOM     13  H11 UNL     1      27.435 -15.353  15.822  1.00  0.00     0.274 HD
ENDBRANCH   9  10
ENDBRANCH   8   9
ENDBRANCH   7   8
ENDBRANCH   6   7
ENDBRANCH   5   6
ENDBRANCH   4   5
ENDBRANCH   3   4
ENDBRANCH   2   3
ENDBRANCH   1   2
BRANCH   1  14
HETATM   14  C10 UNL     1      23.157  -7.740  11.219  1.00  0.00     0.000 C 
BRANCH  14  15
HETATM   15  C11 UNL     1      22.994  -6.594  12.201  1.00  0.00     0.000 C 
BRANCH  15  16
HETATM   16  C12 UNL     1      23.663  -5.370  11.697  1.00  0.00     0.002 C 
BRANCH  16  17
HETATM   17  C13 UNL     1      22.807  -4.165  11.508  1.00  0.00     0.036 C 
BRANCH  17  18
HETATM   18  C14 UNL     1      21.361  -4.363  11.268  1.00  0.00     0.223 C 
HETATM   19  C15 UNL     1      20.693  -3.079  10.765  1.00  0.00     0.036 C 
HETATM   20  C16 UNL     1      21.371  -2.708   9.493  1.00  0.00     0.004 C 
HETATM   21  C17 UNL     1      21.530  -3.820   8.509  1.00  0.00     0.036 C 
HETATM   22  C18 UNL     1      21.154  -5.162   8.978  1.00  0.00     0.223 C 
HETATM   23  C19 UNL     1      19.855  -5.622   8.300  1.00  0.00     0.037 C 
HETATM   24  N2  UNL     1      20.994  -5.376  10.354  1.00  0.00     0.097 N 
HETATM   25  C20 UNL     1      19.350  -6.640   9.298  1.00  0.00     0.032 C 
HETATM   26  C21 UNL     1      19.706  -5.980  10.610  1.00  0.00     0.273 C 
ENDBRANCH  17  18
ENDBRANCH  16  17
ENDBRANCH  15  16
ENDBRANCH  14  15
ENDBRANCH   1  14
TORSDOF 14
ENDMDL
