MODEL 1
REMARK VINA RESULT: -6.894186604      0.000      0.000
REMARK  9 active torsions:
REMARK  status: ('A' for Active; 'I' for Inactive)
REMARK    1  A    between atoms: C2_2  and  C3_3 
REMARK    2  A    between atoms: C3_3  and  C4_4 
REMARK    3  A    between atoms: C4_4  and  N1_5 
REMARK    4  A    between atoms: N1_5  and  C5_8 
REMARK    5  A    between atoms: C5_8  and  C6_9 
REMARK    6  A    between atoms: C6_9  and  C7_10 
REMARK    7  A    between atoms: C7_10  and  C8_11 
REMARK    8  A    between atoms: C8_11  and  C9_12 
REMARK    9  A    between atoms: C9_12  and  C10_13 
ROOT
HETATM    1  C6  UNL     1      -2.114  10.573  18.253  1.00  0.00     0.027 C 
ENDROOT
BRANCH   1   2
HETATM    2  C5  UNL     1      -3.551  10.299  18.708  1.00  0.00     0.232 C 
BRANCH   2   3
HETATM    3  N1  UNL     1      -3.511   9.717  20.033  1.00  0.00    -0.075 N 
ATOM      4  H12 UNL     1      -2.552   9.632  20.372  1.00  0.00     0.277 HD
ATOM      5  H11 UNL     1      -3.762   8.728  20.011  1.00  0.00     0.277 HD
BRANCH   3   6
HETATM    6  C4  UNL     1      -4.318  10.432  20.948  1.00  0.00     0.236 C 
BRANCH   6   7
HETATM    7  C3  UNL     1      -4.710   9.589  22.117  1.00  0.00     0.054 C 
BRANCH   7   8
HETATM    8  C2  UNL     1      -4.662  10.358  23.385  1.00  0.00    -0.035 C 
HETATM    9  C1  UNL     1      -5.325  11.499  23.510  1.00  0.00     0.007 C 
ENDBRANCH   7   8
ENDBRANCH   6   7
ENDBRANCH   3   6
ENDBRANCH   2   3
ENDBRANCH   1   2
BRANCH   1  10
HETATM   10  C7  UNL     1      -1.657  11.893  18.829  1.00  0.00     0.002 C 
BRANCH  10  11
HETATM   11  C8  UNL     1      -2.528  13.002  18.283  1.00  0.00     0.000 C 
BRANCH  11  12
HETATM   12  C9  UNL     1      -1.774  14.293  18.357  1.00  0.00     0.004 C 
BRANCH  12  13
HETATM   13  C10 UNL     1      -2.032  15.331  17.366  1.00  0.00    -0.014 C 
HETATM   14  C11 UNL     1      -3.172  14.975  16.418  1.00  0.00     0.004 C 
HETATM   15  C12 UNL     1      -3.858  16.327  16.143  1.00  0.00     0.000 C 
HETATM   16  C13 UNL     1      -3.727  16.963  17.518  1.00  0.00     0.000 C 
HETATM   17  C14 UNL     1      -2.281  16.707  17.821  1.00  0.00     0.004 C 
ENDBRANCH  12  13
ENDBRANCH  11  12
ENDBRANCH  10  11
ENDBRANCH   1  10
TORSDOF 9
ENDMDL
MODEL 2
REMARK VINA RESULT: -6.878305473      0.909      1.407
REMARK  9 active torsions:
REMARK  status: ('A' for Active; 'I' for Inactive)
REMARK    1  A    between atoms: C2_2  and  C3_3 
REMARK    2  A    between atoms: C3_3  and  C4_4 
REMARK    3  A    between atoms: C4_4  and  N1_5 
REMARK    4  A    between atoms: N1_5  and  C5_8 
REMARK    5  A    between atoms: C5_8  and  C6_9 
REMARK    6  A    between atoms: C6_9  and  C7_10 
REMARK    7  A    between atoms: C7_10  and  C8_11 
REMARK    8  A    between atoms: C8_11  and  C9_12 
REMARK    9  A    between atoms: C9_12  and  C10_13 
ROOT
HETATM    1  C6  UNL     1      -2.983   9.971  18.526  1.00  0.00     0.027 C 
ENDROOT
BRANCH   1   2
HETATM    2  C5  UNL     1      -2.522   8.805  19.407  1.00  0.00     0.232 C 
BRANCH   2   3
HETATM    3  N1  UNL     1      -3.470   8.643  20.489  1.00  0.00    -0.075 N 
ATOM      4  H12 UNL     1      -3.067   8.107  21.257  1.00  0.00     0.277 HD
ATOM      5  H11 UNL     1      -4.224   8.008  20.228  1.00  0.00     0.277 HD
BRANCH   3   6
HETATM    6  C4  UNL     1      -3.976   9.885  20.938  1.00  0.00     0.236 C 
BRANCH   6   7
HETATM    7  C3  UNL     1      -4.947   9.714  22.060  1.00  0.00     0.054 C 
BRANCH   7   8
HETATM    8  C2  UNL     1      -4.598  10.572  23.219  1.00  0.00    -0.035 C 
HETATM    9  C1  UNL     1      -5.352  11.611  23.543  1.00  0.00     0.007 C 
ENDBRANCH   7   8
ENDBRANCH   6   7
ENDBRANCH   3   6
ENDBRANCH   2   3
ENDBRANCH   1   2
BRANCH   1  10
HETATM   10  C7  UNL     1      -1.769  10.711  18.013  1.00  0.00     0.002 C 
BRANCH  10  11
HETATM   11  C8  UNL     1      -1.221  11.591  19.113  1.00  0.00     0.000 C 
BRANCH  11  12
HETATM   12  C9  UNL     1      -2.015  12.859  19.161  1.00  0.00     0.004 C 
BRANCH  12  13
HETATM   13  C10 UNL     1      -2.023  13.743  18.000  1.00  0.00    -0.014 C 
HETATM   14  C11 UNL     1      -3.431  14.071  17.516  1.00  0.00     0.004 C 
HETATM   15  C12 UNL     1      -3.322  15.528  17.028  1.00  0.00     0.000 C 
HETATM   16  C13 UNL     1      -2.361  16.076  18.073  1.00  0.00     0.000 C 
HETATM   17  C14 UNL     1      -1.296  15.020  18.070  1.00  0.00     0.004 C 
ENDBRANCH  12  13
ENDBRANCH  11  12
ENDBRANCH  10  11
ENDBRANCH   1  10
TORSDOF 9
ENDMDL
MODEL 3
REMARK VINA RESULT: -6.844063829      0.841      1.401
REMARK  9 active torsions:
REMARK  status: ('A' for Active; 'I' for Inactive)
REMARK    1  A    between atoms: C2_2  and  C3_3 
REMARK    2  A    between atoms: C3_3  and  C4_4 
REMARK    3  A    between atoms: C4_4  and  N1_5 
REMARK    4  A    between atoms: N1_5  and  C5_8 
REMARK    5  A    between atoms: C5_8  and  C6_9 
REMARK    6  A    between atoms: C6_9  and  C7_10 
REMARK    7  A    between atoms: C7_10  and  C8_11 
REMARK    8  A    between atoms: C8_11  and  C9_12 
REMARK    9  A    between atoms: C9_12  and  C10_13 
ROOT
HETATM    1  C6  UNL     1      -2.704  10.148  18.723  1.00  0.00     0.027 C 
ENDROOT
BRANCH   1   2
HETATM    2  C5  UNL     1      -4.026  10.922  18.701  1.00  0.00     0.232 C 
BRANCH   2   3
HETATM    3  N1  UNL     1      -4.631  10.837  20.013  1.00  0.00    -0.075 N 
ATOM      4  H12 UNL     1      -5.633  10.655  19.948  1.00  0.00     0.277 HD
ATOM      5  H11 UNL     1      -4.663  11.750  20.467  1.00  0.00     0.277 HD
BRANCH   3   6
HETATM    6  C4  UNL     1      -3.987   9.879  20.830  1.00  0.00     0.236 C 
BRANCH   6   7
HETATM    7  C3  UNL     1      -4.677   9.720  22.146  1.00  0.00     0.054 C 
BRANCH   7   8
HETATM    8  C2  UNL     1      -4.415  10.874  23.041  1.00  0.00    -0.035 C 
HETATM    9  C1  UNL     1      -5.413  11.609  23.509  1.00  0.00     0.007 C 
ENDBRANCH   7   8
ENDBRANCH   6   7
ENDBRANCH   3   6
ENDBRANCH   2   3
ENDBRANCH   1   2
BRANCH   1  10
HETATM   10  C7  UNL     1      -1.595  11.052  18.236  1.00  0.00     0.002 C 
BRANCH  10  11
HETATM   11  C8  UNL     1      -1.510  12.263  19.136  1.00  0.00     0.000 C 
BRANCH  11  12
HETATM   12  C9  UNL     1      -1.366  13.488  18.288  1.00  0.00     0.004 C 
BRANCH  12  13
HETATM   13  C10 UNL     1      -2.417  14.500  18.307  1.00  0.00    -0.014 C 
HETATM   14  C11 UNL     1      -1.873  15.921  18.210  1.00  0.00     0.004 C 
HETATM   15  C12 UNL     1      -2.934  16.665  17.378  1.00  0.00     0.000 C 
HETATM   16  C13 UNL     1      -3.312  15.562  16.401  1.00  0.00     0.000 C 
HETATM   17  C14 UNL     1      -3.516  14.406  17.334  1.00  0.00     0.004 C 
ENDBRANCH  12  13
ENDBRANCH  11  12
ENDBRANCH  10  11
ENDBRANCH   1  10
TORSDOF 9
ENDMDL
MODEL 4
REMARK VINA RESULT: -6.637744212      2.977      4.184
REMARK  9 active torsions:
REMARK  status: ('A' for Active; 'I' for Inactive)
REMARK    1  A    between atoms: C2_2  and  C3_3 
REMARK    2  A    between atoms: C3_3  and  C4_4 
REMARK    3  A    between atoms: C4_4  and  N1_5 
REMARK    4  A    between atoms: N1_5  and  C5_8 
REMARK    5  A    between atoms: C5_8  and  C6_9 
REMARK    6  A    between atoms: C6_9  and  C7_10 
REMARK    7  A    between atoms: C7_10  and  C8_11 
REMARK    8  A    between atoms: C8_11  and  C9_12 
REMARK    9  A    between atoms: C9_12  and  C10_13 
ROOT
HETATM    1  C6  UNL     1      -1.630   9.609  17.394  1.00  0.00     0.027 C 
ENDROOT
BRANCH   1   2
HETATM    2  C5  UNL     1      -2.091   8.208  17.811  1.00  0.00     0.232 C 
BRANCH   2   3
HETATM    3  N1  UNL     1      -1.922   8.075  19.243  1.00  0.00    -0.075 N 
ATOM      4  H12 UNL     1      -2.780   8.312  19.741  1.00  0.00     0.277 HD
ATOM      5  H11 UNL     1      -1.314   8.805  19.614  1.00  0.00     0.277 HD
BRANCH   3   6
HETATM    6  C4  UNL     1      -1.459   6.788  19.603  1.00  0.00     0.236 C 
BRANCH   6   7
HETATM    7  C3  UNL     1      -0.828   6.083  18.447  1.00  0.00     0.054 C 
BRANCH   7   8
HETATM    8  C2  UNL     1       0.465   5.462  18.827  1.00  0.00    -0.035 C 
HETATM    9  C1  UNL     1       0.655   4.988  20.049  1.00  0.00     0.007 C 
ENDBRANCH   7   8
ENDBRANCH   6   7
ENDBRANCH   3   6
ENDBRANCH   2   3
ENDBRANCH   1   2
BRANCH   1  10
HETATM   10  C7  UNL     1      -2.393  10.637  18.196  1.00  0.00     0.002 C 
BRANCH  10  11
HETATM   11  C8  UNL     1      -1.413  11.505  18.953  1.00  0.00     0.000 C 
BRANCH  11  12
HETATM   12  C9  UNL     1      -1.995  12.875  19.105  1.00  0.00     0.004 C 
BRANCH  12  13
HETATM   13  C10 UNL     1      -1.991  13.786  17.965  1.00  0.00    -0.014 C 
HETATM   14  C11 UNL     1      -3.394  14.136  17.482  1.00  0.00     0.004 C 
HETATM   15  C12 UNL     1      -3.271  15.604  17.029  1.00  0.00     0.000 C 
HETATM   16  C13 UNL     1      -2.312  16.119  18.091  1.00  0.00     0.000 C 
HETATM   17  C14 UNL     1      -1.255  15.055  18.068  1.00  0.00     0.004 C 
ENDBRANCH  12  13
ENDBRANCH  11  12
ENDBRANCH  10  11
ENDBRANCH   1  10
TORSDOF 9
ENDMDL
MODEL 5
REMARK VINA RESULT: -6.613743107      0.849      1.457
REMARK  9 active torsions:
REMARK  status: ('A' for Active; 'I' for Inactive)
REMARK    1  A    between atoms: C2_2  and  C3_3 
REMARK    2  A    between atoms: C3_3  and  C4_4 
REMARK    3  A    between atoms: C4_4  and  N1_5 
REMARK    4  A    between atoms: N1_5  and  C5_8 
REMARK    5  A    between atoms: C5_8  and  C6_9 
REMARK    6  A    between atoms: C6_9  and  C7_10 
REMARK    7  A    between atoms: C7_10  and  C8_11 
REMARK    8  A    between atoms: C8_11  and  C9_12 
REMARK    9  A    between atoms: C9_12  and  C10_13 
ROOT
HETATM    1  C6  UNL     1      -1.824  11.699  19.386  1.00  0.00     0.027 C 
ENDROOT
BRANCH   1   2
HETATM    2  C5  UNL     1      -2.677  10.626  18.701  1.00  0.00     0.232 C 
BRANCH   2   3
HETATM    3  N1  UNL     1      -3.236   9.762  19.719  1.00  0.00    -0.075 N 
ATOM      4  H12 UNL     1      -2.505   9.253  20.215  1.00  0.00     0.277 HD
ATOM      5  H11 UNL     1      -3.729   8.971  19.304  1.00  0.00     0.277 HD
BRANCH   3   6
HETATM    6  C4  UNL     1      -4.067  10.473  20.617  1.00  0.00     0.236 C 
BRANCH   6   7
HETATM    7  C3  UNL     1      -4.457   9.635  21.791  1.00  0.00     0.054 C 
BRANCH   7   8
HETATM    8  C2  UNL     1      -5.446  10.331  22.651  1.00  0.00    -0.035 C 
HETATM    9  C1  UNL     1      -5.073  11.322  23.446  1.00  0.00     0.007 C 
ENDBRANCH   7   8
ENDBRANCH   6   7
ENDBRANCH   3   6
ENDBRANCH   2   3
ENDBRANCH   1   2
BRANCH   1  10
HETATM   10  C7  UNL     1      -1.876  12.968  18.567  1.00  0.00     0.002 C 
BRANCH  10  11
HETATM   11  C8  UNL     1      -3.216  13.057  17.872  1.00  0.00     0.000 C 
BRANCH  11  12
HETATM   12  C9  UNL     1      -3.231  14.275  17.003  1.00  0.00     0.004 C 
BRANCH  12  13
HETATM   13  C10 UNL     1      -3.566  15.568  17.588  1.00  0.00    -0.014 C 
HETATM   14  C11 UNL     1      -2.335  16.401  17.928  1.00  0.00     0.004 C 
HETATM   15  C12 UNL     1      -2.780  17.848  17.642  1.00  0.00     0.000 C 
HETATM   16  C13 UNL     1      -3.644  17.612  16.413  1.00  0.00     0.000 C 
HETATM   17  C14 UNL     1      -4.489  16.460  16.870  1.00  0.00     0.004 C 
ENDBRANCH  12  13
ENDBRANCH  11  12
ENDBRANCH  10  11
ENDBRANCH   1  10
TORSDOF 9
ENDMDL
