MODEL 1
REMARK VINA RESULT: -6.737618582      0.000      0.000
REMARK  4 active torsions:
REMARK  status: ('A' for Active; 'I' for Inactive)
REMARK    1  A    between atoms: C2_2  and  C3_3 
REMARK    2  A    between atoms: N1_4  and  C4_5 
REMARK    3  A    between atoms: C5_8  and  C6_9 
REMARK    4  A    between atoms: C14_18  and  C15_19 
ROOT
HETATM    1  C3  UNL     1       9.829   6.675  41.564  1.00  0.00     0.352 C 
HETATM    2  N1  UNL     1       9.462   7.249  42.864  1.00  0.00    -0.315 N 
HETATM    3  C5  UNL     1       8.322   8.107  42.641  1.00  0.00     0.165 C 
HETATM    4  C12 UNL     1       8.481   8.375  41.183  1.00  0.00     0.316 C 
HETATM    5  S2  UNL     1       6.942   8.607  40.270  1.00  0.00    -0.128 SA
HETATM    6  C13 UNL     1       7.455   7.506  38.878  1.00  0.00     0.123 C 
HETATM    7  C14 UNL     1       8.893   7.195  39.358  1.00  0.00     0.336 C 
HETATM    8  N3  UNL     1       8.722   6.982  40.724  1.00  0.00     0.147 N 
ENDROOT
BRANCH   3   9
HETATM    9  C6  UNL     1       8.358   9.384  43.349  1.00  0.00    -0.032 A 
HETATM   10  C7  UNL     1       9.337  10.312  43.169  1.00  0.00     0.009 A 
HETATM   11  C8  UNL     1       9.335  11.522  43.866  1.00  0.00     0.001 A 
HETATM   12  C9  UNL     1       8.324  11.789  44.756  1.00  0.00     0.000 A 
HETATM   13  C10 UNL     1       7.326  10.870  44.955  1.00  0.00     0.001 A 
HETATM   14  C11 UNL     1       7.351   9.665  44.244  1.00  0.00     0.009 A 
ENDBRANCH   3   9
BRANCH   2  15
HETATM   15  C4  UNL     1      10.071   7.033  44.124  1.00  0.00     0.185 C 
HETATM   16  N2  UNL     1      11.450   7.282  44.354  1.00  0.00    -0.070 NA
HETATM   17  S1  UNL     1       9.221   6.474  45.417  1.00  0.00    -0.044 SA
ENDBRANCH   2  15
BRANCH   1  18
HETATM   18  C2  UNL     1       9.927   5.215  41.830  1.00  0.00     0.020 C 
HETATM   19  C1  UNL     1       8.871   4.443  41.928  1.00  0.00     0.011 C 
ENDBRANCH   1  18
BRANCH   7  20
HETATM   20  C15 UNL     1       9.358   6.120  38.499  1.00  0.00     0.208 C 
HETATM   21  O1  UNL     1      10.378   6.088  37.779  1.00  0.00    -0.646 OA
HETATM   22  O2  UNL     1       8.566   4.956  38.462  1.00  0.00    -0.646 OA
ENDBRANCH   7  20
TORSDOF 4
ENDMDL
MODEL 2
REMARK VINA RESULT: -6.698682040      0.245      1.033
REMARK  4 active torsions:
REMARK  status: ('A' for Active; 'I' for Inactive)
REMARK    1  A    between atoms: C2_2  and  C3_3 
REMARK    2  A    between atoms: N1_4  and  C4_5 
REMARK    3  A    between atoms: C5_8  and  C6_9 
REMARK    4  A    between atoms: C14_18  and  C15_19 
ROOT
HETATM    1  C3  UNL     1       9.874   6.663  41.478  1.00  0.00     0.352 C 
HETATM    2  N1  UNL     1       9.529   7.239  42.784  1.00  0.00    -0.315 N 
HETATM    3  C5  UNL     1       8.441   8.162  42.565  1.00  0.00     0.165 C 
HETATM    4  C12 UNL     1       8.625   8.440  41.112  1.00  0.00     0.316 C 
HETATM    5  S2  UNL     1       7.108   8.769  40.192  1.00  0.00    -0.128 SA
HETATM    6  C13 UNL     1       7.569   7.661  38.788  1.00  0.00     0.123 C 
HETATM    7  C14 UNL     1       8.984   7.264  39.274  1.00  0.00     0.336 C 
HETATM    8  N3  UNL     1       8.791   7.042  40.635  1.00  0.00     0.147 N 
ENDROOT
BRANCH   3   9
HETATM    9  C6  UNL     1       8.541   9.425  43.291  1.00  0.00    -0.032 A 
HETATM   10  C7  UNL     1       7.671   9.797  44.269  1.00  0.00     0.009 A 
HETATM   11  C8  UNL     1       7.802  11.015  44.940  1.00  0.00     0.001 A 
HETATM   12  C9  UNL     1       8.830  11.863  44.609  1.00  0.00     0.000 A 
HETATM   13  C10 UNL     1       9.720  11.512  43.627  1.00  0.00     0.001 A 
HETATM   14  C11 UNL     1       9.567  10.285  42.970  1.00  0.00     0.009 A 
ENDBRANCH   3   9
BRANCH   2  15
HETATM   15  C4  UNL     1      10.116   6.972  44.044  1.00  0.00     0.185 C 
HETATM   16  N2  UNL     1      11.487   7.229  44.315  1.00  0.00    -0.070 NA
HETATM   17  S1  UNL     1       9.249   6.342  45.292  1.00  0.00    -0.044 SA
ENDBRANCH   2  15
BRANCH   1  18
HETATM   18  C2  UNL     1       9.889   5.196  41.725  1.00  0.00     0.020 C 
HETATM   19  C1  UNL     1       8.790   4.490  41.849  1.00  0.00     0.011 C 
ENDBRANCH   1  18
BRANCH   7  20
HETATM   20  C15 UNL     1       9.396   6.176  38.403  1.00  0.00     0.208 C 
HETATM   21  O1  UNL     1      10.401   6.111  37.665  1.00  0.00    -0.646 OA
HETATM   22  O2  UNL     1       8.563   5.041  38.377  1.00  0.00    -0.646 OA
ENDBRANCH   7  20
TORSDOF 4
ENDMDL
MODEL 3
REMARK VINA RESULT: -6.565947939      2.439      3.120
REMARK  4 active torsions:
REMARK  status: ('A' for Active; 'I' for Inactive)
REMARK    1  A    between atoms: C2_2  and  C3_3 
REMARK    2  A    between atoms: N1_4  and  C4_5 
REMARK    3  A    between atoms: C5_8  and  C6_9 
REMARK    4  A    between atoms: C14_18  and  C15_19 
ROOT
HETATM    1  C3  UNL     1       9.189   7.862  43.952  1.00  0.00     0.352 C 
HETATM    2  N1  UNL     1       7.893   8.431  44.341  1.00  0.00    -0.315 N 
HETATM    3  C5  UNL     1       7.384   9.148  43.196  1.00  0.00     0.165 C 
HETATM    4  C12 UNL     1       8.655   9.387  42.454  1.00  0.00     0.316 C 
HETATM    5  S2  UNL     1       8.505   9.416  40.656  1.00  0.00    -0.128 SA
HETATM    6  C13 UNL     1       9.981   8.338  40.389  1.00  0.00     0.123 C 
HETATM    7  C14 UNL     1      10.429   8.206  41.864  1.00  0.00     0.336 C 
HETATM    8  N3  UNL     1       9.224   8.017  42.537  1.00  0.00     0.147 N 
ENDROOT
BRANCH   3   9
HETATM    9  C6  UNL     1       6.776  10.442  43.492  1.00  0.00    -0.032 A 
HETATM   10  C7  UNL     1       7.449  11.467  44.083  1.00  0.00     0.009 A 
HETATM   11  C8  UNL     1       6.830  12.691  44.351  1.00  0.00     0.001 A 
HETATM   12  C9  UNL     1       5.511  12.870  44.013  1.00  0.00     0.000 A 
HETATM   13  C10 UNL     1       4.811  11.853  43.417  1.00  0.00     0.001 A 
HETATM   14  C11 UNL     1       5.455  10.636  43.160  1.00  0.00     0.009 A 
ENDBRANCH   3   9
BRANCH   2  15
HETATM   15  C4  UNL     1       7.224   8.323  45.584  1.00  0.00     0.185 C 
HETATM   16  N2  UNL     1       6.042   7.553  45.748  1.00  0.00    -0.070 NA
HETATM   17  S1  UNL     1       7.770   9.087  46.935  1.00  0.00    -0.044 SA
ENDBRANCH   2  15
BRANCH   1  18
HETATM   18  C2  UNL     1       9.086   6.432  44.345  1.00  0.00     0.020 C 
HETATM   19  C1  UNL     1       8.551   5.522  43.565  1.00  0.00     0.011 C 
ENDBRANCH   1  18
BRANCH   7  20
HETATM   20  C15 UNL     1      11.442   7.164  41.864  1.00  0.00     0.208 C 
HETATM   21  O1  UNL     1      12.492   7.101  42.538  1.00  0.00    -0.646 OA
HETATM   22  O2  UNL     1      11.227   6.077  40.994  1.00  0.00    -0.646 OA
ENDBRANCH   7  20
TORSDOF 4
ENDMDL
MODEL 4
REMARK VINA RESULT: -6.550495501      2.917      5.231
REMARK  4 active torsions:
REMARK  status: ('A' for Active; 'I' for Inactive)
REMARK    1  A    between atoms: C2_2  and  C3_3 
REMARK    2  A    between atoms: N1_4  and  C4_5 
REMARK    3  A    between atoms: C5_8  and  C6_9 
REMARK    4  A    between atoms: C14_18  and  C15_19 
ROOT
HETATM    1  C3  UNL     1       9.561   5.847  41.687  1.00  0.00     0.352 C 
HETATM    2  N1  UNL     1       9.236   6.256  40.315  1.00  0.00    -0.315 N 
HETATM    3  C5  UNL     1       8.762   7.618  40.381  1.00  0.00     0.165 C 
HETATM    4  C12 UNL     1       8.343   7.678  41.810  1.00  0.00     0.316 C 
HETATM    5  S2  UNL     1       8.531   9.289  42.603  1.00  0.00    -0.128 SA
HETATM    6  C13 UNL     1       9.302   8.589  44.128  1.00  0.00     0.123 C 
HETATM    7  C14 UNL     1       9.186   7.088  43.768  1.00  0.00     0.336 C 
HETATM    8  N3  UNL     1       9.550   7.065  42.424  1.00  0.00     0.147 N 
ENDROOT
BRANCH   3   9
HETATM    9  C6  UNL     1       7.599   7.913  39.549  1.00  0.00    -0.032 A 
HETATM   10  C7  UNL     1       7.662   8.660  38.412  1.00  0.00     0.009 A 
HETATM   11  C8  UNL     1       6.525   8.920  37.644  1.00  0.00     0.001 A 
HETATM   12  C9  UNL     1       5.312   8.412  38.037  1.00  0.00     0.000 A 
HETATM   13  C10 UNL     1       5.222   7.656  39.178  1.00  0.00     0.001 A 
HETATM   14  C11 UNL     1       6.376   7.411  39.931  1.00  0.00     0.009 A 
ENDBRANCH   3   9
BRANCH   2  15
HETATM   15  C4  UNL     1       9.351   5.502  39.123  1.00  0.00     0.185 C 
HETATM   16  N2  UNL     1      10.252   5.855  38.083  1.00  0.00    -0.070 NA
HETATM   17  S1  UNL     1       8.446   4.155  38.854  1.00  0.00    -0.044 SA
ENDBRANCH   2  15
BRANCH   1  18
HETATM   18  C2  UNL     1      10.934   5.285  41.579  1.00  0.00     0.020 C 
HETATM   19  C1  UNL     1      12.011   6.014  41.749  1.00  0.00     0.011 C 
ENDBRANCH   1  18
BRANCH   7  20
HETATM   20  C15 UNL     1       9.989   6.394  44.760  1.00  0.00     0.208 C 
HETATM   21  O1  UNL     1       9.693   5.382  45.429  1.00  0.00    -0.646 OA
HETATM   22  O2  UNL     1      11.272   6.919  45.010  1.00  0.00    -0.646 OA
ENDBRANCH   7  20
TORSDOF 4
ENDMDL
MODEL 5
REMARK VINA RESULT: -6.486415929      2.876      5.438
REMARK  4 active torsions:
REMARK  status: ('A' for Active; 'I' for Inactive)
REMARK    1  A    between atoms: C2_2  and  C3_3 
REMARK    2  A    between atoms: N1_4  and  C4_5 
REMARK    3  A    between atoms: C5_8  and  C6_9 
REMARK    4  A    between atoms: C14_18  and  C15_19 
ROOT
HETATM    1  C3  UNL     1       9.719   6.072  41.415  1.00  0.00     0.352 C 
HETATM    2  N1  UNL     1       9.166   6.316  40.077  1.00  0.00    -0.315 N 
HETATM    3  C5  UNL     1       8.312   7.476  40.178  1.00  0.00     0.165 C 
HETATM    4  C12 UNL     1       8.022   7.459  41.640  1.00  0.00     0.316 C 
HETATM    5  S2  UNL     1       7.786   9.078  42.400  1.00  0.00    -0.128 SA
HETATM    6  C13 UNL     1       8.863   8.695  43.851  1.00  0.00     0.123 C 
HETATM    7  C14 UNL     1       9.172   7.216  43.514  1.00  0.00     0.336 C 
HETATM    8  N3  UNL     1       9.406   7.255  42.141  1.00  0.00     0.147 N 
ENDROOT
BRANCH   3   9
HETATM    9  C6  UNL     1       7.046   7.380  39.458  1.00  0.00    -0.032 A 
HETATM   10  C7  UNL     1       6.033   6.550  39.832  1.00  0.00     0.009 A 
HETATM   11  C8  UNL     1       4.836   6.487  39.114  1.00  0.00     0.001 A 
HETATM   12  C9  UNL     1       4.670   7.278  38.005  1.00  0.00     0.000 A 
HETATM   13  C10 UNL     1       5.674   8.123  37.608  1.00  0.00     0.001 A 
HETATM   14  C11 UNL     1       6.864   8.167  38.343  1.00  0.00     0.009 A 
ENDBRANCH   3   9
BRANCH   2  15
HETATM   15  C4  UNL     1       9.397   5.589  38.885  1.00  0.00     0.185 C 
HETATM   16  N2  UNL     1      10.143   6.124  37.801  1.00  0.00    -0.070 NA
HETATM   17  S1  UNL     1       8.815   4.066  38.668  1.00  0.00    -0.044 SA
ENDBRANCH   2  15
BRANCH   1  18
HETATM   18  C2  UNL     1      11.182   5.941  41.182  1.00  0.00     0.020 C 
HETATM   19  C1  UNL     1      11.947   5.164  41.911  1.00  0.00     0.011 C 
ENDBRANCH   1  18
BRANCH   7  20
HETATM   20  C15 UNL     1      10.231   6.829  44.430  1.00  0.00     0.208 C 
HETATM   21  O1  UNL     1      11.372   7.323  44.552  1.00  0.00    -0.646 OA
HETATM   22  O2  UNL     1       9.950   5.758  45.300  1.00  0.00    -0.646 OA
ENDBRANCH   7  20
TORSDOF 4
ENDMDL
