MODEL 1
REMARK VINA RESULT: -6.629312093      0.000      0.000
REMARK  4 active torsions:
REMARK  status: ('A' for Active; 'I' for Inactive)
REMARK    1  A    between atoms: C1_2  and  C2_4 
REMARK    2  A    between atoms: C2_4  and  N1_5 
REMARK    3  A    between atoms: C2_4  and  C5_15 
REMARK    4  A    between atoms: C3_7  and  C4_8 
ROOT
HETATM    1  N1  UNL     1      18.889  15.570  18.261  1.00  0.00    -0.381 N 
ATOM      2  H1  UNL     1      18.791  16.260  19.007  1.00  0.00     0.160 HD
HETATM    3  C3  UNL     1      19.745  15.830  17.368  1.00  0.00     0.135 C 
ENDROOT
BRANCH   1   4
HETATM    4  C2  UNL     1      18.044  14.425  18.348  1.00  0.00     0.186 C 
BRANCH   4   5
HETATM    5  C1  UNL     1      16.613  14.842  18.533  1.00  0.00     0.197 C 
HETATM    6  O1  UNL     1      15.687  13.994  18.519  1.00  0.00    -0.646 OA
HETATM    7  O2  UNL     1      16.266  16.167  18.724  1.00  0.00    -0.646 OA
ENDBRANCH   4   5
BRANCH   4   8
HETATM    8  C5  UNL     1      18.514  13.598  19.526  1.00  0.00     0.019 A 
HETATM    9  C6  UNL     1      19.758  13.950  20.248  1.00  0.00     0.007 A 
HETATM   10  C7  UNL     1      18.421  14.298  20.862  1.00  0.00     0.007 A 
ENDBRANCH   4   8
ENDBRANCH   1   4
BRANCH   3  11
HETATM   11  C4  UNL     1      20.516  17.065  17.459  1.00  0.00     0.152 A 
HETATM   12  N2  UNL     1      20.408  18.349  17.048  1.00  0.00    -0.269 N 
HETATM   13  N3  UNL     1      21.555  18.680  17.597  1.00  0.00    -0.239 N 
ATOM     14  H2  UNL     1      19.705  18.863  16.517  1.00  0.00     0.190 HD
HETATM   15  N4  UNL     1      21.689  17.449  18.008  1.00  0.00    -0.269 N 
ATOM     16  H3  UNL     1      22.106  19.535  17.670  1.00  0.00     0.208 HD
ATOM     17  H4  UNL     1      22.408  16.960  18.542  1.00  0.00     0.190 HD
ENDBRANCH   3  11
TORSDOF 4
ENDMDL
MODEL 2
REMARK VINA RESULT: -6.511458224      0.717      1.206
REMARK  4 active torsions:
REMARK  status: ('A' for Active; 'I' for Inactive)
REMARK    1  A    between atoms: C1_2  and  C2_4 
REMARK    2  A    between atoms: C2_4  and  N1_5 
REMARK    3  A    between atoms: C2_4  and  C5_15 
REMARK    4  A    between atoms: C3_7  and  C4_8 
ROOT
HETATM    1  N1  UNL     1      18.694  16.275  18.188  1.00  0.00    -0.381 N 
ATOM      2  H1  UNL     1      18.208  17.156  18.354  1.00  0.00     0.160 HD
HETATM    3  C3  UNL     1      19.822  16.356  17.621  1.00  0.00     0.135 C 
ENDROOT
BRANCH   1   4
HETATM    4  C2  UNL     1      18.023  15.094  18.622  1.00  0.00     0.186 C 
BRANCH   4   5
HETATM    5  C1  UNL     1      16.535  15.286  18.564  1.00  0.00     0.197 C 
HETATM    6  O1  UNL     1      15.765  14.311  18.378  1.00  0.00    -0.646 OA
HETATM    7  O2  UNL     1      15.961  16.535  18.712  1.00  0.00    -0.646 OA
ENDBRANCH   4   5
BRANCH   4   8
HETATM    8  C5  UNL     1      18.469  14.810  20.041  1.00  0.00     0.019 A 
HETATM    9  C6  UNL     1      18.198  13.497  20.670  1.00  0.00     0.007 A 
HETATM   10  C7  UNL     1      19.588  13.802  20.159  1.00  0.00     0.007 A 
ENDBRANCH   4   8
ENDBRANCH   1   4
BRANCH   3  11
HETATM   11  C4  UNL     1      20.339  17.669  17.252  1.00  0.00     0.152 A 
HETATM   12  N2  UNL     1      21.488  18.370  17.385  1.00  0.00    -0.269 N 
HETATM   13  N3  UNL     1      20.993  19.409  16.750  1.00  0.00    -0.239 N 
ATOM     14  H2  UNL     1      22.391  18.169  17.813  1.00  0.00     0.190 HD
HETATM   15  N4  UNL     1      19.871  18.759  16.605  1.00  0.00    -0.269 N 
ATOM     16  H3  UNL     1      21.339  20.331  16.485  1.00  0.00     0.208 HD
ATOM     17  H4  UNL     1      18.978  18.988  16.169  1.00  0.00     0.190 HD
ENDBRANCH   3  11
TORSDOF 4
ENDMDL
MODEL 3
REMARK VINA RESULT: -6.410527620      1.851      2.496
REMARK  4 active torsions:
REMARK  status: ('A' for Active; 'I' for Inactive)
REMARK    1  A    between atoms: C1_2  and  C2_4 
REMARK    2  A    between atoms: C2_4  and  N1_5 
REMARK    3  A    between atoms: C2_4  and  C5_15 
REMARK    4  A    between atoms: C3_7  and  C4_8 
ROOT
HETATM    1  N1  UNL     1      18.869  16.091  18.503  1.00  0.00    -0.381 N 
ATOM      2  H1  UNL     1      18.744  16.908  19.100  1.00  0.00     0.160 HD
HETATM    3  C3  UNL     1      19.674  16.222  17.535  1.00  0.00     0.135 C 
ENDROOT
BRANCH   1   4
HETATM    4  C2  UNL     1      18.118  14.931  18.855  1.00  0.00     0.186 C 
BRANCH   4   5
HETATM    5  C1  UNL     1      18.812  14.170  19.948  1.00  0.00     0.197 C 
HETATM    6  O1  UNL     1      18.164  13.687  20.909  1.00  0.00    -0.646 OA
HETATM    7  O2  UNL     1      20.181  13.974  19.935  1.00  0.00    -0.646 OA
ENDBRANCH   4   5
BRANCH   4   8
HETATM    8  C5  UNL     1      17.986  14.077  17.612  1.00  0.00     0.019 A 
HETATM    9  C6  UNL     1      17.996  12.599  17.706  1.00  0.00     0.007 A 
HETATM   10  C7  UNL     1      16.682  13.319  17.505  1.00  0.00     0.007 A 
ENDBRANCH   4   8
ENDBRANCH   1   4
BRANCH   3  11
HETATM   11  C4  UNL     1      20.351  17.500  17.343  1.00  0.00     0.152 A 
HETATM   12  N2  UNL     1      21.479  18.113  17.767  1.00  0.00    -0.269 N 
HETATM   13  N3  UNL     1      21.221  19.196  17.069  1.00  0.00    -0.239 N 
ATOM     14  H2  UNL     1      22.239  17.840  18.390  1.00  0.00     0.190 HD
HETATM   15  N4  UNL     1      20.124  18.633  16.642  1.00  0.00    -0.269 N 
ATOM     16  H3  UNL     1      21.681  20.095  16.924  1.00  0.00     0.208 HD
ATOM     17  H4  UNL     1      19.378  18.933  16.014  1.00  0.00     0.190 HD
ENDBRANCH   3  11
TORSDOF 4
ENDMDL
MODEL 4
REMARK VINA RESULT: -6.332901153      2.061      2.742
REMARK  4 active torsions:
REMARK  status: ('A' for Active; 'I' for Inactive)
REMARK    1  A    between atoms: C1_2  and  C2_4 
REMARK    2  A    between atoms: C2_4  and  N1_5 
REMARK    3  A    between atoms: C2_4  and  C5_15 
REMARK    4  A    between atoms: C3_7  and  C4_8 
ROOT
HETATM    1  N1  UNL     1      20.036  15.384  18.360  1.00  0.00    -0.381 N 
ATOM      2  H1  UNL     1      20.900  14.982  18.725  1.00  0.00     0.160 HD
HETATM    3  C3  UNL     1      20.165  16.365  17.573  1.00  0.00     0.135 C 
ENDROOT
BRANCH   1   4
HETATM    4  C2  UNL     1      18.823  14.774  18.795  1.00  0.00     0.186 C 
BRANCH   4   5
HETATM    5  C1  UNL     1      19.062  13.962  20.037  1.00  0.00     0.197 C 
HETATM    6  O1  UNL     1      18.276  14.030  21.013  1.00  0.00    -0.646 OA
HETATM    7  O2  UNL     1      20.150  13.115  20.148  1.00  0.00    -0.646 OA
ENDBRANCH   4   5
BRANCH   4   8
HETATM    8  C5  UNL     1      18.325  13.892  17.670  1.00  0.00     0.019 A 
HETATM    9  C6  UNL     1      17.591  12.639  17.960  1.00  0.00     0.007 A 
HETATM   10  C7  UNL     1      16.822  13.861  17.513  1.00  0.00     0.007 A 
ENDBRANCH   4   8
ENDBRANCH   1   4
BRANCH   3  11
HETATM   11  C4  UNL     1      21.504  16.845  17.248  1.00  0.00     0.152 A 
HETATM   12  N2  UNL     1      22.768  16.365  17.237  1.00  0.00    -0.269 N 
HETATM   13  N3  UNL     1      23.258  17.508  16.811  1.00  0.00    -0.239 N 
ATOM     14  H2  UNL     1      23.182  15.462  17.469  1.00  0.00     0.190 HD
HETATM   15  N4  UNL     1      22.050  18.001  16.811  1.00  0.00    -0.269 N 
ATOM     16  H3  UNL     1      24.187  17.859  16.580  1.00  0.00     0.208 HD
ATOM     17  H4  UNL     1      21.664  18.915  16.572  1.00  0.00     0.190 HD
ENDBRANCH   3  11
TORSDOF 4
ENDMDL
MODEL 5
REMARK VINA RESULT: -6.090639207      4.115      6.201
REMARK  4 active torsions:
REMARK  status: ('A' for Active; 'I' for Inactive)
REMARK    1  A    between atoms: C1_2  and  C2_4 
REMARK    2  A    between atoms: C2_4  and  N1_5 
REMARK    3  A    between atoms: C2_4  and  C5_15 
REMARK    4  A    between atoms: C3_7  and  C4_8 
ROOT
HETATM    1  N1  UNL     1      17.425  12.982  19.586  1.00  0.00    -0.381 N 
ATOM      2  H1  UNL     1      17.458  12.823  20.593  1.00  0.00     0.160 HD
HETATM    3  C3  UNL     1      16.624  12.255  18.931  1.00  0.00     0.135 C 
ENDROOT
BRANCH   1   4
HETATM    4  C2  UNL     1      18.287  13.998  19.079  1.00  0.00     0.186 C 
BRANCH   4   5
HETATM    5  C1  UNL     1      19.675  13.829  19.630  1.00  0.00     0.197 C 
HETATM    6  O1  UNL     1      19.933  12.926  20.464  1.00  0.00    -0.646 OA
HETATM    7  O2  UNL     1      20.712  14.657  19.240  1.00  0.00    -0.646 OA
ENDBRANCH   4   5
BRANCH   4   8
HETATM    8  C5  UNL     1      17.710  15.335  19.492  1.00  0.00     0.019 A 
HETATM    9  C6  UNL     1      17.698  16.477  18.549  1.00  0.00     0.007 A 
HETATM   10  C7  UNL     1      16.421  15.707  18.796  1.00  0.00     0.007 A 
ENDBRANCH   4   8
ENDBRANCH   1   4
BRANCH   3  11
HETATM   11  C4  UNL     1      15.821  11.264  19.639  1.00  0.00     0.152 A 
HETATM   12  N2  UNL     1      14.820  10.398  19.363  1.00  0.00    -0.269 N 
HETATM   13  N3  UNL     1      14.779   9.963  20.602  1.00  0.00    -0.239 N 
ATOM     14  H2  UNL     1      14.297  10.171  18.518  1.00  0.00     0.190 HD
HETATM   15  N4  UNL     1      15.745  10.787  20.901  1.00  0.00    -0.269 N 
ATOM     16  H3  UNL     1      14.226   9.273  21.113  1.00  0.00     0.208 HD
ATOM     17  H4  UNL     1      16.251  10.994  21.763  1.00  0.00     0.190 HD
ENDBRANCH   3  11
TORSDOF 4
ENDMDL
