MODEL 1
REMARK VINA RESULT: -7.112791345      0.000      0.000
REMARK  4 active torsions:
REMARK  status: ('A' for Active; 'I' for Inactive)
REMARK    1  A    between atoms: C1_2  and  N1_3 
REMARK    2  A    between atoms: N1_3  and  C2_5 
REMARK    3  A    between atoms: C2_5  and  C3_6 
REMARK    4  A    between atoms: C2_5  and  C4_9 
ROOT
HETATM    1  C2  UNL     1      17.704  13.968  18.584  1.00  0.00     0.216 C 
ENDROOT
BRANCH   1   2
HETATM    2  N1  UNL     1      16.871  14.848  19.359  1.00  0.00    -0.351 N 
ATOM      3  H1  UNL     1      16.678  14.607  20.331  1.00  0.00     0.162 HD
BRANCH   2   4
HETATM    4  C1  UNL     1      16.304  16.047  18.824  1.00  0.00     0.349 C 
HETATM    5  O1  UNL     1      15.078  16.288  18.862  1.00  0.00    -0.284 OA
ENDBRANCH   2   4
ENDBRANCH   1   2
BRANCH   1   6
HETATM    6  C3  UNL     1      19.122  14.007  19.034  1.00  0.00     0.199 C 
HETATM    7  O2  UNL     1      19.927  14.892  18.654  1.00  0.00    -0.646 OA
HETATM    8  O3  UNL     1      19.605  13.045  19.905  1.00  0.00    -0.646 OA
ENDBRANCH   1   6
BRANCH   1   9
HETATM    9  C4  UNL     1      17.147  12.579  18.594  1.00  0.00     0.184 C 
HETATM   10  C5  UNL     1      15.705  12.624  18.170  1.00  0.00     0.160 C 
HETATM   11  N2  UNL     1      15.084  11.519  18.873  1.00  0.00    -0.334 N 
HETATM   12  C6  UNL     1      15.947  11.182  19.942  1.00  0.00     0.361 C 
ATOM     13  H2  UNL     1      14.197  11.072  18.642  1.00  0.00     0.164 HD
HETATM   14  O4  UNL     1      15.757  10.267  20.780  1.00  0.00    -0.239 OA
HETATM   15  O5  UNL     1      17.057  12.047  19.908  1.00  0.00    -0.294 OA
ENDBRANCH   1   9
TORSDOF 4
ENDMDL
MODEL 2
REMARK VINA RESULT: -6.655443369      1.855      2.184
REMARK  4 active torsions:
REMARK  status: ('A' for Active; 'I' for Inactive)
REMARK    1  A    between atoms: C1_2  and  N1_3 
REMARK    2  A    between atoms: N1_3  and  C2_5 
REMARK    3  A    between atoms: C2_5  and  C3_6 
REMARK    4  A    between atoms: C2_5  and  C4_9 
ROOT
HETATM    1  C2  UNL     1      18.769  13.892  18.397  1.00  0.00     0.216 C 
ENDROOT
BRANCH   1   2
HETATM    2  N1  UNL     1      18.636  15.230  17.887  1.00  0.00    -0.351 N 
ATOM      3  H1  UNL     1      17.700  15.605  17.735  1.00  0.00     0.162 HD
BRANCH   2   4
HETATM    4  C1  UNL     1      19.763  16.057  17.583  1.00  0.00     0.349 C 
HETATM    5  O1  UNL     1      19.654  17.273  17.312  1.00  0.00    -0.284 OA
ENDBRANCH   2   4
ENDBRANCH   1   2
BRANCH   1   6
HETATM    6  C3  UNL     1      19.018  13.881  19.865  1.00  0.00     0.199 C 
HETATM    7  O2  UNL     1      18.334  14.557  20.671  1.00  0.00    -0.646 OA
HETATM    8  O3  UNL     1      20.037  13.106  20.395  1.00  0.00    -0.646 OA
ENDBRANCH   1   6
BRANCH   1   9
HETATM    9  C4  UNL     1      17.577  13.069  18.021  1.00  0.00     0.184 C 
HETATM   10  C5  UNL     1      16.339  13.912  18.141  1.00  0.00     0.160 C 
HETATM   11  N2  UNL     1      15.291  12.975  18.493  1.00  0.00    -0.334 N 
HETATM   12  C6  UNL     1      15.935  11.818  18.992  1.00  0.00     0.361 C 
ATOM     13  H2  UNL     1      14.287  13.121  18.399  1.00  0.00     0.164 HD
HETATM   14  O4  UNL     1      15.363  10.776  19.398  1.00  0.00    -0.239 OA
HETATM   15  O5  UNL     1      17.325  12.031  18.958  1.00  0.00    -0.294 OA
ENDBRANCH   1   9
TORSDOF 4
ENDMDL
MODEL 3
REMARK VINA RESULT: -6.578397343      1.514      2.542
REMARK  4 active torsions:
REMARK  status: ('A' for Active; 'I' for Inactive)
REMARK    1  A    between atoms: C1_2  and  N1_3 
REMARK    2  A    between atoms: N1_3  and  C2_5 
REMARK    3  A    between atoms: C2_5  and  C3_6 
REMARK    4  A    between atoms: C2_5  and  C4_9 
ROOT
HETATM    1  C2  UNL     1      17.441  13.963  19.241  1.00  0.00     0.216 C 
ENDROOT
BRANCH   1   2
HETATM    2  N1  UNL     1      18.203  13.980  20.461  1.00  0.00    -0.351 N 
ATOM      3  H1  UNL     1      17.705  14.069  21.346  1.00  0.00     0.162 HD
BRANCH   2   4
HETATM    4  C1  UNL     1      19.629  13.876  20.483  1.00  0.00     0.349 C 
HETATM    5  O1  UNL     1      20.231  12.797  20.288  1.00  0.00    -0.284 OA
ENDBRANCH   2   4
ENDBRANCH   1   2
BRANCH   1   6
HETATM    6  C3  UNL     1      18.213  14.526  18.098  1.00  0.00     0.199 C 
HETATM    7  O2  UNL     1      18.511  13.848  17.086  1.00  0.00    -0.646 OA
HETATM    8  O3  UNL     1      18.633  15.846  18.123  1.00  0.00    -0.646 OA
ENDBRANCH   1   6
BRANCH   1   9
HETATM    9  C4  UNL     1      16.940  12.582  18.957  1.00  0.00     0.184 C 
HETATM   10  C5  UNL     1      15.557  12.671  18.375  1.00  0.00     0.160 C 
HETATM   11  N2  UNL     1      14.900  11.454  18.808  1.00  0.00    -0.334 N 
HETATM   12  C6  UNL     1      15.645  10.960  19.905  1.00  0.00     0.361 C 
ATOM     13  H2  UNL     1      14.064  11.035  18.402  1.00  0.00     0.164 HD
HETATM   14  O4  UNL     1      15.393   9.915  20.553  1.00  0.00    -0.239 OA
HETATM   15  O5  UNL     1      16.717  11.838  20.147  1.00  0.00    -0.294 OA
ENDBRANCH   1   9
TORSDOF 4
ENDMDL
MODEL 4
REMARK VINA RESULT: -6.320878263      1.630      4.273
REMARK  4 active torsions:
REMARK  status: ('A' for Active; 'I' for Inactive)
REMARK    1  A    between atoms: C1_2  and  N1_3 
REMARK    2  A    between atoms: N1_3  and  C2_5 
REMARK    3  A    between atoms: C2_5  and  C3_6 
REMARK    4  A    between atoms: C2_5  and  C4_9 
ROOT
HETATM    1  C2  UNL     1      17.052  13.768  19.064  1.00  0.00     0.216 C 
ENDROOT
BRANCH   1   2
HETATM    2  N1  UNL     1      16.424  14.748  18.219  1.00  0.00    -0.351 N 
ATOM      3  H1  UNL     1      16.306  14.536  17.228  1.00  0.00     0.162 HD
BRANCH   2   4
HETATM    4  C1  UNL     1      15.958  16.008  18.709  1.00  0.00     0.349 C 
HETATM    5  O1  UNL     1      14.752  16.233  18.953  1.00  0.00    -0.284 OA
ENDBRANCH   2   4
ENDBRANCH   1   2
BRANCH   1   6
HETATM    6  C3  UNL     1      16.395  12.437  18.952  1.00  0.00     0.199 C 
HETATM    7  O2  UNL     1      16.946  11.378  19.336  1.00  0.00    -0.646 OA
HETATM    8  O3  UNL     1      15.126  12.329  18.407  1.00  0.00    -0.646 OA
ENDBRANCH   1   6
BRANCH   1   9
HETATM    9  C4  UNL     1      18.520  13.699  18.782  1.00  0.00     0.184 C 
HETATM   10  C5  UNL     1      19.278  13.998  20.044  1.00  0.00     0.160 C 
HETATM   11  N2  UNL     1      20.507  14.620  19.594  1.00  0.00    -0.334 N 
HETATM   12  C6  UNL     1      20.272  15.069  18.272  1.00  0.00     0.361 C 
ATOM     13  H2  UNL     1      21.372  14.717  20.125  1.00  0.00     0.164 HD
HETATM   14  O4  UNL     1      21.103  15.658  17.538  1.00  0.00    -0.239 OA
HETATM   15  O5  UNL     1      18.949  14.744  17.919  1.00  0.00    -0.294 OA
ENDBRANCH   1   9
TORSDOF 4
ENDMDL
MODEL 5
REMARK VINA RESULT: -6.210102474      1.567      2.400
REMARK  4 active torsions:
REMARK  status: ('A' for Active; 'I' for Inactive)
REMARK    1  A    between atoms: C1_2  and  N1_3 
REMARK    2  A    between atoms: N1_3  and  C2_5 
REMARK    3  A    between atoms: C2_5  and  C3_6 
REMARK    4  A    between atoms: C2_5  and  C4_9 
ROOT
HETATM    1  C2  UNL     1      18.319  13.963  18.793  1.00  0.00     0.216 C 
ENDROOT
BRANCH   1   2
HETATM    2  N1  UNL     1      18.649  14.623  17.559  1.00  0.00    -0.351 N 
ATOM      3  H1  UNL     1      18.062  14.455  16.742  1.00  0.00     0.162 HD
BRANCH   2   4
HETATM    4  C1  UNL     1      19.766  15.507  17.429  1.00  0.00     0.349 C 
HETATM    5  O1  UNL     1      19.647  16.752  17.444  1.00  0.00    -0.284 OA
ENDBRANCH   2   4
ENDBRANCH   1   2
BRANCH   1   6
HETATM    6  C3  UNL     1      17.692  14.895  19.770  1.00  0.00     0.199 C 
HETATM    7  O2  UNL     1      18.042  14.946  20.974  1.00  0.00    -0.646 OA
HETATM    8  O3  UNL     1      16.681  15.752  19.367  1.00  0.00    -0.646 OA
ENDBRANCH   1   6
BRANCH   1   9
HETATM    9  C4  UNL     1      17.466  12.762  18.531  1.00  0.00     0.184 C 
HETATM   10  C5  UNL     1      16.125  13.213  18.023  1.00  0.00     0.160 C 
HETATM   11  N2  UNL     1      15.199  12.199  18.486  1.00  0.00    -0.334 N 
HETATM   12  C6  UNL     1      15.845  11.511  19.540  1.00  0.00     0.361 C 
ATOM     13  H2  UNL     1      14.264  12.016  18.122  1.00  0.00     0.164 HD
HETATM   14  O4  UNL     1      15.366  10.555  20.197  1.00  0.00    -0.239 OA
HETATM   15  O5  UNL     1      17.119  12.080  19.729  1.00  0.00    -0.294 OA
ENDBRANCH   1   9
TORSDOF 4
ENDMDL
