MODEL 1
REMARK VINA RESULT: -7.592238631      0.000      0.000
REMARK  3 active torsions:
REMARK  status: ('A' for Active; 'I' for Inactive)
REMARK    1  A    between atoms: C2_2  and  C4_4 
REMARK    2  A    between atoms: C4_4  and  N1_5 
REMARK       I    between atoms: N1_5  and  C5_7 
REMARK       I    between atoms: C5_7  and  N2_9 
REMARK    3  A    between atoms: N2_9  and  C6_11 
ROOT
HETATM    1  C6  UNL     1       2.424  17.327  42.346  1.00  0.00     0.037 C 
HETATM    2  C7  UNL     1       3.004  16.269  43.223  1.00  0.00     0.035 C 
HETATM    3  C8  UNL     1       2.852  14.864  42.704  1.00  0.00    -0.010 C 
HETATM    4  C9  UNL     1       1.598  14.202  43.202  1.00  0.00     0.005 C 
HETATM    5  C10 UNL     1       0.349  14.933  43.012  1.00  0.00     0.005 C 
HETATM    6  C11 UNL     1       0.327  16.000  41.971  1.00  0.00    -0.010 C 
HETATM    7  C12 UNL     1       0.832  15.565  40.631  1.00  0.00     0.030 C 
HETATM    8  C13 UNL     1       2.293  15.778  40.440  1.00  0.00     0.040 C 
HETATM    9 CL1  UNL     1       2.691  15.548  38.724  1.00  0.00    -0.119 Cl
HETATM   10  C14 UNL     1       3.039  14.727  41.223  1.00  0.00     0.030 C 
HETATM   11  C15 UNL     1       2.779  17.114  40.881  1.00  0.00     0.056 C 
HETATM   12  C16 UNL     1       0.939  17.302  42.448  1.00  0.00     0.035 C 
ENDROOT
BRANCH   1  13
HETATM   13  N2  UNL     1       2.906  18.617  42.775  1.00  0.00    -0.334 N 
HETATM   14  C5  UNL     1       4.137  19.206  42.431  1.00  0.00     0.316 C 
HETATM   15  N1  UNL     1       4.542  20.481  42.894  1.00  0.00    -0.343 N 
HETATM   16  O1  UNL     1       4.935  18.596  41.679  1.00  0.00    -0.247 OA
ATOM     17  H1  UNL     1       3.918  21.006  43.506  1.00  0.00     0.164 HD
ATOM     18  H2  UNL     1       2.294  19.156  43.387  1.00  0.00     0.165 HD
BRANCH  15  19
HETATM   19  C4  UNL     1       5.816  21.063  42.522  1.00  0.00     0.128 C 
BRANCH  19  20
HETATM   20  C2  UNL     1       5.686  22.472  42.048  1.00  0.00    -0.005 C 
HETATM   21  C1  UNL     1       4.420  23.062  42.635  1.00  0.00     0.011 C 
HETATM   22  C3  UNL     1       6.918  23.231  42.523  1.00  0.00     0.011 C 
ENDBRANCH  19  20
ENDBRANCH  15  19
ENDBRANCH   1  13
TORSDOF 3
ENDMDL
MODEL 2
REMARK VINA RESULT: -7.549425994      1.649      2.650
REMARK  3 active torsions:
REMARK  status: ('A' for Active; 'I' for Inactive)
REMARK    1  A    between atoms: C2_2  and  C4_4 
REMARK    2  A    between atoms: C4_4  and  N1_5 
REMARK       I    between atoms: N1_5  and  C5_7 
REMARK       I    between atoms: C5_7  and  N2_9 
REMARK    3  A    between atoms: N2_9  and  C6_11 
ROOT
HETATM    1  C6  UNL     1       2.422  17.335  42.818  1.00  0.00     0.037 C 
HETATM    2  C7  UNL     1       1.277  17.537  41.883  1.00  0.00     0.035 C 
HETATM    3  C8  UNL     1       0.398  16.330  41.690  1.00  0.00    -0.010 C 
HETATM    4  C9  UNL     1       0.837  15.482  40.529  1.00  0.00     0.005 C 
HETATM    5  C10 UNL     1       2.240  15.077  40.506  1.00  0.00     0.005 C 
HETATM    6  C11 UNL     1       2.990  15.116  41.793  1.00  0.00    -0.010 C 
HETATM    7  C12 UNL     1       2.310  14.410  42.925  1.00  0.00     0.030 C 
HETATM    8  C13 UNL     1       1.412  15.285  43.727  1.00  0.00     0.040 C 
HETATM    9 CL1  UNL     1       0.948  14.429  45.214  1.00  0.00    -0.119 Cl
HETATM   10  C14 UNL     1       0.152  15.536  42.938  1.00  0.00     0.030 C 
HETATM   11  C15 UNL     1       2.003  16.603  44.085  1.00  0.00     0.056 C 
HETATM   12  C16 UNL     1       3.467  16.508  42.156  1.00  0.00     0.035 C 
ENDROOT
BRANCH   1  13
HETATM   13  N2  UNL     1       2.984  18.617  43.166  1.00  0.00    -0.334 N 
HETATM   14  C5  UNL     1       4.115  19.221  42.587  1.00  0.00     0.316 C 
HETATM   15  N1  UNL     1       4.607  20.487  42.985  1.00  0.00    -0.343 N 
HETATM   16  O1  UNL     1       4.738  18.633  41.670  1.00  0.00    -0.247 OA
ATOM     17  H1  UNL     1       4.125  20.993  43.727  1.00  0.00     0.164 HD
ATOM     18  H2  UNL     1       2.513  19.139  43.906  1.00  0.00     0.165 HD
BRANCH  15  19
HETATM   19  C4  UNL     1       5.775  21.084  42.370  1.00  0.00     0.128 C 
BRANCH  19  20
HETATM   20  C2  UNL     1       5.590  22.535  42.077  1.00  0.00    -0.005 C 
HETATM   21  C1  UNL     1       4.293  22.991  42.713  1.00  0.00     0.011 C 
HETATM   22  C3  UNL     1       6.782  23.278  42.666  1.00  0.00     0.011 C 
ENDBRANCH  19  20
ENDBRANCH  15  19
ENDBRANCH   1  13
TORSDOF 3
ENDMDL
MODEL 3
REMARK VINA RESULT: -7.526497251      3.024      7.840
REMARK  3 active torsions:
REMARK  status: ('A' for Active; 'I' for Inactive)
REMARK    1  A    between atoms: C2_2  and  C4_4 
REMARK    2  A    between atoms: C4_4  and  N1_5 
REMARK       I    between atoms: N1_5  and  C5_7 
REMARK       I    between atoms: C5_7  and  N2_9 
REMARK    3  A    between atoms: N2_9  and  C6_11 
ROOT
HETATM    1  C6  UNL     1       6.091  21.617  42.330  1.00  0.00     0.037 C 
HETATM    2  C7  UNL     1       6.404  21.671  40.872  1.00  0.00     0.035 C 
HETATM    3  C8  UNL     1       6.908  23.001  40.382  1.00  0.00    -0.010 C 
HETATM    4  C9  UNL     1       5.798  23.890  39.894  1.00  0.00     0.005 C 
HETATM    5  C10 UNL     1       4.674  24.095  40.803  1.00  0.00     0.005 C 
HETATM    6  C11 UNL     1       4.900  23.825  42.251  1.00  0.00    -0.010 C 
HETATM    7  C12 UNL     1       6.104  24.504  42.824  1.00  0.00     0.030 C 
HETATM    8  C13 UNL     1       7.348  23.689  42.750  1.00  0.00     0.040 C 
HETATM    9 CL1  UNL     1       8.600  24.452  43.754  1.00  0.00    -0.119 Cl
HETATM   10  C14 UNL     1       7.844  23.696  41.326  1.00  0.00     0.030 C 
HETATM   11  C15 UNL     1       7.177  22.272  43.172  1.00  0.00     0.056 C 
HETATM   12  C16 UNL     1       4.824  22.351  42.596  1.00  0.00     0.035 C 
ENDROOT
BRANCH   1  13
HETATM   13  N2  UNL     1       5.935  20.241  42.733  1.00  0.00    -0.334 N 
HETATM   14  C5  UNL     1       4.720  19.552  42.904  1.00  0.00     0.316 C 
HETATM   15  N1  UNL     1       4.648  18.196  43.304  1.00  0.00    -0.343 N 
HETATM   16  O1  UNL     1       3.632  20.141  42.699  1.00  0.00    -0.247 OA
ATOM     17  H1  UNL     1       5.513  17.686  43.479  1.00  0.00     0.164 HD
ATOM     18  H2  UNL     1       6.791  19.715  42.911  1.00  0.00     0.165 HD
BRANCH  15  19
HETATM   19  C4  UNL     1       3.382  17.512  43.472  1.00  0.00     0.128 C 
BRANCH  19  20
HETATM   20  C2  UNL     1       3.002  16.707  42.275  1.00  0.00    -0.005 C 
HETATM   21  C1  UNL     1       2.862  15.258  42.696  1.00  0.00     0.011 C 
HETATM   22  C3  UNL     1       1.682  17.258  41.751  1.00  0.00     0.011 C 
ENDBRANCH  19  20
ENDBRANCH  15  19
ENDBRANCH   1  13
TORSDOF 3
ENDMDL
MODEL 4
REMARK VINA RESULT: -7.520807660      1.468      2.118
REMARK  3 active torsions:
REMARK  status: ('A' for Active; 'I' for Inactive)
REMARK    1  A    between atoms: C2_2  and  C4_4 
REMARK    2  A    between atoms: C4_4  and  N1_5 
REMARK       I    between atoms: N1_5  and  C5_7 
REMARK       I    between atoms: C5_7  and  N2_9 
REMARK    3  A    between atoms: N2_9  and  C6_11 
ROOT
HETATM    1  C6  UNL     1       2.727  16.912  43.523  1.00  0.00     0.037 C 
HETATM    2  C7  UNL     1       3.639  15.874  42.958  1.00  0.00     0.035 C 
HETATM    3  C8  UNL     1       2.943  14.716  42.297  1.00  0.00    -0.010 C 
HETATM    4  C9  UNL     1       2.690  13.580  43.249  1.00  0.00     0.005 C 
HETATM    5  C10 UNL     1       2.012  13.910  44.499  1.00  0.00     0.005 C 
HETATM    6  C11 UNL     1       1.229  15.177  44.544  1.00  0.00    -0.010 C 
HETATM    7  C12 UNL     1       0.257  15.342  43.418  1.00  0.00     0.030 C 
HETATM    8  C13 UNL     1       0.821  16.044  42.233  1.00  0.00     0.040 C 
HETATM    9 CL1  UNL     1      -0.504  16.473  41.130  1.00  0.00    -0.119 Cl
HETATM   10  C14 UNL     1       1.731  15.092  41.498  1.00  0.00     0.030 C 
HETATM   11  C15 UNL     1       1.602  17.268  42.562  1.00  0.00     0.056 C 
HETATM   12  C16 UNL     1       2.097  16.399  44.770  1.00  0.00     0.035 C 
ENDROOT
BRANCH   1  13
HETATM   13  N2  UNL     1       3.489  18.098  43.831  1.00  0.00    -0.334 N 
HETATM   14  C5  UNL     1       4.095  18.967  42.904  1.00  0.00     0.316 C 
HETATM   15  N1  UNL     1       4.830  20.115  43.285  1.00  0.00    -0.343 N 
HETATM   16  O1  UNL     1       3.996  18.739  41.675  1.00  0.00    -0.247 OA
ATOM     17  H1  UNL     1       4.931  20.331  44.277  1.00  0.00     0.164 HD
ATOM     18  H2  UNL     1       3.599  18.330  44.818  1.00  0.00     0.165 HD
BRANCH  15  19
HETATM   19  C4  UNL     1       5.443  20.992  42.308  1.00  0.00     0.128 C 
BRANCH  19  20
HETATM   20  C2  UNL     1       6.924  20.825  42.237  1.00  0.00    -0.005 C 
HETATM   21  C1  UNL     1       7.311  20.593  40.790  1.00  0.00     0.011 C 
HETATM   22  C3  UNL     1       7.557  22.100  42.777  1.00  0.00     0.011 C 
ENDBRANCH  19  20
ENDBRANCH  15  19
ENDBRANCH   1  13
TORSDOF 3
ENDMDL
MODEL 5
REMARK VINA RESULT: -7.437815694      2.060      3.278
REMARK  3 active torsions:
REMARK  status: ('A' for Active; 'I' for Inactive)
REMARK    1  A    between atoms: C2_2  and  C4_4 
REMARK    2  A    between atoms: C4_4  and  N1_5 
REMARK       I    between atoms: N1_5  and  C5_7 
REMARK       I    between atoms: C5_7  and  N2_9 
REMARK    3  A    between atoms: N2_9  and  C6_11 
ROOT
HETATM    1  C6  UNL     1       2.502  17.078  40.425  1.00  0.00     0.037 C 
HETATM    2  C7  UNL     1       1.503  18.113  40.029  1.00  0.00     0.035 C 
HETATM    3  C8  UNL     1       0.068  17.666  40.100  1.00  0.00    -0.010 C 
HETATM    4  C9  UNL     1      -0.419  17.095  38.797  1.00  0.00     0.005 C 
HETATM    5  C10 UNL     1       0.395  16.041  38.198  1.00  0.00     0.005 C 
HETATM    6  C11 UNL     1       1.333  15.303  39.090  1.00  0.00    -0.010 C 
HETATM    7  C12 UNL     1       0.705  14.767  40.338  1.00  0.00     0.030 C 
HETATM    8  C13 UNL     1       0.763  15.705  41.493  1.00  0.00     0.040 C 
HETATM    9 CL1  UNL     1       0.304  14.832  42.971  1.00  0.00    -0.119 Cl
HETATM   10  C14 UNL     1      -0.254  16.797  41.278  1.00  0.00     0.030 C 
HETATM   11  C15 UNL     1       2.092  16.344  41.695  1.00  0.00     0.056 C 
HETATM   12  C16 UNL     1       2.621  16.060  39.346  1.00  0.00     0.035 C 
ENDROOT
BRANCH   1  13
HETATM   13  N2  UNL     1       3.785  17.707  40.627  1.00  0.00    -0.334 N 
HETATM   14  C5  UNL     1       4.102  18.662  41.611  1.00  0.00     0.316 C 
HETATM   15  N1  UNL     1       5.389  19.236  41.745  1.00  0.00    -0.343 N 
HETATM   16  O1  UNL     1       3.224  19.042  42.421  1.00  0.00    -0.247 OA
ATOM     17  H1  UNL     1       6.128  18.950  41.103  1.00  0.00     0.164 HD
ATOM     18  H2  UNL     1       4.536  17.432  39.994  1.00  0.00     0.165 HD
BRANCH  15  19
HETATM   19  C4  UNL     1       5.688  20.217  42.768  1.00  0.00     0.128 C 
BRANCH  19  20
HETATM   20  C2  UNL     1       6.916  21.009  42.463  1.00  0.00    -0.005 C 
HETATM   21  C1  UNL     1       8.024  20.550  43.387  1.00  0.00     0.011 C 
HETATM   22  C3  UNL     1       7.274  20.755  41.005  1.00  0.00     0.011 C 
ENDBRANCH  19  20
ENDBRANCH  15  19
ENDBRANCH   1  13
TORSDOF 3
ENDMDL
