MODEL 1
REMARK VINA RESULT: -3.457126906      0.000      0.000
REMARK  1 active torsions:
REMARK  status: ('A' for Active; 'I' for Inactive)
REMARK    1  A    between atoms: C4_4  and  C5_5 
ROOT
HETATM    1  C1  UNL     1     -32.445 -27.557 -35.909  1.00  0.00     0.017 C 
HETATM    2  C2  UNL     1     -31.763 -27.260 -36.862  1.00  0.00    -0.089 C 
HETATM    3  C3  UNL     1     -30.944 -26.886 -37.984  1.00  0.00     0.065 C 
HETATM    4  C4  UNL     1     -29.911 -26.081 -37.890  1.00  0.00     0.025 C 
ENDROOT
BRANCH   4   5
HETATM    5  C5  UNL     1     -29.145 -25.759 -39.071  1.00  0.00     0.081 C 
HETATM    6  N1  UNL     1     -28.695 -26.673 -39.859  1.00  0.00    -0.408 N 
ATOM      7  H12 UNL     1     -28.894 -27.646 -39.628  1.00  0.00     0.155 HD
ATOM      8  H11 UNL     1     -28.153 -26.446 -40.693  1.00  0.00     0.155 HD
ENDBRANCH   4   5
TORSDOF 1
ENDMDL
MODEL 2
REMARK VINA RESULT: -3.289203953     11.921     12.184
REMARK  1 active torsions:
REMARK  status: ('A' for Active; 'I' for Inactive)
REMARK    1  A    between atoms: C4_4  and  C5_5 
ROOT
HETATM    1  C1  UNL     1     -41.085 -25.919 -46.683  1.00  0.00     0.017 C 
HETATM    2  C2  UNL     1     -39.905 -25.655 -46.648  1.00  0.00    -0.089 C 
HETATM    3  C3  UNL     1     -38.498 -25.358 -46.623  1.00  0.00     0.065 C 
HETATM    4  C4  UNL     1     -37.670 -25.699 -47.583  1.00  0.00     0.025 C 
ENDROOT
BRANCH   4   5
HETATM    5  C5  UNL     1     -36.270 -25.360 -47.474  1.00  0.00     0.081 C 
HETATM    6  N1  UNL     1     -35.497 -25.326 -48.503  1.00  0.00    -0.408 N 
ATOM      7  H12 UNL     1     -35.900 -25.547 -49.414  1.00  0.00     0.155 HD
ATOM      8  H11 UNL     1     -34.508 -25.087 -48.427  1.00  0.00     0.155 HD
ENDBRANCH   4   5
TORSDOF 1
ENDMDL
MODEL 3
REMARK VINA RESULT: -3.115821564     11.629     11.851
REMARK  1 active torsions:
REMARK  status: ('A' for Active; 'I' for Inactive)
REMARK    1  A    between atoms: C4_4  and  C5_5 
ROOT
HETATM    1  C1  UNL     1     -40.480 -26.402 -44.852  1.00  0.00     0.017 C 
HETATM    2  C2  UNL     1     -39.434 -26.134 -45.398  1.00  0.00    -0.089 C 
HETATM    3  C3  UNL     1     -38.198 -25.826 -46.065  1.00  0.00     0.065 C 
HETATM    4  C4  UNL     1     -38.059 -25.838 -47.370  1.00  0.00     0.025 C 
ENDROOT
BRANCH   4   5
HETATM    5  C5  UNL     1     -36.779 -25.516 -47.956  1.00  0.00     0.081 C 
HETATM    6  N1  UNL     1     -36.582 -25.563 -49.228  1.00  0.00    -0.408 N 
ATOM      7  H12 UNL     1     -37.363 -25.837 -49.824  1.00  0.00     0.155 HD
ATOM      8  H11 UNL     1     -35.678 -25.336 -49.642  1.00  0.00     0.155 HD
ENDBRANCH   4   5
TORSDOF 1
ENDMDL
MODEL 4
REMARK VINA RESULT: -3.106978851     10.495     10.847
REMARK  1 active torsions:
REMARK  status: ('A' for Active; 'I' for Inactive)
REMARK    1  A    between atoms: C4_4  and  C5_5 
ROOT
HETATM    1  C1  UNL     1     -35.887 -24.072 -43.683  1.00  0.00     0.017 C 
HETATM    2  C2  UNL     1     -36.444 -24.456 -44.686  1.00  0.00    -0.089 C 
HETATM    3  C3  UNL     1     -37.086 -24.907 -45.892  1.00  0.00     0.065 C 
HETATM    4  C4  UNL     1     -36.428 -25.290 -46.961  1.00  0.00     0.025 C 
ENDROOT
BRANCH   4   5
HETATM    5  C5  UNL     1     -37.156 -25.728 -48.129  1.00  0.00     0.081 C 
HETATM    6  N1  UNL     1     -36.698 -25.556 -49.320  1.00  0.00    -0.408 N 
ATOM      7  H12 UNL     1     -35.793 -25.095 -49.423  1.00  0.00     0.155 HD
ATOM      8  H11 UNL     1     -37.211 -25.865 -50.145  1.00  0.00     0.155 HD
ENDBRANCH   4   5
TORSDOF 1
ENDMDL
MODEL 5
REMARK VINA RESULT: -3.082772216      2.489      4.014
REMARK  1 active torsions:
REMARK  status: ('A' for Active; 'I' for Inactive)
REMARK    1  A    between atoms: C4_4  and  C5_5 
ROOT
HETATM    1  C1  UNL     1     -28.952 -26.024 -39.590  1.00  0.00     0.017 C 
HETATM    2  C2  UNL     1     -29.727 -26.122 -38.666  1.00  0.00    -0.089 C 
HETATM    3  C3  UNL     1     -30.663 -26.249 -37.582  1.00  0.00     0.065 C 
HETATM    4  C4  UNL     1     -31.618 -27.149 -37.553  1.00  0.00     0.025 C 
ENDROOT
BRANCH   4   5
HETATM    5  C5  UNL     1     -32.515 -27.204 -36.422  1.00  0.00     0.081 C 
HETATM    6  N1  UNL     1     -32.367 -28.068 -35.479  1.00  0.00    -0.408 N 
ATOM      7  H12 UNL     1     -31.589 -28.725 -35.547  1.00  0.00     0.155 HD
ATOM      8  H11 UNL     1     -33.001 -28.108 -34.680  1.00  0.00     0.155 HD
ENDBRANCH   4   5
TORSDOF 1
ENDMDL
