MODEL 1
REMARK VINA RESULT: -8.267949236      0.000      0.000
REMARK  9 active torsions:
REMARK  status: ('A' for Active; 'I' for Inactive)
REMARK    1  A    between atoms: C2_2  and  C4_4 
REMARK    2  A    between atoms: C5_6  and  O2_7 
REMARK    3  A    between atoms: C6_9  and  C7_10 
REMARK    4  A    between atoms: C7_10  and  C8_11 
REMARK    5  A    between atoms: C12_15  and  C13_16 
REMARK    6  A    between atoms: C13_16  and  C14_17 
REMARK    7  A    between atoms: C15_19  and  C16_20 
REMARK    8  A    between atoms: C16_20  and  O4_23 
REMARK    9  A    between atoms: C23_29  and  O5_30 
ROOT
HETATM    1  C7  UNL     1       6.732  28.390   4.345  1.00  0.00    -0.022 C 
HETATM    2  C12 UNL     1       5.972  29.137   5.149  1.00  0.00    -0.011 C 
ENDROOT
BRANCH   1   3
HETATM    3  C6  UNL     1       6.678  28.776   2.935  1.00  0.00     0.068 A 
HETATM    4  C5  UNL     1       5.755  28.376   2.005  1.00  0.00     0.198 A 
HETATM    5  O1  UNL     1       6.149  28.784   0.859  1.00  0.00    -0.284 OA
HETATM    6  C4  UNL     1       7.292  29.448   0.911  1.00  0.00     0.117 A 
HETATM    7  C23 UNL     1       7.664  29.457   2.254  1.00  0.00     0.116 A 
BRANCH   4   8
HETATM    8  O2  UNL     1       4.588  27.646   2.278  1.00  0.00    -0.340 OA
ATOM      9  H2  UNL     1       3.972  27.805   2.984  1.00  0.00     0.220 HD
ENDBRANCH   4   8
BRANCH   6  10
HETATM   10  C2  UNL     1       7.944  30.011  -0.243  1.00  0.00    -0.035 C 
HETATM   11  C1  UNL     1       8.802  29.417  -1.007  1.00  0.00     0.021 C 
HETATM   12  C3  UNL     1       7.560  31.425  -0.616  1.00  0.00     0.050 C 
ENDBRANCH   6  10
BRANCH   7  13
HETATM   13  O5  UNL     1       8.804  30.026   2.767  1.00  0.00    -0.357 OA
ATOM     14  H5  UNL     1       9.477  29.572   3.261  1.00  0.00     0.217 HD
ENDBRANCH   7  13
ENDBRANCH   1   3
BRANCH   1  15
HETATM   15  C8  UNL     1       7.527  27.300   4.801  1.00  0.00     0.014 C 
HETATM   16  C9  UNL     1       8.710  27.148   5.290  1.00  0.00    -0.087 C 
HETATM   17  C10 UNL     1       9.774  28.107   5.599  1.00  0.00     0.043 C 
HETATM   18  C11 UNL     1       9.122  25.699   5.623  1.00  0.00     0.043 C 
ENDBRANCH   1  15
BRANCH   2  19
HETATM   19  C13 UNL     1       5.797  29.029   6.588  1.00  0.00     0.064 C 
BRANCH  19  20
HETATM   20  C14 UNL     1       4.950  30.102   7.181  1.00  0.00     0.153 C 
HETATM   21  O3  UNL     1       3.957  30.489   6.304  1.00  0.00    -0.373 OA
HETATM   22  C15 UNL     1       3.080  31.426   6.779  1.00  0.00     0.156 C 
HETATM   23  C19 UNL     1       3.243  31.979   8.135  1.00  0.00     0.039 C 
HETATM   24  C20 UNL     1       3.927  31.115   9.166  1.00  0.00     0.038 C 
HETATM   25  C21 UNL     1       4.291  29.860   8.452  1.00  0.00    -0.060 C 
HETATM   26  C22 UNL     1       3.991  28.707   8.944  1.00  0.00     0.017 C 
BRANCH  22  27
HETATM   27  C16 UNL     1       3.016  32.523   5.702  1.00  0.00     0.076 C 
HETATM   28  C17 UNL     1       3.758  32.119   4.465  1.00  0.00     0.048 C 
HETATM   29  C18 UNL     1       1.619  32.881   5.342  1.00  0.00     0.048 C 
BRANCH  27  30
HETATM   30  O4  UNL     1       3.640  33.696   6.183  1.00  0.00    -0.388 OA
ATOM     31  H4  UNL     1       3.723  34.326   5.476  1.00  0.00     0.210 HD
ENDBRANCH  27  30
ENDBRANCH  22  27
ENDBRANCH  19  20
ENDBRANCH   2  19
TORSDOF 9
ENDMDL
MODEL 2
REMARK VINA RESULT: -8.198410369      2.235      5.430
REMARK  9 active torsions:
REMARK  status: ('A' for Active; 'I' for Inactive)
REMARK    1  A    between atoms: C2_2  and  C4_4 
REMARK    2  A    between atoms: C5_6  and  O2_7 
REMARK    3  A    between atoms: C6_9  and  C7_10 
REMARK    4  A    between atoms: C7_10  and  C8_11 
REMARK    5  A    between atoms: C12_15  and  C13_16 
REMARK    6  A    between atoms: C13_16  and  C14_17 
REMARK    7  A    between atoms: C15_19  and  C16_20 
REMARK    8  A    between atoms: C16_20  and  O4_23 
REMARK    9  A    between atoms: C23_29  and  O5_30 
ROOT
HETATM    1  C7  UNL     1       6.841  28.453   4.861  1.00  0.00    -0.022 C 
HETATM    2  C12 UNL     1       5.892  29.313   5.236  1.00  0.00    -0.011 C 
ENDROOT
BRANCH   1   3
HETATM    3  C6  UNL     1       7.798  28.115   5.915  1.00  0.00     0.068 A 
HETATM    4  C5  UNL     1       9.156  28.294   5.884  1.00  0.00     0.198 A 
HETATM    5  O1  UNL     1       9.652  27.714   6.911  1.00  0.00    -0.284 OA
HETATM    6  C4  UNL     1       8.738  27.135   7.670  1.00  0.00     0.117 A 
HETATM    7  C23 UNL     1       7.516  27.376   7.044  1.00  0.00     0.116 A 
BRANCH   4   8
HETATM    8  O2  UNL     1       9.863  28.991   4.893  1.00  0.00    -0.340 OA
ATOM      9  H2  UNL     1      10.326  29.814   4.999  1.00  0.00     0.220 HD
ENDBRANCH   4   8
BRANCH   6  10
HETATM   10  C2  UNL     1       9.041  26.419   8.883  1.00  0.00    -0.035 C 
HETATM   11  C1  UNL     1       9.502  25.214   8.970  1.00  0.00     0.021 C 
HETATM   12  C3  UNL     1       8.829  27.166  10.181  1.00  0.00     0.050 C 
ENDBRANCH   6  10
BRANCH   7  13
HETATM   13  O5  UNL     1       6.290  26.937   7.480  1.00  0.00    -0.357 OA
ATOM     14  H5  UNL     1       5.921  26.076   7.325  1.00  0.00     0.217 HD
ENDBRANCH   7  13
ENDBRANCH   1   3
BRANCH   1  15
HETATM   15  C8  UNL     1       6.937  27.907   3.549  1.00  0.00     0.014 C 
HETATM   16  C9  UNL     1       7.390  28.296   2.406  1.00  0.00    -0.087 C 
HETATM   17  C10 UNL     1       8.040  29.539   1.981  1.00  0.00     0.043 C 
HETATM   18  C11 UNL     1       7.236  27.296   1.243  1.00  0.00     0.043 C 
ENDBRANCH   1  15
BRANCH   2  19
HETATM   19  C13 UNL     1       4.796  29.851   4.448  1.00  0.00     0.064 C 
BRANCH  19  20
HETATM   20  C14 UNL     1       3.874  30.738   5.214  1.00  0.00     0.153 C 
HETATM   21  O3  UNL     1       4.382  31.015   6.467  1.00  0.00    -0.373 OA
HETATM   22  C15 UNL     1       3.641  31.878   7.227  1.00  0.00     0.156 C 
HETATM   23  C19 UNL     1       2.374  32.426   6.712  1.00  0.00     0.039 C 
HETATM   24  C20 UNL     1       2.222  32.550   5.215  1.00  0.00     0.038 C 
HETATM   25  C21 UNL     1       3.489  32.016   4.644  1.00  0.00    -0.060 C 
HETATM   26  C22 UNL     1       4.153  32.686   3.764  1.00  0.00     0.017 C 
BRANCH  22  27
HETATM   27  C16 UNL     1       3.469  31.189   8.592  1.00  0.00     0.076 C 
HETATM   28  C17 UNL     1       2.023  31.039   8.952  1.00  0.00     0.048 C 
HETATM   29  C18 UNL     1       4.129  29.858   8.641  1.00  0.00     0.048 C 
BRANCH  27  30
HETATM   30  O4  UNL     1       4.056  31.985   9.602  1.00  0.00    -0.388 OA
ATOM     31  H4  UNL     1       3.537  31.927  10.396  1.00  0.00     0.210 HD
ENDBRANCH  27  30
ENDBRANCH  22  27
ENDBRANCH  19  20
ENDBRANCH   2  19
TORSDOF 9
ENDMDL
MODEL 3
REMARK VINA RESULT: -8.028974855      2.076      7.043
REMARK  9 active torsions:
REMARK  status: ('A' for Active; 'I' for Inactive)
REMARK    1  A    between atoms: C2_2  and  C4_4 
REMARK    2  A    between atoms: C5_6  and  O2_7 
REMARK    3  A    between atoms: C6_9  and  C7_10 
REMARK    4  A    between atoms: C7_10  and  C8_11 
REMARK    5  A    between atoms: C12_15  and  C13_16 
REMARK    6  A    between atoms: C13_16  and  C14_17 
REMARK    7  A    between atoms: C15_19  and  C16_20 
REMARK    8  A    between atoms: C16_20  and  O4_23 
REMARK    9  A    between atoms: C23_29  and  O5_30 
ROOT
HETATM    1  C7  UNL     1       5.515  29.875   4.474  1.00  0.00    -0.022 C 
HETATM    2  C12 UNL     1       5.109  28.859   3.709  1.00  0.00    -0.011 C 
ENDROOT
BRANCH   1   3
HETATM    3  C6  UNL     1       4.465  30.838   4.803  1.00  0.00     0.068 A 
HETATM    4  C5  UNL     1       3.834  30.990   6.009  1.00  0.00     0.198 A 
HETATM    5  O1  UNL     1       2.863  31.806   5.846  1.00  0.00    -0.284 OA
HETATM    6  C4  UNL     1       2.761  32.246   4.603  1.00  0.00     0.117 A 
HETATM    7  C23 UNL     1       3.792  31.629   3.897  1.00  0.00     0.116 A 
BRANCH   4   8
HETATM    8  O2  UNL     1       4.199  30.352   7.205  1.00  0.00    -0.340 OA
ATOM      9  H2  UNL     1       5.042  29.960   7.404  1.00  0.00     0.220 HD
ENDBRANCH   4   8
BRANCH   6  10
HETATM   10  C2  UNL     1       1.752  33.175   4.164  1.00  0.00    -0.035 C 
HETATM   11  C1  UNL     1       1.431  33.439   2.939  1.00  0.00     0.021 C 
HETATM   12  C3  UNL     1       0.969  33.887   5.244  1.00  0.00     0.050 C 
ENDBRANCH   6  10
BRANCH   7  13
HETATM   13  O5  UNL     1       4.052  31.784   2.557  1.00  0.00    -0.357 OA
ATOM     14  H5  UNL     1       3.404  31.935   1.879  1.00  0.00     0.217 HD
ENDBRANCH   7  13
ENDBRANCH   1   3
BRANCH   1  15
HETATM   15  C8  UNL     1       6.855  30.030   4.932  1.00  0.00     0.014 C 
HETATM   16  C9  UNL     1       7.574  29.555   5.891  1.00  0.00    -0.087 C 
HETATM   17  C10 UNL     1       7.277  28.594   6.956  1.00  0.00     0.043 C 
HETATM   18  C11 UNL     1       9.025  30.074   5.966  1.00  0.00     0.043 C 
ENDBRANCH   1  15
BRANCH   2  19
HETATM   19  C13 UNL     1       5.885  27.737   3.207  1.00  0.00     0.064 C 
BRANCH  19  20
HETATM   20  C14 UNL     1       7.175  28.127   2.569  1.00  0.00     0.153 C 
HETATM   21  O3  UNL     1       8.108  27.116   2.685  1.00  0.00    -0.373 OA
HETATM   22  C15 UNL     1       9.309  27.347   2.072  1.00  0.00     0.156 C 
HETATM   23  C19 UNL     1       9.556  28.621   1.373  1.00  0.00     0.039 C 
HETATM   24  C20 UNL     1       8.362  29.353   0.809  1.00  0.00     0.038 C 
HETATM   25  C21 UNL     1       7.181  28.522   1.173  1.00  0.00    -0.060 C 
HETATM   26  C22 UNL     1       6.308  28.188   0.285  1.00  0.00     0.017 C 
BRANCH  22  27
HETATM   27  C16 UNL     1      10.383  27.042   3.131  1.00  0.00     0.076 C 
HETATM   28  C17 UNL     1       9.782  26.442   4.364  1.00  0.00     0.048 C 
HETATM   29  C18 UNL     1      11.447  26.141   2.614  1.00  0.00     0.048 C 
BRANCH  27  30
HETATM   30  O4  UNL     1      11.010  28.244   3.530  1.00  0.00    -0.388 OA
ATOM     31  H4  UNL     1      11.423  28.123   4.377  1.00  0.00     0.210 HD
ENDBRANCH  27  30
ENDBRANCH  22  27
ENDBRANCH  19  20
ENDBRANCH   2  19
TORSDOF 9
ENDMDL
MODEL 4
REMARK VINA RESULT: -7.991172057      1.728      5.052
REMARK  9 active torsions:
REMARK  status: ('A' for Active; 'I' for Inactive)
REMARK    1  A    between atoms: C2_2  and  C4_4 
REMARK    2  A    between atoms: C5_6  and  O2_7 
REMARK    3  A    between atoms: C6_9  and  C7_10 
REMARK    4  A    between atoms: C7_10  and  C8_11 
REMARK    5  A    between atoms: C12_15  and  C13_16 
REMARK    6  A    between atoms: C13_16  and  C14_17 
REMARK    7  A    between atoms: C15_19  and  C16_20 
REMARK    8  A    between atoms: C16_20  and  O4_23 
REMARK    9  A    between atoms: C23_29  and  O5_30 
ROOT
HETATM    1  C7  UNL     1       6.692  29.219   3.973  1.00  0.00    -0.022 C 
HETATM    2  C12 UNL     1       5.462  29.476   4.422  1.00  0.00    -0.011 C 
ENDROOT
BRANCH   1   3
HETATM    3  C6  UNL     1       7.565  28.567   4.950  1.00  0.00     0.068 A 
HETATM    4  C5  UNL     1       8.624  29.129   5.614  1.00  0.00     0.198 A 
HETATM    5  O1  UNL     1       9.236  28.196   6.239  1.00  0.00    -0.284 OA
HETATM    6  C4  UNL     1       8.683  27.007   6.064  1.00  0.00     0.117 A 
HETATM    7  C23 UNL     1       7.591  27.216   5.224  1.00  0.00     0.116 A 
BRANCH   4   8
HETATM    8  O2  UNL     1       8.964  30.490   5.599  1.00  0.00    -0.340 OA
ATOM      9  H2  UNL     1       8.586  31.175   6.138  1.00  0.00     0.220 HD
ENDBRANCH   4   8
BRANCH   6  10
HETATM   10  C2  UNL     1       9.183  25.796   6.663  1.00  0.00    -0.035 C 
HETATM   11  C1  UNL     1       9.601  24.744   6.037  1.00  0.00     0.021 C 
HETATM   12  C3  UNL     1       9.258  25.768   8.173  1.00  0.00     0.050 C 
ENDBRANCH   6  10
BRANCH   7  13
HETATM   13  O5  UNL     1       6.736  26.246   4.762  1.00  0.00    -0.357 OA
ATOM     14  H5  UNL     1       5.914  26.399   4.313  1.00  0.00     0.217 HD
ENDBRANCH   7  13
ENDBRANCH   1   3
BRANCH   1  15
HETATM   15  C8  UNL     1       7.139  29.550   2.663  1.00  0.00     0.014 C 
HETATM   16  C9  UNL     1       7.491  28.902   1.604  1.00  0.00    -0.087 C 
HETATM   17  C10 UNL     1       7.565  27.468   1.312  1.00  0.00     0.043 C 
HETATM   18  C11 UNL     1       7.923  29.762   0.400  1.00  0.00     0.043 C 
ENDBRANCH   1  15
BRANCH   2  19
HETATM   19  C13 UNL     1       4.356  30.105   3.720  1.00  0.00     0.064 C 
BRANCH  19  20
HETATM   20  C14 UNL     1       3.536  31.017   4.567  1.00  0.00     0.153 C 
HETATM   21  O3  UNL     1       4.148  31.246   5.783  1.00  0.00    -0.373 OA
HETATM   22  C15 UNL     1       3.508  32.127   6.611  1.00  0.00     0.156 C 
HETATM   23  C19 UNL     1       2.233  32.742   6.201  1.00  0.00     0.039 C 
HETATM   24  C20 UNL     1       1.976  32.903   4.723  1.00  0.00     0.038 C 
HETATM   25  C21 UNL     1       3.170  32.323   4.049  1.00  0.00    -0.060 C 
HETATM   26  C22 UNL     1       3.797  32.978   3.132  1.00  0.00     0.017 C 
BRANCH  22  27
HETATM   27  C16 UNL     1       3.407  31.420   7.974  1.00  0.00     0.076 C 
HETATM   28  C17 UNL     1       1.980  31.245   8.395  1.00  0.00     0.048 C 
HETATM   29  C18 UNL     1       4.085  30.097   7.976  1.00  0.00     0.048 C 
BRANCH  27  30
HETATM   30  O4  UNL     1       4.027  32.211   8.966  1.00  0.00    -0.388 OA
ATOM     31  H4  UNL     1       3.403  32.840   9.310  1.00  0.00     0.210 HD
ENDBRANCH  27  30
ENDBRANCH  22  27
ENDBRANCH  19  20
ENDBRANCH   2  19
TORSDOF 9
ENDMDL
MODEL 5
REMARK VINA RESULT: -7.989082980      2.393      6.637
REMARK  9 active torsions:
REMARK  status: ('A' for Active; 'I' for Inactive)
REMARK    1  A    between atoms: C2_2  and  C4_4 
REMARK    2  A    between atoms: C5_6  and  O2_7 
REMARK    3  A    between atoms: C6_9  and  C7_10 
REMARK    4  A    between atoms: C7_10  and  C8_11 
REMARK    5  A    between atoms: C12_15  and  C13_16 
REMARK    6  A    between atoms: C13_16  and  C14_17 
REMARK    7  A    between atoms: C15_19  and  C16_20 
REMARK    8  A    between atoms: C16_20  and  O4_23 
REMARK    9  A    between atoms: C23_29  and  O5_30 
ROOT
HETATM    1  C7  UNL     1       5.969  29.685   5.419  1.00  0.00    -0.022 C 
HETATM    2  C12 UNL     1       7.127  30.281   5.129  1.00  0.00    -0.011 C 
ENDROOT
BRANCH   1   3
HETATM    3  C6  UNL     1       4.794  30.339   4.841  1.00  0.00     0.068 A 
HETATM    4  C5  UNL     1       4.401  30.317   3.529  1.00  0.00     0.198 A 
HETATM    5  O1  UNL     1       3.436  31.146   3.394  1.00  0.00    -0.284 OA
HETATM    6  C4  UNL     1       3.116  31.756   4.522  1.00  0.00     0.117 A 
HETATM    7  C23 UNL     1       3.988  31.253   5.486  1.00  0.00     0.116 A 
BRANCH   4   8
HETATM    8  O2  UNL     1       4.968  29.521   2.522  1.00  0.00    -0.340 OA
ATOM      9  H2  UNL     1       4.565  28.774   2.095  1.00  0.00     0.220 HD
ENDBRANCH   4   8
BRANCH   6  10
HETATM   10  C2  UNL     1       2.063  32.733   4.634  1.00  0.00    -0.035 C 
HETATM   11  C1  UNL     1       1.532  33.170   5.729  1.00  0.00     0.021 C 
HETATM   12  C3  UNL     1       1.552  33.329   3.341  1.00  0.00     0.050 C 
ENDBRANCH   6  10
BRANCH   7  13
HETATM   13  O5  UNL     1       4.026  31.624   6.807  1.00  0.00    -0.357 OA
ATOM     14  H5  UNL     1       4.801  31.891   7.287  1.00  0.00     0.217 HD
ENDBRANCH   7  13
ENDBRANCH   1   3
BRANCH   1  15
HETATM   15  C8  UNL     1       5.863  28.518   6.228  1.00  0.00     0.014 C 
HETATM   16  C9  UNL     1       5.685  28.263   7.480  1.00  0.00    -0.087 C 
HETATM   17  C10 UNL     1       5.499  29.135   8.641  1.00  0.00     0.043 C 
HETATM   18  C11 UNL     1       5.660  26.770   7.866  1.00  0.00     0.043 C 
ENDBRANCH   1  15
BRANCH   2  19
HETATM   19  C13 UNL     1       8.469  29.897   5.534  1.00  0.00     0.064 C 
BRANCH  19  20
HETATM   20  C14 UNL     1       8.869  28.529   5.096  1.00  0.00     0.153 C 
HETATM   21  O3  UNL     1       9.983  28.576   4.282  1.00  0.00    -0.373 OA
HETATM   22  C15 UNL     1      10.473  27.365   3.879  1.00  0.00     0.156 C 
HETATM   23  C19 UNL     1       9.803  26.117   4.288  1.00  0.00     0.039 C 
HETATM   24  C20 UNL     1       9.025  26.131   5.582  1.00  0.00     0.038 C 
HETATM   25  C21 UNL     1       9.149  27.521   6.102  1.00  0.00    -0.060 C 
HETATM   26  C22 UNL     1       9.509  27.742   7.320  1.00  0.00     0.017 C 
BRANCH  22  27
HETATM   27  C16 UNL     1      10.639  27.468   2.353  1.00  0.00     0.076 C 
HETATM   28  C17 UNL     1      12.062  27.244   1.941  1.00  0.00     0.048 C 
HETATM   29  C18 UNL     1       9.760  26.517   1.623  1.00  0.00     0.048 C 
BRANCH  27  30
HETATM   30  O4  UNL     1      10.295  28.770   1.926  1.00  0.00    -0.388 OA
ATOM     31  H4  UNL     1      10.922  29.070   1.279  1.00  0.00     0.210 HD
ENDBRANCH  27  30
ENDBRANCH  22  27
ENDBRANCH  19  20
ENDBRANCH   2  19
TORSDOF 9
ENDMDL
