MODEL 1
REMARK VINA RESULT: -7.159328678      0.000      0.000
REMARK  8 active torsions:
REMARK  status: ('A' for Active; 'I' for Inactive)
REMARK    1  A    between atoms: O1_2  and  C2_3 
REMARK    2  A    between atoms: C3_4  and  O2_5 
REMARK    3  A    between atoms: C3_4  and  C10_18 
REMARK    4  A    between atoms: O2_5  and  C4_6 
REMARK    5  A    between atoms: C4_6  and  O3_7 
REMARK    6  A    between atoms: C4_6  and  C6_9 
REMARK    7  A    between atoms: C11_20  and  O4_21 
REMARK    8  A    between atoms: C14_25  and  O5_26 
ROOT
HETATM    1  C2  UNL     1       5.194  29.372   3.522  1.00  0.00     0.172 C 
HETATM    2  C3  UNL     1       5.755  29.331   4.699  1.00  0.00     0.114 C 
ENDROOT
BRANCH   2   3
HETATM    3  O2  UNL     1       6.969  28.646   4.805  1.00  0.00    -0.312 OA
BRANCH   3   4
HETATM    4  C4  UNL     1       8.218  29.298   4.739  1.00  0.00     0.306 C 
BRANCH   4   5
HETATM    5  O3  UNL     1       8.550  29.888   5.939  1.00  0.00    -0.361 OA
HETATM    6  C5  UNL     1       9.581  30.813   5.805  1.00  0.00     0.205 C 
ENDBRANCH   4   5
BRANCH   4   7
HETATM    7  C6  UNL     1       9.235  28.257   4.429  1.00  0.00     0.077 A 
HETATM    8  C7  UNL     1       9.788  27.331   5.289  1.00  0.00     0.119 A 
HETATM    9 CL1  UNL     1       9.377  27.200   6.990  1.00  0.00    -0.064 Cl
HETATM   10  N1  UNL     1      10.661  26.578   4.619  1.00  0.00    -0.334 N 
HETATM   11  C8  UNL     1      10.711  26.967   3.348  1.00  0.00     0.144 A 
ATOM     12  H1  UNL     1      11.208  25.817   5.021  1.00  0.00     0.168 HD
HETATM   13 CL2  UNL     1      11.701  26.283   2.101  1.00  0.00    -0.061 Cl
HETATM   14  C9  UNL     1       9.828  28.013   3.207  1.00  0.00     0.169 A 
HETATM   15  F1  UNL     1       9.577  28.696   2.071  1.00  0.00    -0.202 F 
ENDBRANCH   4   7
ENDBRANCH   3   4
ENDBRANCH   2   3
BRANCH   2  16
HETATM   16  C10 UNL     1       5.172  29.963   5.885  1.00  0.00     0.076 A 
HETATM   17  S1  UNL     1       4.104  31.337   5.852  1.00  0.00    -0.059 SA
HETATM   18  C11 UNL     1       3.839  31.514   7.518  1.00  0.00     0.116 A 
HETATM   19  C12 UNL     1       4.582  30.509   8.061  1.00  0.00     0.013 A 
HETATM   20  C13 UNL     1       4.619  30.317   9.571  1.00  0.00     0.055 C 
HETATM   21  C14 UNL     1       5.270  29.709   7.218  1.00  0.00     0.095 A 
BRANCH  18  22
HETATM   22  O4  UNL     1       3.045  32.466   8.211  1.00  0.00    -0.353 OA
ATOM     23  H4  UNL     1       3.171  33.403   8.307  1.00  0.00     0.218 HD
ENDBRANCH  18  22
BRANCH  21  24
HETATM   24  O5  UNL     1       6.090  28.615   7.657  1.00  0.00    -0.359 OA
ATOM     25  H5  UNL     1       5.954  28.260   8.528  1.00  0.00     0.217 HD
ENDBRANCH  21  24
ENDBRANCH   2  16
BRANCH   1  26
HETATM   26  O1  UNL     1       5.803  28.744   2.414  1.00  0.00    -0.365 OA
HETATM   27  C1  UNL     1       6.378  29.524   1.376  1.00  0.00     0.209 C 
ENDBRANCH   1  26
TORSDOF 8
ENDMDL
MODEL 2
REMARK VINA RESULT: -7.065446969      2.178      2.920
REMARK  8 active torsions:
REMARK  status: ('A' for Active; 'I' for Inactive)
REMARK    1  A    between atoms: O1_2  and  C2_3 
REMARK    2  A    between atoms: C3_4  and  O2_5 
REMARK    3  A    between atoms: C3_4  and  C10_18 
REMARK    4  A    between atoms: O2_5  and  C4_6 
REMARK    5  A    between atoms: C4_6  and  O3_7 
REMARK    6  A    between atoms: C4_6  and  C6_9 
REMARK    7  A    between atoms: C11_20  and  O4_21 
REMARK    8  A    between atoms: C14_25  and  O5_26 
ROOT
HETATM    1  C2  UNL     1       5.587  29.294   3.127  1.00  0.00     0.172 C 
HETATM    2  C3  UNL     1       5.644  29.460   4.420  1.00  0.00     0.114 C 
ENDROOT
BRANCH   2   3
HETATM    3  O2  UNL     1       6.509  28.625   5.135  1.00  0.00    -0.312 OA
BRANCH   3   4
HETATM    4  C4  UNL     1       7.874  28.925   5.322  1.00  0.00     0.306 C 
BRANCH   4   5
HETATM    5  O3  UNL     1       8.047  30.128   5.972  1.00  0.00    -0.361 OA
HETATM    6  C5  UNL     1       9.339  30.625   5.828  1.00  0.00     0.205 C 
ENDBRANCH   4   5
BRANCH   4   7
HETATM    7  C6  UNL     1       8.443  27.845   6.172  1.00  0.00     0.077 A 
HETATM    8  C7  UNL     1       9.428  26.938   5.843  1.00  0.00     0.119 A 
HETATM    9 CL1  UNL     1      10.233  26.884   4.284  1.00  0.00    -0.064 Cl
HETATM   10  N1  UNL     1       9.651  26.136   6.884  1.00  0.00    -0.334 N 
HETATM   11  C8  UNL     1       8.854  26.474   7.893  1.00  0.00     0.144 A 
ATOM     12  H1  UNL     1      10.333  25.377   6.904  1.00  0.00     0.168 HD
HETATM   13 CL2  UNL     1       8.787  25.716   9.450  1.00  0.00    -0.061 Cl
HETATM   14  C9  UNL     1       8.091  27.539   7.471  1.00  0.00     0.169 A 
HETATM   15  F1  UNL     1       7.153  28.183   8.195  1.00  0.00    -0.202 F 
ENDBRANCH   4   7
ENDBRANCH   3   4
ENDBRANCH   2   3
BRANCH   2  16
HETATM   16  C10 UNL     1       4.854  30.467   5.132  1.00  0.00     0.076 A 
HETATM   17  S1  UNL     1       4.015  31.788   4.371  1.00  0.00    -0.059 SA
HETATM   18  C11 UNL     1       3.345  32.515   5.750  1.00  0.00     0.116 A 
HETATM   19  C12 UNL     1       3.786  31.720   6.766  1.00  0.00     0.013 A 
HETATM   20  C13 UNL     1       3.399  32.036   8.205  1.00  0.00     0.055 C 
HETATM   21  C14 UNL     1       4.565  30.664   6.447  1.00  0.00     0.095 A 
BRANCH  18  22
HETATM   22  O4  UNL     1       2.524  33.668   5.855  1.00  0.00    -0.353 OA
ATOM     23  H4  UNL     1       1.991  33.966   6.583  1.00  0.00     0.218 HD
ENDBRANCH  18  22
BRANCH  21  24
HETATM   24  O5  UNL     1       5.094  29.748   7.418  1.00  0.00    -0.359 OA
ATOM     25  H5  UNL     1       5.533  30.096   8.186  1.00  0.00     0.217 HD
ENDBRANCH  21  24
ENDBRANCH   2  16
BRANCH   1  26
HETATM   26  O1  UNL     1       6.373  28.305   2.495  1.00  0.00    -0.365 OA
HETATM   27  C1  UNL     1       7.403  28.679   1.592  1.00  0.00     0.209 C 
ENDBRANCH   1  26
TORSDOF 8
ENDMDL
MODEL 3
REMARK VINA RESULT: -6.943739562      2.873      4.713
REMARK  8 active torsions:
REMARK  status: ('A' for Active; 'I' for Inactive)
REMARK    1  A    between atoms: O1_2  and  C2_3 
REMARK    2  A    between atoms: C3_4  and  O2_5 
REMARK    3  A    between atoms: C3_4  and  C10_18 
REMARK    4  A    between atoms: O2_5  and  C4_6 
REMARK    5  A    between atoms: C4_6  and  O3_7 
REMARK    6  A    between atoms: C4_6  and  C6_9 
REMARK    7  A    between atoms: C11_20  and  O4_21 
REMARK    8  A    between atoms: C14_25  and  O5_26 
ROOT
HETATM    1  C2  UNL     1       4.322  30.054   7.822  1.00  0.00     0.172 C 
HETATM    2  C3  UNL     1       4.819  30.515   6.707  1.00  0.00     0.114 C 
ENDROOT
BRANCH   2   3
HETATM    3  O2  UNL     1       6.142  30.175   6.408  1.00  0.00    -0.312 OA
BRANCH   3   4
HETATM    4  C4  UNL     1       6.513  28.893   5.953  1.00  0.00     0.306 C 
BRANCH   4   5
HETATM    5  O3  UNL     1       6.808  28.896   4.607  1.00  0.00    -0.361 OA
HETATM    6  C5  UNL     1       6.044  27.974   3.897  1.00  0.00     0.205 C 
ENDBRANCH   4   5
BRANCH   4   7
HETATM    7  C6  UNL     1       7.739  28.505   6.702  1.00  0.00     0.077 A 
HETATM    8  C7  UNL     1       8.975  29.116   6.679  1.00  0.00     0.119 A 
HETATM    9 CL1  UNL     1       9.354  30.532   5.714  1.00  0.00    -0.064 Cl
HETATM   10  N1  UNL     1       9.803  28.459   7.492  1.00  0.00    -0.334 N 
HETATM   11  C8  UNL     1       9.167  27.436   8.055  1.00  0.00     0.144 A 
ATOM     12  H1  UNL     1      10.779  28.706   7.658  1.00  0.00     0.168 HD
HETATM   13 CL2  UNL     1       9.835  26.303   9.182  1.00  0.00    -0.061 Cl
HETATM   14  C9  UNL     1       7.876  27.446   7.577  1.00  0.00     0.169 A 
HETATM   15  F1  UNL     1       6.900  26.573   7.899  1.00  0.00    -0.202 F 
ENDBRANCH   4   7
ENDBRANCH   3   4
ENDBRANCH   2   3
BRANCH   2  16
HETATM   16  C10 UNL     1       4.058  31.355   5.779  1.00  0.00     0.076 A 
HETATM   17  S1  UNL     1       4.124  31.228   4.045  1.00  0.00    -0.059 SA
HETATM   18  C11 UNL     1       3.030  32.461   3.641  1.00  0.00     0.116 A 
HETATM   19  C12 UNL     1       2.640  32.941   4.855  1.00  0.00     0.013 A 
HETATM   20  C13 UNL     1       1.638  34.086   4.936  1.00  0.00     0.055 C 
HETATM   21  C14 UNL     1       3.170  32.370   5.958  1.00  0.00     0.095 A 
BRANCH  18  22
HETATM   22  O4  UNL     1       2.605  32.908   2.362  1.00  0.00    -0.353 OA
ATOM     23  H4  UNL     1       2.096  33.675   2.128  1.00  0.00     0.218 HD
ENDBRANCH  18  22
BRANCH  21  24
HETATM   24  O5  UNL     1       2.845  32.780   7.296  1.00  0.00    -0.359 OA
ATOM     25  H5  UNL     1       3.211  33.591   7.630  1.00  0.00     0.217 HD
ENDBRANCH  21  24
ENDBRANCH   2  16
BRANCH   1  26
HETATM   26  O1  UNL     1       5.104  29.248   8.678  1.00  0.00    -0.365 OA
HETATM   27  C1  UNL     1       4.920  29.311  10.085  1.00  0.00     0.209 C 
ENDBRANCH   1  26
TORSDOF 8
ENDMDL
MODEL 4
REMARK VINA RESULT: -6.881611961      2.421      3.182
REMARK  8 active torsions:
REMARK  status: ('A' for Active; 'I' for Inactive)
REMARK    1  A    between atoms: O1_2  and  C2_3 
REMARK    2  A    between atoms: C3_4  and  O2_5 
REMARK    3  A    between atoms: C3_4  and  C10_18 
REMARK    4  A    between atoms: O2_5  and  C4_6 
REMARK    5  A    between atoms: C4_6  and  O3_7 
REMARK    6  A    between atoms: C4_6  and  C6_9 
REMARK    7  A    between atoms: C11_20  and  O4_21 
REMARK    8  A    between atoms: C14_25  and  O5_26 
ROOT
HETATM    1  C2  UNL     1       5.332  28.699   4.028  1.00  0.00     0.172 C 
HETATM    2  C3  UNL     1       6.058  29.159   5.010  1.00  0.00     0.114 C 
ENDROOT
BRANCH   2   3
HETATM    3  O2  UNL     1       7.431  29.295   4.780  1.00  0.00    -0.312 OA
BRANCH   3   4
HETATM    4  C4  UNL     1       8.297  28.187   4.676  1.00  0.00     0.306 C 
BRANCH   4   5
HETATM    5  O3  UNL     1       9.349  28.440   3.822  1.00  0.00    -0.361 OA
HETATM    6  C5  UNL     1      10.191  27.342   3.681  1.00  0.00     0.205 C 
ENDBRANCH   4   5
BRANCH   4   7
HETATM    7  C6  UNL     1       8.845  27.935   6.036  1.00  0.00     0.077 A 
HETATM    8  C7  UNL     1       9.585  28.792   6.823  1.00  0.00     0.119 A 
HETATM    9 CL1  UNL     1      10.041  30.418   6.346  1.00  0.00    -0.064 Cl
HETATM   10  N1  UNL     1       9.881  28.185   7.972  1.00  0.00    -0.334 N 
HETATM   11  C8  UNL     1       9.369  26.958   7.980  1.00  0.00     0.144 A 
ATOM     12  H1  UNL     1      10.420  28.600   8.732  1.00  0.00     0.168 HD
HETATM   13 CL2  UNL     1       9.495  25.798   9.262  1.00  0.00    -0.061 Cl
HETATM   14  C9  UNL     1       8.716  26.780   6.781  1.00  0.00     0.169 A 
HETATM   15  F1  UNL     1       8.060  25.670   6.388  1.00  0.00    -0.202 F 
ENDBRANCH   4   7
ENDBRANCH   3   4
ENDBRANCH   2   3
BRANCH   2  16
HETATM   16  C10 UNL     1       5.499  29.530   6.312  1.00  0.00     0.076 A 
HETATM   17  S1  UNL     1       5.880  28.740   7.815  1.00  0.00    -0.059 SA
HETATM   18  C11 UNL     1       4.908  29.661   8.858  1.00  0.00     0.116 A 
HETATM   19  C12 UNL     1       4.312  30.556   8.021  1.00  0.00     0.013 A 
HETATM   20  C13 UNL     1       3.338  31.588   8.574  1.00  0.00     0.055 C 
HETATM   21  C14 UNL     1       4.618  30.488   6.707  1.00  0.00     0.095 A 
BRANCH  18  22
HETATM   22  O4  UNL     1       4.734  29.551  10.263  1.00  0.00    -0.353 OA
ATOM     23  H4  UNL     1       3.934  29.460  10.768  1.00  0.00     0.218 HD
ENDBRANCH  18  22
BRANCH  21  24
HETATM   24  O5  UNL     1       4.063  31.370   5.718  1.00  0.00    -0.359 OA
ATOM     25  H5  UNL     1       4.610  31.649   4.993  1.00  0.00     0.217 HD
ENDBRANCH  21  24
ENDBRANCH   2  16
BRANCH   1  26
HETATM   26  O1  UNL     1       5.926  28.358   2.794  1.00  0.00    -0.365 OA
HETATM   27  C1  UNL     1       6.098  29.343   1.785  1.00  0.00     0.209 C 
ENDBRANCH   1  26
TORSDOF 8
ENDMDL
MODEL 5
REMARK VINA RESULT: -6.786706406      1.840      2.132
REMARK  8 active torsions:
REMARK  status: ('A' for Active; 'I' for Inactive)
REMARK    1  A    between atoms: O1_2  and  C2_3 
REMARK    2  A    between atoms: C3_4  and  O2_5 
REMARK    3  A    between atoms: C3_4  and  C10_18 
REMARK    4  A    between atoms: O2_5  and  C4_6 
REMARK    5  A    between atoms: C4_6  and  O3_7 
REMARK    6  A    between atoms: C4_6  and  C6_9 
REMARK    7  A    between atoms: C11_20  and  O4_21 
REMARK    8  A    between atoms: C14_25  and  O5_26 
ROOT
HETATM    1  C2  UNL     1       5.525  29.343   3.084  1.00  0.00     0.172 C 
HETATM    2  C3  UNL     1       6.202  29.038   4.157  1.00  0.00     0.114 C 
ENDROOT
BRANCH   2   3
HETATM    3  O2  UNL     1       7.430  28.393   3.976  1.00  0.00    -0.312 OA
BRANCH   3   4
HETATM    4  C4  UNL     1       8.657  29.088   3.954  1.00  0.00     0.306 C 
BRANCH   4   5
HETATM    5  O3  UNL     1       9.221  29.167   5.210  1.00  0.00    -0.361 OA
HETATM    6  C5  UNL     1       9.317  30.480   5.663  1.00  0.00     0.205 C 
ENDBRANCH   4   5
BRANCH   4   7
HETATM    7  C6  UNL     1       9.577  28.317   3.074  1.00  0.00     0.077 A 
HETATM    8  C7  UNL     1       9.887  28.560   1.753  1.00  0.00     0.119 A 
HETATM    9 CL1  UNL     1       9.224  29.888   0.816  1.00  0.00    -0.064 Cl
HETATM   10  N1  UNL     1      10.751  27.638   1.329  1.00  0.00    -0.334 N 
HETATM   11  C8  UNL     1      11.027  26.790   2.316  1.00  0.00     0.144 A 
ATOM     12  H1  UNL     1      11.142  27.590   0.388  1.00  0.00     0.168 HD
HETATM   13 CL2  UNL     1      12.098  25.430   2.235  1.00  0.00    -0.061 Cl
HETATM   14  C9  UNL     1      10.306  27.196   3.416  1.00  0.00     0.169 A 
HETATM   15  F1  UNL     1      10.301  26.605   4.628  1.00  0.00    -0.202 F 
ENDBRANCH   4   7
ENDBRANCH   3   4
ENDBRANCH   2   3
BRANCH   2  16
HETATM   16  C10 UNL     1       5.734  29.341   5.511  1.00  0.00     0.076 A 
HETATM   17  S1  UNL     1       4.491  30.498   5.894  1.00  0.00    -0.059 SA
HETATM   18  C11 UNL     1       4.475  30.329   7.582  1.00  0.00     0.116 A 
HETATM   19  C12 UNL     1       5.429  29.383   7.810  1.00  0.00     0.013 A 
HETATM   20  C13 UNL     1       5.735  28.934   9.233  1.00  0.00     0.055 C 
HETATM   21  C14 UNL     1       6.079  28.874   6.741  1.00  0.00     0.095 A 
BRANCH  18  22
HETATM   22  O4  UNL     1       3.676  30.994   8.549  1.00  0.00    -0.353 OA
ATOM     23  H4  UNL     1       3.698  31.901   8.832  1.00  0.00     0.218 HD
ENDBRANCH  18  22
BRANCH  21  24
HETATM   24  O5  UNL     1       7.105  27.873   6.841  1.00  0.00    -0.359 OA
ATOM     25  H5  UNL     1       6.864  26.959   6.751  1.00  0.00     0.217 HD
ENDBRANCH  21  24
ENDBRANCH   2  16
BRANCH   1  26
HETATM   26  O1  UNL     1       6.027  29.025   1.803  1.00  0.00    -0.365 OA
HETATM   27  C1  UNL     1       5.686  29.827   0.682  1.00  0.00     0.209 C 
ENDBRANCH   1  26
TORSDOF 8
ENDMDL
