MODEL 1
REMARK VINA RESULT: -5.928884188      0.000      0.000
REMARK  1 active torsions:
REMARK  status: ('A' for Active; 'I' for Inactive)
REMARK    1  A    between atoms: C4_7  and  C5_8 
ROOT
HETATM    1  N1  UNL     1       7.970  -1.656  32.420  1.00  0.00    -0.406 N 
ATOM      2  H11 UNL     1       8.242  -0.718  32.128  1.00  0.00     0.155 HD
ATOM      3  H12 UNL     1       7.693  -1.597  33.400  1.00  0.00     0.155 HD
HETATM    4  C1  UNL     1       7.975  -2.696  31.706  1.00  0.00    -0.020 C 
HETATM    5  C2  UNL     1       7.582  -4.051  32.128  1.00  0.00     0.052 C 
HETATM    6  C3  UNL     1       7.043  -4.674  30.878  1.00  0.00     0.011 C 
HETATM    7  C4  UNL     1       7.372  -3.751  29.726  1.00  0.00    -0.005 C 
HETATM    8  C10 UNL     1       8.377  -2.782  30.288  1.00  0.00     0.057 C 
ENDROOT
BRANCH   7   9
HETATM    9  C5  UNL     1       7.877  -4.565  28.589  1.00  0.00    -0.007 C 
HETATM   10  C6  UNL     1       6.720  -5.412  28.082  1.00  0.00     0.032 C 
HETATM   11  C7  UNL     1       7.298  -6.313  27.002  1.00  0.00     0.232 C 
HETATM   12  N2  UNL     1       7.653  -5.464  25.893  1.00  0.00    -0.075 N 
HETATM   13  C8  UNL     1       8.628  -4.473  26.199  1.00  0.00     0.232 C 
ATOM     14  H22 UNL     1       7.955  -6.026  25.097  1.00  0.00     0.277 HD
ATOM     15  H21 UNL     1       6.820  -5.031  25.495  1.00  0.00     0.277 HD
HETATM   16  C9  UNL     1       8.420  -3.728  27.461  1.00  0.00     0.032 C 
ENDBRANCH   7   9
TORSDOF 1
ENDMDL
MODEL 2
REMARK VINA RESULT: -5.899609290      1.000      4.849
REMARK  1 active torsions:
REMARK  status: ('A' for Active; 'I' for Inactive)
REMARK    1  A    between atoms: C4_7  and  C5_8 
ROOT
HETATM    1  N1  UNL     1       7.755  -6.448  25.859  1.00  0.00    -0.406 N 
ATOM      2  H11 UNL     1       7.105  -7.234  25.830  1.00  0.00     0.155 HD
ATOM      3  H12 UNL     1       8.231  -6.420  24.958  1.00  0.00     0.155 HD
HETATM    4  C1  UNL     1       7.936  -5.660  26.826  1.00  0.00    -0.020 C 
HETATM    5  C2  UNL     1       8.874  -4.525  26.868  1.00  0.00     0.052 C 
HETATM    6  C3  UNL     1       8.209  -3.543  27.780  1.00  0.00     0.011 C 
HETATM    7  C4  UNL     1       7.036  -4.241  28.431  1.00  0.00    -0.005 C 
HETATM    8  C10 UNL     1       7.246  -5.701  28.130  1.00  0.00     0.057 C 
ENDROOT
BRANCH   7   9
HETATM    9  C5  UNL     1       7.025  -3.911  29.880  1.00  0.00    -0.007 C 
HETATM   10  C6  UNL     1       7.068  -5.222  30.650  1.00  0.00     0.032 C 
HETATM   11  C7  UNL     1       6.937  -4.853  32.119  1.00  0.00     0.232 C 
HETATM   12  N2  UNL     1       8.148  -4.164  32.489  1.00  0.00    -0.075 N 
HETATM   13  C8  UNL     1       8.388  -2.966  31.760  1.00  0.00     0.232 C 
ATOM     14  H22 UNL     1       8.160  -3.979  33.491  1.00  0.00     0.277 HD
ATOM     15  H21 UNL     1       8.950  -4.791  32.416  1.00  0.00     0.277 HD
HETATM   16  C9  UNL     1       8.186  -3.045  30.295  1.00  0.00     0.032 C 
ENDBRANCH   7   9
TORSDOF 1
ENDMDL
MODEL 3
REMARK VINA RESULT: -5.816801587      2.460      5.885
REMARK  1 active torsions:
REMARK  status: ('A' for Active; 'I' for Inactive)
REMARK    1  A    between atoms: C4_7  and  C5_8 
ROOT
HETATM    1  N1  UNL     1       9.746  -3.928  22.282  1.00  0.00    -0.406 N 
ATOM      2  H11 UNL     1      10.397  -3.143  22.293  1.00  0.00     0.155 HD
ATOM      3  H12 UNL     1       9.655  -4.229  21.312  1.00  0.00     0.155 HD
HETATM    4  C1  UNL     1       9.162  -4.433  23.280  1.00  0.00    -0.020 C 
HETATM    5  C2  UNL     1       8.222  -5.566  23.265  1.00  0.00     0.052 C 
HETATM    6  C3  UNL     1       8.429  -6.222  24.594  1.00  0.00     0.011 C 
HETATM    7  C4  UNL     1       9.294  -5.304  25.429  1.00  0.00    -0.005 C 
HETATM    8  C10 UNL     1       9.294  -3.997  24.684  1.00  0.00     0.057 C 
ENDROOT
BRANCH   7   9
HETATM    9  C5  UNL     1       8.725  -5.226  26.801  1.00  0.00    -0.007 C 
HETATM   10  C6  UNL     1       8.417  -3.764  27.087  1.00  0.00     0.032 C 
HETATM   11  C7  UNL     1       7.949  -3.707  28.533  1.00  0.00     0.232 C 
HETATM   12  N2  UNL     1       6.673  -4.374  28.588  1.00  0.00    -0.075 N 
HETATM   13  C8  UNL     1       6.707  -5.742  28.197  1.00  0.00     0.232 C 
ATOM     14  H22 UNL     1       6.262  -4.280  29.516  1.00  0.00     0.277 HD
ATOM     15  H21 UNL     1       5.981  -3.864  28.038  1.00  0.00     0.277 HD
HETATM   16  C9  UNL     1       7.472  -6.046  26.965  1.00  0.00     0.032 C 
ENDBRANCH   7   9
TORSDOF 1
ENDMDL
MODEL 4
REMARK VINA RESULT: -5.708725602      2.610      4.113
REMARK  1 active torsions:
REMARK  status: ('A' for Active; 'I' for Inactive)
REMARK    1  A    between atoms: C4_7  and  C5_8 
ROOT
HETATM    1  N1  UNL     1       7.037  -6.059  29.790  1.00  0.00    -0.406 N 
ATOM      2  H11 UNL     1       6.911  -7.062  29.924  1.00  0.00     0.155 HD
ATOM      3  H12 UNL     1       6.985  -5.625  30.712  1.00  0.00     0.155 HD
HETATM    4  C1  UNL     1       7.223  -5.465  28.694  1.00  0.00    -0.020 C 
HETATM    5  C2  UNL     1       7.406  -4.016  28.501  1.00  0.00     0.052 C 
HETATM    6  C3  UNL     1       8.296  -3.923  27.302  1.00  0.00     0.011 C 
HETATM    7  C4  UNL     1       8.392  -5.304  26.693  1.00  0.00    -0.005 C 
HETATM    8  C10 UNL     1       7.298  -6.093  27.360  1.00  0.00     0.057 C 
ENDROOT
BRANCH   7   9
HETATM    9  C5  UNL     1       8.250  -5.188  25.217  1.00  0.00    -0.007 C 
HETATM   10  C6  UNL     1       9.201  -4.096  24.750  1.00  0.00     0.032 C 
HETATM   11  C7  UNL     1       8.946  -3.925  23.260  1.00  0.00     0.232 C 
HETATM   12  N2  UNL     1       9.411  -5.126  22.614  1.00  0.00    -0.075 N 
HETATM   13  C8  UNL     1       8.748  -6.313  23.033  1.00  0.00     0.232 C 
ATOM     14  H22 UNL     1       9.357  -5.028  21.600  1.00  0.00     0.277 HD
ATOM     15  H21 UNL     1      10.420  -5.223  22.727  1.00  0.00     0.277 HD
HETATM   16  C9  UNL     1       8.563  -6.472  24.494  1.00  0.00     0.032 C 
ENDBRANCH   7   9
TORSDOF 1
ENDMDL
MODEL 5
REMARK VINA RESULT: -5.641365161      2.726      4.003
REMARK  1 active torsions:
REMARK  status: ('A' for Active; 'I' for Inactive)
REMARK    1  A    between atoms: C4_7  and  C5_8 
ROOT
HETATM    1  N1  UNL     1       6.967  -5.898  29.457  1.00  0.00    -0.406 N 
ATOM      2  H11 UNL     1       6.779  -6.885  29.631  1.00  0.00     0.155 HD
ATOM      3  H12 UNL     1       6.803  -5.402  30.334  1.00  0.00     0.155 HD
HETATM    4  C1  UNL     1       7.334  -5.384  28.365  1.00  0.00    -0.020 C 
HETATM    5  C2  UNL     1       7.606  -3.958  28.115  1.00  0.00     0.052 C 
HETATM    6  C3  UNL     1       8.662  -3.975  27.054  1.00  0.00     0.011 C 
HETATM    7  C4  UNL     1       8.784  -5.395  26.550  1.00  0.00    -0.005 C 
HETATM    8  C10 UNL     1       7.571  -6.100  27.097  1.00  0.00     0.057 C 
ENDROOT
BRANCH   7   9
HETATM    9  C5  UNL     1       8.860  -5.372  25.065  1.00  0.00    -0.007 C 
HETATM   10  C6  UNL     1       7.538  -5.903  24.531  1.00  0.00     0.032 C 
HETATM   11  C7  UNL     1       7.694  -5.975  23.019  1.00  0.00     0.232 C 
HETATM   12  N2  UNL     1       7.772  -4.619  22.540  1.00  0.00    -0.075 N 
HETATM   13  C8  UNL     1       8.871  -3.876  23.054  1.00  0.00     0.232 C 
ATOM     14  H22 UNL     1       7.777  -4.602  21.520  1.00  0.00     0.277 HD
ATOM     15  H21 UNL     1       6.896  -4.127  22.719  1.00  0.00     0.277 HD
HETATM   16  C9  UNL     1       9.110  -3.994  24.511  1.00  0.00     0.032 C 
ENDBRANCH   7   9
TORSDOF 1
ENDMDL
