MODEL 1
REMARK VINA RESULT: -4.343915070      0.000      0.000
REMARK  1 active torsions:
REMARK  status: ('A' for Active; 'I' for Inactive)
REMARK    1  A    between atoms: C7_10  and  O1_12 
ROOT
HETATM    1  C1  UNL     1       8.520  -1.885   5.241  1.00  0.00     0.314 C 
HETATM    2  N1  UNL     1       8.533  -1.442   6.625  1.00  0.00     0.119 N 
HETATM    3  C2  UNL     1       9.645  -2.078   7.260  1.00  0.00     0.281 C 
HETATM    4  C3  UNL     1      10.012  -1.566   8.597  1.00  0.00     0.109 C 
HETATM    5  C4  UNL     1       9.281  -0.314   9.000  1.00  0.00     0.245 C 
HETATM    6  F1  UNL     1       9.960   0.325  10.034  1.00  0.00    -0.206 F 
HETATM    7  F2  UNL     1       9.101   0.579   7.997  1.00  0.00    -0.206 F 
HETATM    8  C5  UNL     1       7.925  -0.801   9.522  1.00  0.00     0.084 C 
HETATM    9  C6  UNL     1       6.951  -0.760   8.389  1.00  0.00     0.077 C 
HETATM   10  C7  UNL     1       7.274  -1.643   7.240  1.00  0.00     0.254 C 
HETATM   11  C8  UNL     1       6.190  -1.405   6.197  1.00  0.00     0.081 C 
ENDROOT
BRANCH  10  12
HETATM   12  O1  UNL     1       7.107  -2.981   7.664  1.00  0.00    -0.363 OA
ATOM     13  H1  UNL     1       7.204  -3.593   6.944  1.00  0.00     0.212 HD
ENDBRANCH  10  12
TORSDOF 1
ENDMDL
MODEL 2
REMARK VINA RESULT: -3.651510051      2.386      3.560
REMARK  1 active torsions:
REMARK  status: ('A' for Active; 'I' for Inactive)
REMARK    1  A    between atoms: C7_10  and  O1_12 
ROOT
HETATM    1  C1  UNL     1      10.715  -2.128   7.794  1.00  0.00     0.314 C 
HETATM    2  N1  UNL     1       9.285  -1.877   7.717  1.00  0.00     0.119 N 
HETATM    3  C2  UNL     1       8.968  -1.681   6.336  1.00  0.00     0.281 C 
HETATM    4  C3  UNL     1       7.530  -1.679   5.994  1.00  0.00     0.109 C 
HETATM    5  C4  UNL     1       6.625  -2.084   7.126  1.00  0.00     0.245 C 
HETATM    6  F1  UNL     1       5.379  -2.462   6.632  1.00  0.00    -0.206 F 
HETATM    7  F2  UNL     1       7.101  -3.096   7.891  1.00  0.00    -0.206 F 
HETATM    8  C5  UNL     1       6.460  -0.817   7.972  1.00  0.00     0.084 C 
HETATM    9  C6  UNL     1       7.490  -0.846   9.055  1.00  0.00     0.077 C 
HETATM   10  C7  UNL     1       8.901  -0.834   8.593  1.00  0.00     0.254 C 
HETATM   11  C8  UNL     1       9.763  -0.918   9.844  1.00  0.00     0.081 C 
ENDROOT
BRANCH  10  12
HETATM   12  O1  UNL     1       9.161   0.439   8.035  1.00  0.00    -0.363 OA
ATOM     13  H1  UNL     1       9.591   0.371   7.191  1.00  0.00     0.212 HD
ENDBRANCH  10  12
TORSDOF 1
ENDMDL
MODEL 3
REMARK VINA RESULT: -3.337595345      2.396      3.517
REMARK  1 active torsions:
REMARK  status: ('A' for Active; 'I' for Inactive)
REMARK    1  A    between atoms: C7_10  and  O1_12 
ROOT
HETATM    1  C1  UNL     1      10.661  -3.319   6.201  1.00  0.00     0.314 C 
HETATM    2  N1  UNL     1       9.473  -2.636   6.686  1.00  0.00     0.119 N 
HETATM    3  C2  UNL     1       8.794  -2.111   5.542  1.00  0.00     0.281 C 
HETATM    4  C3  UNL     1       7.423  -1.611   5.773  1.00  0.00     0.109 C 
HETATM    5  C4  UNL     1       6.877  -1.916   7.142  1.00  0.00     0.245 C 
HETATM    6  F1  UNL     1       5.489  -1.803   7.140  1.00  0.00    -0.206 F 
HETATM    7  F2  UNL     1       7.200  -3.143   7.615  1.00  0.00    -0.206 F 
HETATM    8  C5  UNL     1       7.462  -0.829   8.050  1.00  0.00     0.084 C 
HETATM    9  C6  UNL     1       8.720  -1.362   8.658  1.00  0.00     0.077 C 
HETATM   10  C7  UNL     1       9.799  -1.698   7.695  1.00  0.00     0.254 C 
HETATM   11  C8  UNL     1      10.949  -2.261   8.518  1.00  0.00     0.081 C 
ENDROOT
BRANCH  10  12
HETATM   12  O1  UNL     1      10.279  -0.486   7.146  1.00  0.00    -0.363 OA
ATOM     13  H1  UNL     1      10.579   0.110   7.821  1.00  0.00     0.212 HD
ENDBRANCH  10  12
TORSDOF 1
ENDMDL
MODEL 4
REMARK VINA RESULT: -2.692680940      2.125      3.190
REMARK  1 active torsions:
REMARK  status: ('A' for Active; 'I' for Inactive)
REMARK    1  A    between atoms: C7_10  and  O1_12 
ROOT
HETATM    1  C1  UNL     1       9.792  -3.319   6.243  1.00  0.00     0.314 C 
HETATM    2  N1  UNL     1       9.031  -2.392   7.065  1.00  0.00     0.119 N 
HETATM    3  C2  UNL     1       8.109  -1.724   6.200  1.00  0.00     0.281 C 
HETATM    4  C3  UNL     1       7.052  -0.933   6.864  1.00  0.00     0.109 C 
HETATM    5  C4  UNL     1       6.988  -1.117   8.356  1.00  0.00     0.245 C 
HETATM    6  F1  UNL     1       5.750  -0.700   8.838  1.00  0.00    -0.206 F 
HETATM    7  F2  UNL     1       7.197  -2.389   8.774  1.00  0.00    -0.206 F 
HETATM    8  C5  UNL     1       8.075  -0.192   8.914  1.00  0.00     0.084 C 
HETATM    9  C6  UNL     1       9.327  -0.994   9.074  1.00  0.00     0.077 C 
HETATM   10  C7  UNL     1       9.888  -1.555   7.819  1.00  0.00     0.254 C 
HETATM   11  C8  UNL     1      11.114  -2.364   8.220  1.00  0.00     0.081 C 
ENDROOT
BRANCH  10  12
HETATM   12  O1  UNL     1      10.379  -0.477   7.046  1.00  0.00    -0.363 OA
ATOM     13  H1  UNL     1      10.207   0.359   7.461  1.00  0.00     0.212 HD
ENDBRANCH  10  12
TORSDOF 1
ENDMDL
MODEL 5
REMARK VINA RESULT: -2.244786658      2.407      3.565
REMARK  1 active torsions:
REMARK  status: ('A' for Active; 'I' for Inactive)
REMARK    1  A    between atoms: C7_10  and  O1_12 
ROOT
HETATM    1  C1  UNL     1       9.049  -4.985   6.507  1.00  0.00     0.314 C 
HETATM    2  N1  UNL     1       9.447  -3.678   7.002  1.00  0.00     0.119 N 
HETATM    3  C2  UNL     1       8.968  -2.710   6.064  1.00  0.00     0.281 C 
HETATM    4  C3  UNL     1       9.023  -1.299   6.501  1.00  0.00     0.109 C 
HETATM    5  C4  UNL     1       9.390  -1.115   7.948  1.00  0.00     0.245 C 
HETATM    6  F1  UNL     1       9.015   0.156   8.380  1.00  0.00    -0.206 F 
HETATM    7  F2  UNL     1       8.841  -2.025   8.788  1.00  0.00    -0.206 F 
HETATM    8  C5  UNL     1      10.919  -1.219   7.983  1.00  0.00     0.084 C 
HETATM    9  C6  UNL     1      11.279  -2.638   8.285  1.00  0.00     0.077 C 
HETATM   10  C7  UNL     1      10.835  -3.635   7.278  1.00  0.00     0.254 C 
HETATM   11  C8  UNL     1      11.259  -4.998   7.807  1.00  0.00     0.081 C 
ENDROOT
BRANCH  10  12
HETATM   12  O1  UNL     1      11.595  -3.429   6.103  1.00  0.00    -0.363 OA
ATOM     13  H1  UNL     1      11.883  -2.527   6.025  1.00  0.00     0.212 HD
ENDBRANCH  10  12
TORSDOF 1
ENDMDL
