MODEL 1
REMARK VINA RESULT: -2.753730908      0.000      0.000
REMARK  1 active torsions:
REMARK  status: ('A' for Active; 'I' for Inactive)
REMARK    1  A    between atoms: C2_2  and  O1_3 
ROOT
HETATM    1  C1  UNL     1      23.080  -7.590   5.183  1.00  0.00     0.053 C 
HETATM    2  C2  UNL     1      23.911  -6.453   5.723  1.00  0.00     0.128 C 
HETATM    3  C3  UNL     1      24.376  -6.817   7.089  1.00  0.00     0.117 C 
HETATM    4  S1  UNL     1      23.106  -7.596   8.106  1.00  0.00    -0.166 SA
HETATM    5  C4  UNL     1      22.020  -6.414   8.909  1.00  0.00     0.074 C 
HETATM    6  C5  UNL     1      22.613  -5.050   8.895  1.00  0.00     0.010 C 
HETATM    7  C6  UNL     1      22.239  -4.203   7.734  1.00  0.00     0.007 C 
HETATM    8  C7  UNL     1      22.022  -4.966   6.454  1.00  0.00     0.082 C 
HETATM    9  C8  UNL     1      23.240  -5.121   5.621  1.00  0.00     0.274 C 
HETATM   10  F1  UNL     1      22.908  -4.935   4.277  1.00  0.00    -0.203 F 
HETATM   11  F2  UNL     1      24.182  -4.146   5.911  1.00  0.00    -0.203 F 
ENDROOT
BRANCH   2  12
HETATM   12  O1  UNL     1      25.062  -6.388   4.899  1.00  0.00    -0.383 OA
ATOM     13  H1  UNL     1      25.420  -5.517   5.019  1.00  0.00     0.210 HD
ENDBRANCH   2  12
TORSDOF 1
ENDMDL
MODEL 2
REMARK VINA RESULT: -2.653740970      5.745      7.093
REMARK  1 active torsions:
REMARK  status: ('A' for Active; 'I' for Inactive)
REMARK    1  A    between atoms: C2_2  and  O1_3 
ROOT
HETATM    1  C1  UNL     1      21.077  -2.501   7.835  1.00  0.00     0.053 C 
HETATM    2  C2  UNL     1      20.454  -1.365   8.608  1.00  0.00     0.128 C 
HETATM    3  C3  UNL     1      19.514  -0.644   7.707  1.00  0.00     0.117 C 
HETATM    4  S1  UNL     1      20.156  -0.385   6.041  1.00  0.00    -0.166 SA
HETATM    5  C4  UNL     1      21.217   1.057   5.908  1.00  0.00     0.074 C 
HETATM    6  C5  UNL     1      21.042   1.957   7.079  1.00  0.00     0.010 C 
HETATM    7  C6  UNL     1      21.965   1.712   8.216  1.00  0.00     0.007 C 
HETATM    8  C7  UNL     1      22.353   0.269   8.401  1.00  0.00     0.082 C 
HETATM    9  C8  UNL     1      21.454  -0.495   9.301  1.00  0.00     0.274 C 
HETATM   10  F1  UNL     1      22.219  -1.328  10.121  1.00  0.00    -0.203 F 
HETATM   11  F2  UNL     1      20.763   0.344  10.162  1.00  0.00    -0.203 F 
ENDROOT
BRANCH   2  12
HETATM   12  O1  UNL     1      19.673  -1.968   9.624  1.00  0.00    -0.383 OA
ATOM     13  H1  UNL     1      20.213  -1.965  10.405  1.00  0.00     0.210 HD
ENDBRANCH   2  12
TORSDOF 1
ENDMDL
MODEL 3
REMARK VINA RESULT: -2.181054264      2.265      3.236
REMARK  1 active torsions:
REMARK  status: ('A' for Active; 'I' for Inactive)
REMARK    1  A    between atoms: C2_2  and  O1_3 
ROOT
HETATM    1  C1  UNL     1      22.143  -6.469   8.666  1.00  0.00     0.053 C 
HETATM    2  C2  UNL     1      23.300  -5.752   8.016  1.00  0.00     0.128 C 
HETATM    3  C3  UNL     1      23.083  -4.287   8.157  1.00  0.00     0.117 C 
HETATM    4  S1  UNL     1      21.383  -3.769   7.845  1.00  0.00    -0.166 SA
HETATM    5  C4  UNL     1      21.021  -3.544   6.101  1.00  0.00     0.074 C 
HETATM    6  C5  UNL     1      22.273  -3.447   5.305  1.00  0.00     0.010 C 
HETATM    7  C6  UNL     1      22.785  -4.731   4.761  1.00  0.00     0.007 C 
HETATM    8  C7  UNL     1      22.515  -5.927   5.635  1.00  0.00     0.082 C 
HETATM    9  C8  UNL     1      23.583  -6.216   6.623  1.00  0.00     0.274 C 
HETATM   10  F1  UNL     1      23.793  -7.595   6.688  1.00  0.00    -0.203 F 
HETATM   11  F2  UNL     1      24.798  -5.672   6.233  1.00  0.00    -0.203 F 
ENDROOT
BRANCH   2  12
HETATM   12  O1  UNL     1      24.441  -6.077   8.789  1.00  0.00    -0.383 OA
ATOM     13  H1  UNL     1      25.017  -5.324   8.732  1.00  0.00     0.210 HD
ENDBRANCH   2  12
TORSDOF 1
ENDMDL
MODEL 4
REMARK VINA RESULT: -2.038433434      4.644      5.907
REMARK  1 active torsions:
REMARK  status: ('A' for Active; 'I' for Inactive)
REMARK    1  A    between atoms: C2_2  and  O1_3 
ROOT
HETATM    1  C1  UNL     1      21.929  -1.588   9.401  1.00  0.00     0.053 C 
HETATM    2  C2  UNL     1      20.556  -1.658   8.780  1.00  0.00     0.128 C 
HETATM    3  C3  UNL     1      20.263  -3.079   8.448  1.00  0.00     0.117 C 
HETATM    4  S1  UNL     1      21.656  -3.956   7.709  1.00  0.00    -0.166 SA
HETATM    5  C4  UNL     1      21.803  -3.686   5.940  1.00  0.00     0.074 C 
HETATM    6  C5  UNL     1      20.545  -3.125   5.380  1.00  0.00     0.010 C 
HETATM    7  C6  UNL     1      20.472  -1.643   5.332  1.00  0.00     0.007 C 
HETATM    8  C7  UNL     1      21.195  -0.949   6.456  1.00  0.00     0.082 C 
HETATM    9  C8  UNL     1      20.359  -0.695   7.655  1.00  0.00     0.274 C 
HETATM   10  F1  UNL     1      20.642   0.578   8.155  1.00  0.00    -0.203 F 
HETATM   11  F2  UNL     1      19.008  -0.680   7.340  1.00  0.00    -0.203 F 
ENDROOT
BRANCH   2  12
HETATM   12  O1  UNL     1      19.650  -1.278   9.801  1.00  0.00    -0.383 OA
ATOM     13  H1  UNL     1      20.185  -1.037  10.548  1.00  0.00     0.210 HD
ENDBRANCH   2  12
TORSDOF 1
ENDMDL
MODEL 5
REMARK VINA RESULT: -2.024634357      2.459      3.156
REMARK  1 active torsions:
REMARK  status: ('A' for Active; 'I' for Inactive)
REMARK    1  A    between atoms: C2_2  and  O1_3 
ROOT
HETATM    1  C1  UNL     1      24.794  -5.624   5.638  1.00  0.00     0.053 C 
HETATM    2  C2  UNL     1      23.528  -6.191   6.231  1.00  0.00     0.128 C 
HETATM    3  C3  UNL     1      22.403  -5.901   5.300  1.00  0.00     0.117 C 
HETATM    4  S1  UNL     1      22.436  -4.232   4.616  1.00  0.00    -0.166 SA
HETATM    5  C4  UNL     1      21.706  -3.007   5.705  1.00  0.00     0.074 C 
HETATM    6  C5  UNL     1      20.882  -3.654   6.760  1.00  0.00     0.010 C 
HETATM    7  C6  UNL     1      21.594  -3.968   8.025  1.00  0.00     0.007 C 
HETATM    8  C7  UNL     1      23.045  -4.328   7.847  1.00  0.00     0.082 C 
HETATM    9  C8  UNL     1      23.295  -5.777   7.648  1.00  0.00     0.274 C 
HETATM   10  F1  UNL     1      24.427  -6.155   8.374  1.00  0.00    -0.203 F 
HETATM   11  F2  UNL     1      22.256  -6.546   8.150  1.00  0.00    -0.203 F 
ENDROOT
BRANCH   2  12
HETATM   12  O1  UNL     1      23.701  -7.596   6.244  1.00  0.00    -0.383 OA
ATOM     13  H1  UNL     1      23.565  -7.884   5.349  1.00  0.00     0.210 HD
ENDBRANCH   2  12
TORSDOF 1
ENDMDL
