MODEL 1
REMARK VINA RESULT: -5.634719109      0.000      0.000
REMARK  3 active torsions:
REMARK  status: ('A' for Active; 'I' for Inactive)
REMARK    1  A    between atoms: C5_5  and  C6_6 
REMARK    2  A    between atoms: C7_7  and  C8_8 
REMARK    3  A    between atoms: N1_12  and  O1_13 
ROOT
HETATM    1  C1  UNL     1      21.409   4.639   6.462  1.00  0.00     0.038 C 
HETATM    2  C2  UNL     1      22.271   3.482   6.015  1.00  0.00     0.050 C 
HETATM    3  C3  UNL     1      22.447   3.458   4.516  1.00  0.00     0.038 C 
HETATM    4  C4  UNL     1      21.624   2.238   6.516  1.00  0.00     0.017 C 
HETATM    5  C5  UNL     1      22.188   1.937   7.675  1.00  0.00     0.009 C 
HETATM    6  C9  UNL     1      23.223   2.962   7.981  1.00  0.00     0.169 C 
HETATM    7  N1  UNL     1      23.547   3.435   6.651  1.00  0.00    -0.182 NA
ENDROOT
BRANCH   5   8
HETATM    8  C6  UNL     1      21.840   0.803   8.482  1.00  0.00    -0.065 C 
HETATM    9  C7  UNL     1      21.537  -0.160   9.146  1.00  0.00    -0.032 C 
BRANCH   9  10
HETATM   10  C8  UNL     1      21.159  -1.345   9.943  1.00  0.00     0.432 C 
HETATM   11  F1  UNL     1      20.574  -2.261   9.087  1.00  0.00    -0.200 F 
HETATM   12  F2  UNL     1      20.271  -0.986  10.960  1.00  0.00    -0.200 F 
ENDBRANCH   9  10
ENDBRANCH   5   8
BRANCH   7  13
HETATM   13  O1  UNL     1      24.245   4.561   6.628  1.00  0.00    -0.312 OA
ATOM     14  H1  UNL     1      25.119   4.513   6.996  1.00  0.00     0.237 HD
ENDBRANCH   7  13
TORSDOF 3
ENDMDL
MODEL 2
REMARK VINA RESULT: -5.093098514      6.088      8.107
REMARK  3 active torsions:
REMARK  status: ('A' for Active; 'I' for Inactive)
REMARK    1  A    between atoms: C5_5  and  C6_6 
REMARK    2  A    between atoms: C7_7  and  C8_8 
REMARK    3  A    between atoms: N1_12  and  O1_13 
ROOT
HETATM    1  C1  UNL     1      22.361  -7.461   7.896  1.00  0.00     0.038 C 
HETATM    2  C2  UNL     1      23.276  -6.260   7.916  1.00  0.00     0.050 C 
HETATM    3  C3  UNL     1      24.298  -6.349   9.023  1.00  0.00     0.038 C 
HETATM    4  C4  UNL     1      22.411  -5.056   8.058  1.00  0.00     0.017 C 
HETATM    5  C5  UNL     1      22.175  -4.593   6.840  1.00  0.00     0.009 C 
HETATM    6  C9  UNL     1      22.870  -5.465   5.856  1.00  0.00     0.169 C 
HETATM    7  N1  UNL     1      23.932  -6.014   6.673  1.00  0.00    -0.182 NA
ENDROOT
BRANCH   5   8
HETATM    8  C6  UNL     1      21.375  -3.437   6.548  1.00  0.00    -0.065 C 
HETATM    9  C7  UNL     1      20.717  -2.453   6.307  1.00  0.00    -0.032 C 
BRANCH   9  10
HETATM   10  C8  UNL     1      19.928  -1.239   6.015  1.00  0.00     0.432 C 
HETATM   11  F1  UNL     1      20.722  -0.387   5.269  1.00  0.00    -0.200 F 
HETATM   12  F2  UNL     1      19.526  -0.622   7.203  1.00  0.00    -0.200 F 
ENDBRANCH   9  10
ENDBRANCH   5   8
BRANCH   7  13
HETATM   13  O1  UNL     1      24.553  -7.053   6.134  1.00  0.00    -0.312 OA
ATOM     14  H1  UNL     1      25.500  -6.993   6.093  1.00  0.00     0.237 HD
ENDBRANCH   7  13
TORSDOF 3
ENDMDL
MODEL 3
REMARK VINA RESULT: -5.069208572      5.876      6.468
REMARK  3 active torsions:
REMARK  status: ('A' for Active; 'I' for Inactive)
REMARK    1  A    between atoms: C5_5  and  C6_6 
REMARK    2  A    between atoms: C7_7  and  C8_8 
REMARK    3  A    between atoms: N1_12  and  O1_13 
ROOT
HETATM    1  C1  UNL     1      23.342  -3.322   4.028  1.00  0.00     0.038 C 
HETATM    2  C2  UNL     1      21.969  -3.907   4.253  1.00  0.00     0.050 C 
HETATM    3  C3  UNL     1      21.214  -4.085   2.958  1.00  0.00     0.038 C 
HETATM    4  C4  UNL     1      21.255  -2.994   5.189  1.00  0.00     0.017 C 
HETATM    5  C5  UNL     1      21.428  -3.469   6.413  1.00  0.00     0.009 C 
HETATM    6  C9  UNL     1      22.253  -4.704   6.333  1.00  0.00     0.169 C 
HETATM    7  N1  UNL     1      21.977  -5.136   4.979  1.00  0.00    -0.182 NA
ENDROOT
BRANCH   5   8
HETATM    8  C6  UNL     1      20.894  -2.869   7.603  1.00  0.00    -0.065 C 
HETATM    9  C7  UNL     1      20.429  -2.359   8.594  1.00  0.00    -0.032 C 
BRANCH   9  10
HETATM   10  C8  UNL     1      19.844  -1.731   9.796  1.00  0.00     0.432 C 
HETATM   11  F1  UNL     1      20.866  -1.103  10.486  1.00  0.00    -0.200 F 
HETATM   12  F2  UNL     1      19.229  -2.695  10.600  1.00  0.00    -0.200 F 
ENDBRANCH   9  10
ENDBRANCH   5   8
BRANCH   7  13
HETATM   13  O1  UNL     1      22.802  -6.068   4.525  1.00  0.00    -0.312 OA
ATOM     14  H1  UNL     1      23.451  -6.382   5.143  1.00  0.00     0.237 HD
ENDBRANCH   7  13
TORSDOF 3
ENDMDL
MODEL 4
REMARK VINA RESULT: -4.947149754      0.512      1.002
REMARK  3 active torsions:
REMARK  status: ('A' for Active; 'I' for Inactive)
REMARK    1  A    between atoms: C5_5  and  C6_6 
REMARK    2  A    between atoms: C7_7  and  C8_8 
REMARK    3  A    between atoms: N1_12  and  O1_13 
ROOT
HETATM    1  C1  UNL     1      21.402   4.579   6.509  1.00  0.00     0.038 C 
HETATM    2  C2  UNL     1      22.225   3.423   5.995  1.00  0.00     0.050 C 
HETATM    3  C3  UNL     1      22.496   3.540   4.514  1.00  0.00     0.038 C 
HETATM    4  C4  UNL     1      21.480   2.177   6.325  1.00  0.00     0.017 C 
HETATM    5  C5  UNL     1      21.952   1.726   7.477  1.00  0.00     0.009 C 
HETATM    6  C9  UNL     1      23.020   2.649   7.947  1.00  0.00     0.169 C 
HETATM    7  N1  UNL     1      23.454   3.233   6.695  1.00  0.00    -0.182 NA
ENDROOT
BRANCH   5   8
HETATM    8  C6  UNL     1      21.490   0.540   8.140  1.00  0.00    -0.065 C 
HETATM    9  C7  UNL     1      21.084  -0.456   8.690  1.00  0.00    -0.032 C 
BRANCH   9  10
HETATM   10  C8  UNL     1      20.571  -1.672   9.353  1.00  0.00     0.432 C 
HETATM   11  F1  UNL     1      20.373  -1.374  10.689  1.00  0.00    -0.200 F 
HETATM   12  F2  UNL     1      21.479  -2.724   9.213  1.00  0.00    -0.200 F 
ENDBRANCH   9  10
ENDBRANCH   5   8
BRANCH   7  13
HETATM   13  O1  UNL     1      24.213   4.311   6.830  1.00  0.00    -0.312 OA
ATOM     14  H1  UNL     1      25.098   4.238   6.492  1.00  0.00     0.237 HD
ENDBRANCH   7  13
TORSDOF 3
ENDMDL
MODEL 5
REMARK VINA RESULT: -4.928920509      5.800      7.774
REMARK  3 active torsions:
REMARK  status: ('A' for Active; 'I' for Inactive)
REMARK    1  A    between atoms: C5_5  and  C6_6 
REMARK    2  A    between atoms: C7_7  and  C8_8 
REMARK    3  A    between atoms: N1_12  and  O1_13 
ROOT
HETATM    1  C1  UNL     1      22.399  -7.596   7.033  1.00  0.00     0.038 C 
HETATM    2  C2  UNL     1      23.389  -6.489   7.304  1.00  0.00     0.050 C 
HETATM    3  C3  UNL     1      24.714  -7.025   7.790  1.00  0.00     0.038 C 
HETATM    4  C4  UNL     1      22.761  -5.579   8.301  1.00  0.00     0.017 C 
HETATM    5  C5  UNL     1      22.172  -4.601   7.629  1.00  0.00     0.009 C 
HETATM    6  C9  UNL     1      22.388  -4.827   6.174  1.00  0.00     0.169 C 
HETATM    7  N1  UNL     1      23.599  -5.619   6.192  1.00  0.00    -0.182 NA
ENDROOT
BRANCH   5   8
HETATM    8  C6  UNL     1      21.451  -3.516   8.231  1.00  0.00    -0.065 C 
HETATM    9  C7  UNL     1      20.856  -2.604   8.754  1.00  0.00    -0.032 C 
BRANCH   9  10
HETATM   10  C8  UNL     1      20.142  -1.488   9.407  1.00  0.00     0.432 C 
HETATM   11  F1  UNL     1      21.090  -0.627   9.930  1.00  0.00    -0.200 F 
HETATM   12  F2  UNL     1      19.305  -1.970  10.416  1.00  0.00    -0.200 F 
ENDBRANCH   9  10
ENDBRANCH   5   8
BRANCH   7  13
HETATM   13  O1  UNL     1      23.880  -6.213   5.041  1.00  0.00    -0.312 OA
ATOM     14  H1  UNL     1      23.150  -6.636   4.606  1.00  0.00     0.237 HD
ENDBRANCH   7  13
TORSDOF 3
ENDMDL
