MODEL 1
REMARK VINA RESULT: -8.024632752      0.000      0.000
REMARK  4 active torsions:
REMARK  status: ('A' for Active; 'I' for Inactive)
REMARK    1  A    between atoms: O1_1  and  N1_3 
REMARK    2  A    between atoms: C1_5  and  N2_6 
REMARK    3  A    between atoms: C1_5  and  C8_16 
REMARK    4  A    between atoms: N2_6  and  C2_7 
ROOT
HETATM    1  N1  UNL     1     -33.801 -14.353  -0.244  1.00  0.00    -0.245 N 
ATOM      2  H1  UNL     1     -32.997 -14.420  -0.867  1.00  0.00     0.196 HD
HETATM    3  C1  UNL     1     -33.999 -13.290   0.522  1.00  0.00     0.178 C 
ENDROOT
BRANCH   3   4
HETATM    4  N2  UNL     1     -35.010 -13.147   1.339  1.00  0.00    -0.396 NA
BRANCH   4   5
HETATM    5  C2  UNL     1     -35.891 -12.898   2.114  1.00  0.00     0.097 C 
HETATM    6  C3  UNL     1     -36.945 -11.796   1.991  1.00  0.00     0.103 C 
HETATM    7  C4  UNL     1     -37.650 -11.855   3.306  1.00  0.00     0.193 C 
HETATM    8  C5  UNL     1     -38.607 -13.027   3.339  1.00  0.00     0.036 C 
HETATM    9  N3  UNL     1     -36.593 -12.340   4.194  1.00  0.00    -0.060 N 
HETATM   10  C6  UNL     1     -37.613 -14.197   3.327  1.00  0.00     0.042 C 
HETATM   11  C7  UNL     1     -36.277 -13.539   3.436  1.00  0.00     0.246 C 
ATOM     12  H32 UNL     1     -35.825 -11.701   4.398  1.00  0.00     0.278 HD
ATOM     13  H31 UNL     1     -36.830 -12.460   5.179  1.00  0.00     0.278 HD
ENDBRANCH   4   5
ENDBRANCH   3   4
BRANCH   3  14
HETATM   14  C8  UNL     1     -32.923 -12.234   0.362  1.00  0.00     0.070 C 
HETATM   15  C9  UNL     1     -32.379 -12.390  -1.029  1.00  0.00     0.013 C 
HETATM   16  C10 UNL     1     -30.840 -12.445  -1.044  1.00  0.00     0.001 C 
HETATM   17  C11 UNL     1     -30.256 -11.623  -2.126  1.00  0.00     0.000 C 
HETATM   18  C12 UNL     1     -29.369 -10.506  -1.832  1.00  0.00     0.000 C 
HETATM   19  C13 UNL     1     -29.094 -10.071  -0.461  1.00  0.00     0.000 C 
HETATM   20  C14 UNL     1     -29.860  -8.843  -0.005  1.00  0.00     0.000 C 
HETATM   21  C15 UNL     1     -31.196  -8.671  -0.600  1.00  0.00     0.000 C 
HETATM   22  C16 UNL     1     -32.316  -8.642   0.446  1.00  0.00     0.000 C 
HETATM   23  C17 UNL     1     -32.395  -9.923   1.220  1.00  0.00     0.001 C 
HETATM   24  C18 UNL     1     -33.440 -10.874   0.671  1.00  0.00     0.013 C 
ENDBRANCH   3  14
BRANCH   1  25
HETATM   25  O1  UNL     1     -34.728 -15.357  -0.159  1.00  0.00    -0.288 OA
ATOM     26  H1  UNL     1     -35.641 -15.105  -0.228  1.00  0.00     0.244 HD
ENDBRANCH   1  25
TORSDOF 4
ENDMDL
MODEL 2
REMARK VINA RESULT: -7.519326723      0.756      1.196
REMARK  4 active torsions:
REMARK  status: ('A' for Active; 'I' for Inactive)
REMARK    1  A    between atoms: O1_1  and  N1_3 
REMARK    2  A    between atoms: C1_5  and  N2_6 
REMARK    3  A    between atoms: C1_5  and  C8_16 
REMARK    4  A    between atoms: N2_6  and  C2_7 
ROOT
HETATM    1  N1  UNL     1     -33.384 -14.547  -0.275  1.00  0.00    -0.245 N 
ATOM      2  H1  UNL     1     -32.561 -14.527  -0.877  1.00  0.00     0.196 HD
HETATM    3  C1  UNL     1     -33.713 -13.513   0.485  1.00  0.00     0.178 C 
ENDROOT
BRANCH   3   4
HETATM    4  N2  UNL     1     -34.755 -13.479   1.275  1.00  0.00    -0.396 NA
BRANCH   4   5
HETATM    5  C2  UNL     1     -35.686 -13.322   2.015  1.00  0.00     0.097 C 
HETATM    6  C3  UNL     1     -35.685 -13.449   3.540  1.00  0.00     0.103 C 
HETATM    7  C4  UNL     1     -37.131 -13.318   3.889  1.00  0.00     0.193 C 
HETATM    8  C5  UNL     1     -37.561 -11.868   3.822  1.00  0.00     0.036 C 
HETATM    9  N3  UNL     1     -37.781 -13.852   2.693  1.00  0.00    -0.060 N 
HETATM   10  C6  UNL     1     -37.456 -11.618   2.310  1.00  0.00     0.042 C 
HETATM   11  C7  UNL     1     -37.136 -12.962   1.742  1.00  0.00     0.246 C 
ATOM     12  H32 UNL     1     -37.698 -14.854   2.524  1.00  0.00     0.278 HD
ATOM     13  H31 UNL     1     -38.801 -13.879   2.688  1.00  0.00     0.278 HD
ENDBRANCH   4   5
ENDBRANCH   3   4
BRANCH   3  14
HETATM   14  C8  UNL     1     -32.751 -12.349   0.354  1.00  0.00     0.070 C 
HETATM   15  C9  UNL     1     -32.191 -12.417  -1.038  1.00  0.00     0.013 C 
HETATM   16  C10 UNL     1     -30.655 -12.313  -1.048  1.00  0.00     0.001 C 
HETATM   17  C11 UNL     1     -30.156 -11.411  -2.108  1.00  0.00     0.000 C 
HETATM   18  C12 UNL     1     -29.388 -10.216  -1.785  1.00  0.00     0.000 C 
HETATM   19  C13 UNL     1     -29.161  -9.787  -0.404  1.00  0.00     0.000 C 
HETATM   20  C14 UNL     1     -30.050  -8.655   0.077  1.00  0.00     0.000 C 
HETATM   21  C15 UNL     1     -31.396  -8.607  -0.520  1.00  0.00     0.000 C 
HETATM   22  C16 UNL     1     -32.514  -8.716   0.522  1.00  0.00     0.000 C 
HETATM   23  C17 UNL     1     -32.464 -10.017   1.266  1.00  0.00     0.001 C 
HETATM   24  C18 UNL     1     -33.404 -11.056   0.691  1.00  0.00     0.013 C 
ENDBRANCH   3  14
BRANCH   1  25
HETATM   25  O1  UNL     1     -34.202 -15.644  -0.215  1.00  0.00    -0.288 OA
ATOM     26  H1  UNL     1     -33.784 -16.483  -0.068  1.00  0.00     0.244 HD
ENDBRANCH   1  25
TORSDOF 4
ENDMDL
MODEL 3
REMARK VINA RESULT: -6.602098077      0.663      2.294
REMARK  4 active torsions:
REMARK  status: ('A' for Active; 'I' for Inactive)
REMARK    1  A    between atoms: O1_1  and  N1_3 
REMARK    2  A    between atoms: C1_5  and  N2_6 
REMARK    3  A    between atoms: C1_5  and  C8_16 
REMARK    4  A    between atoms: N2_6  and  C2_7 
ROOT
HETATM    1  N1  UNL     1     -33.963 -14.260  -0.503  1.00  0.00    -0.245 N 
ATOM      2  H1  UNL     1     -33.202 -14.316  -1.180  1.00  0.00     0.196 HD
HETATM    3  C1  UNL     1     -34.171 -13.168   0.217  1.00  0.00     0.178 C 
ENDROOT
BRANCH   3   4
HETATM    4  N2  UNL     1     -35.130 -13.037   1.098  1.00  0.00    -0.396 NA
BRANCH   4   5
HETATM    5  C2  UNL     1     -35.950 -12.808   1.944  1.00  0.00     0.097 C 
HETATM    6  C3  UNL     1     -36.994 -11.690   1.939  1.00  0.00     0.103 C 
HETATM    7  C4  UNL     1     -37.603 -11.792   3.298  1.00  0.00     0.193 C 
HETATM    8  C5  UNL     1     -38.571 -12.954   3.356  1.00  0.00     0.036 C 
HETATM    9  N3  UNL     1     -36.492 -12.323   4.088  1.00  0.00    -0.060 N 
HETATM   10  C6  UNL     1     -37.598 -14.134   3.227  1.00  0.00     0.042 C 
HETATM   11  C7  UNL     1     -36.248 -13.495   3.264  1.00  0.00     0.246 C 
ATOM     12  H32 UNL     1     -35.703 -11.701   4.261  1.00  0.00     0.278 HD
ATOM     13  H31 UNL     1     -36.659 -12.479   5.082  1.00  0.00     0.278 HD
ENDBRANCH   4   5
ENDBRANCH   3   4
BRANCH   3  14
HETATM   14  C8  UNL     1     -33.176 -12.063  -0.076  1.00  0.00     0.070 C 
HETATM   15  C9  UNL     1     -33.015 -11.287   1.200  1.00  0.00     0.013 C 
HETATM   16  C10 UNL     1     -33.157  -9.771   0.975  1.00  0.00     0.001 C 
HETATM   17  C11 UNL     1     -32.131  -8.993   1.701  1.00  0.00     0.000 C 
HETATM   18  C12 UNL     1     -31.176  -8.152   0.991  1.00  0.00     0.000 C 
HETATM   19  C13 UNL     1     -31.111  -8.113  -0.472  1.00  0.00     0.000 C 
HETATM   20  C14 UNL     1     -29.990  -8.926  -1.092  1.00  0.00     0.000 C 
HETATM   21  C15 UNL     1     -29.597 -10.135  -0.348  1.00  0.00     0.000 C 
HETATM   22  C16 UNL     1     -29.759 -11.419  -1.168  1.00  0.00     0.000 C 
HETATM   23  C17 UNL     1     -31.185 -11.655  -1.568  1.00  0.00     0.001 C 
HETATM   24  C18 UNL     1     -31.905 -12.603  -0.631  1.00  0.00     0.013 C 
ENDBRANCH   3  14
BRANCH   1  25
HETATM   25  O1  UNL     1     -34.819 -15.309  -0.298  1.00  0.00    -0.288 OA
ATOM     26  H1  UNL     1     -34.905 -15.936  -1.006  1.00  0.00     0.244 HD
ENDBRANCH   1  25
TORSDOF 4
ENDMDL
MODEL 4
REMARK VINA RESULT: -6.300027263      3.391      7.796
REMARK  4 active torsions:
REMARK  status: ('A' for Active; 'I' for Inactive)
REMARK    1  A    between atoms: O1_1  and  N1_3 
REMARK    2  A    between atoms: C1_5  and  N2_6 
REMARK    3  A    between atoms: C1_5  and  C8_16 
REMARK    4  A    between atoms: N2_6  and  C2_7 
ROOT
HETATM    1  N1  UNL     1     -31.898  -8.327   1.951  1.00  0.00    -0.245 N 
ATOM      2  H1  UNL     1     -32.668  -8.404   2.616  1.00  0.00     0.196 HD
HETATM    3  C1  UNL     1     -31.694  -9.244   1.017  1.00  0.00     0.178 C 
ENDROOT
BRANCH   3   4
HETATM    4  N2  UNL     1     -30.726  -9.199   0.138  1.00  0.00    -0.396 NA
BRANCH   4   5
HETATM    5  C2  UNL     1     -29.904  -9.247  -0.735  1.00  0.00     0.097 C 
HETATM    6  C3  UNL     1     -29.718 -10.359  -1.767  1.00  0.00     0.103 C 
HETATM    7  C4  UNL     1     -28.460  -9.963  -2.466  1.00  0.00     0.193 C 
HETATM    8  C5  UNL     1     -28.731  -8.841  -3.446  1.00  0.00     0.036 C 
HETATM    9  N3  UNL     1     -27.744  -9.240  -1.415  1.00  0.00    -0.060 N 
HETATM   10  C6  UNL     1     -29.066  -7.700  -2.475  1.00  0.00     0.042 C 
HETATM   11  C7  UNL     1     -28.798  -8.282  -1.125  1.00  0.00     0.246 C 
ATOM     12  H32 UNL     1     -27.384  -9.788  -0.634  1.00  0.00     0.278 HD
ATOM     13  H31 UNL     1     -26.825  -8.866  -1.649  1.00  0.00     0.278 HD
ENDBRANCH   4   5
ENDBRANCH   3   4
BRANCH   3  14
HETATM   14  C8  UNL     1     -32.703 -10.374   1.062  1.00  0.00     0.070 C 
HETATM   15  C9  UNL     1     -34.056  -9.741   0.906  1.00  0.00     0.013 C 
HETATM   16  C10 UNL     1     -35.048 -10.228   1.978  1.00  0.00     0.001 C 
HETATM   17  C11 UNL     1     -36.380 -10.537   1.416  1.00  0.00     0.000 C 
HETATM   18  C12 UNL     1     -36.943 -11.878   1.499  1.00  0.00     0.000 C 
HETATM   19  C13 UNL     1     -36.185 -13.008   2.040  1.00  0.00     0.000 C 
HETATM   20  C14 UNL     1     -35.583 -13.940   1.005  1.00  0.00     0.000 C 
HETATM   21  C15 UNL     1     -35.196 -13.309  -0.268  1.00  0.00     0.000 C 
HETATM   22  C16 UNL     1     -33.705 -13.468  -0.583  1.00  0.00     0.000 C 
HETATM   23  C17 UNL     1     -32.839 -12.816   0.454  1.00  0.00     0.001 C 
HETATM   24  C18 UNL     1     -32.396 -11.424   0.055  1.00  0.00     0.013 C 
ENDBRANCH   3  14
BRANCH   1  25
HETATM   25  O1  UNL     1     -31.028  -7.270   1.982  1.00  0.00    -0.288 OA
ATOM     26  H1  UNL     1     -31.194  -6.561   1.373  1.00  0.00     0.244 HD
ENDBRANCH   1  25
TORSDOF 4
ENDMDL
MODEL 5
REMARK VINA RESULT: -6.214021451      3.370      7.400
REMARK  4 active torsions:
REMARK  status: ('A' for Active; 'I' for Inactive)
REMARK    1  A    between atoms: O1_1  and  N1_3 
REMARK    2  A    between atoms: C1_5  and  N2_6 
REMARK    3  A    between atoms: C1_5  and  C8_16 
REMARK    4  A    between atoms: N2_6  and  C2_7 
ROOT
HETATM    1  N1  UNL     1     -32.724  -7.850   1.505  1.00  0.00    -0.245 N 
ATOM      2  H1  UNL     1     -33.590  -7.970   2.030  1.00  0.00     0.196 HD
HETATM    3  C1  UNL     1     -32.276  -8.786   0.682  1.00  0.00     0.178 C 
ENDROOT
BRANCH   3   4
HETATM    4  N2  UNL     1     -31.174  -8.688  -0.016  1.00  0.00    -0.396 NA
BRANCH   4   5
HETATM    5  C2  UNL     1     -30.190  -8.716  -0.703  1.00  0.00     0.097 C 
HETATM    6  C3  UNL     1     -28.991  -7.770  -0.636  1.00  0.00     0.103 C 
HETATM    7  C4  UNL     1     -28.176  -8.175  -1.820  1.00  0.00     0.193 C 
HETATM    8  C5  UNL     1     -27.422  -9.454  -1.528  1.00  0.00     0.036 C 
HETATM    9  N3  UNL     1     -29.202  -8.667  -2.740  1.00  0.00    -0.060 N 
HETATM   10  C6  UNL     1     -28.587 -10.451  -1.442  1.00  0.00     0.042 C 
HETATM   11  C7  UNL     1     -29.782  -9.644  -1.833  1.00  0.00     0.246 C 
ATOM     12  H32 UNL     1     -29.832  -7.977  -3.148  1.00  0.00     0.278 HD
ATOM     13  H31 UNL     1     -28.890  -9.003  -3.651  1.00  0.00     0.278 HD
ENDBRANCH   4   5
ENDBRANCH   3   4
BRANCH   3  14
HETATM   14  C8  UNL     1     -33.172 -10.007   0.625  1.00  0.00     0.070 C 
HETATM   15  C9  UNL     1     -32.262 -11.198   0.546  1.00  0.00     0.013 C 
HETATM   16  C10 UNL     1     -32.666 -12.159  -0.587  1.00  0.00     0.001 C 
HETATM   17  C11 UNL     1     -32.624 -13.576  -0.168  1.00  0.00     0.000 C 
HETATM   18  C12 UNL     1     -33.821 -14.406  -0.184  1.00  0.00     0.000 C 
HETATM   19  C13 UNL     1     -35.140 -13.861  -0.510  1.00  0.00     0.000 C 
HETATM   20  C14 UNL     1     -36.039 -13.584   0.681  1.00  0.00     0.000 C 
HETATM   21  C15 UNL     1     -35.346 -13.200   1.923  1.00  0.00     0.000 C 
HETATM   22  C16 UNL     1     -35.765 -11.818   2.436  1.00  0.00     0.000 C 
HETATM   23  C17 UNL     1     -35.440 -10.731   1.455  1.00  0.00     0.001 C 
HETATM   24  C18 UNL     1     -34.128 -10.038   1.765  1.00  0.00     0.013 C 
ENDBRANCH   3  14
BRANCH   1  25
HETATM   25  O1  UNL     1     -31.971  -6.712   1.617  1.00  0.00    -0.288 OA
ATOM     26  H1  UNL     1     -31.447  -6.468   0.863  1.00  0.00     0.244 HD
ENDBRANCH   1  25
TORSDOF 4
ENDMDL
