MODEL 1
REMARK VINA RESULT: -7.146376474      0.000      0.000
REMARK  5 active torsions:
REMARK  status: ('A' for Active; 'I' for Inactive)
REMARK    1  A    between atoms: S1_2  and  C2_3 
REMARK    2  A    between atoms: C2_3  and  C3_4 
REMARK    3  A    between atoms: C3_4  and  N1_5 
REMARK       I    between atoms: N1_5  and  C4_7 
REMARK       I    between atoms: C4_7  and  N3_12 
REMARK    4  A    between atoms: N2_8  and  O1_10 
REMARK    5  A    between atoms: N3_12  and  C5_14 
ROOT
HETATM    1  N1  UNL     1     -45.352   4.460  35.570  1.00  0.00    -0.224 N 
ATOM      2  H1  UNL     1     -45.401   4.758  36.544  1.00  0.00     0.177 HD
HETATM    3  C4  UNL     1     -45.156   5.440  34.560  1.00  0.00     0.694 C 
HETATM    4  N2  UNL     1     -44.362   6.393  34.857  1.00  0.00    -0.099 N 
ATOM      5  H2  UNL     1     -44.189   7.120  34.163  1.00  0.00     0.213 HD
HETATM    6  N3  UNL     1     -45.830   5.317  33.313  1.00  0.00    -0.219 N 
ATOM      7  H3  UNL     1     -46.721   4.821  33.328  1.00  0.00     0.178 HD
ENDROOT
BRANCH   6   8
HETATM    8  C5  UNL     1     -45.406   5.804  32.057  1.00  0.00     0.107 C 
HETATM    9  C6  UNL     1     -44.545   4.758  31.386  1.00  0.00     0.010 C 
HETATM   10  C7  UNL     1     -43.884   5.238  30.130  1.00  0.00     0.011 C 
HETATM   11  C11 UNL     1     -45.448   3.591  31.023  1.00  0.00     0.011 C 
HETATM   12  C8  UNL     1     -44.935   5.724  29.173  1.00  0.00    -0.013 C 
HETATM   13  C9  UNL     1     -45.815   4.588  28.758  1.00  0.00     0.009 C 
HETATM   14  C14 UNL     1     -45.742   6.772  29.862  1.00  0.00     0.011 C 
HETATM   15  C10 UNL     1     -46.457   4.001  29.996  1.00  0.00    -0.013 C 
HETATM   16  C12 UNL     1     -47.320   5.087  30.606  1.00  0.00     0.011 C 
HETATM   17  C13 UNL     1     -46.464   6.215  31.092  1.00  0.00     0.010 C 
ENDBRANCH   6   8
BRANCH   1  18
HETATM   18  C3  UNL     1     -45.484   3.054  35.265  1.00  0.00     0.148 C 
BRANCH  18  19
HETATM   19  C2  UNL     1     -44.130   2.534  34.809  1.00  0.00     0.093 C 
BRANCH  19  20
HETATM   20  S1  UNL     1     -43.912   0.785  35.150  1.00  0.00    -0.172 SA
HETATM   21  C1  UNL     1     -45.334   0.158  36.057  1.00  0.00     0.089 C 
ENDBRANCH  19  20
ENDBRANCH  18  19
ENDBRANCH   1  18
BRANCH   4  22
HETATM   22  O1  UNL     1     -43.733   6.477  36.065  1.00  0.00    -0.276 OA
ATOM     23  H1  UNL     1     -44.145   6.207  36.878  1.00  0.00     0.245 HD
ENDBRANCH   4  22
TORSDOF 5
ENDMDL
MODEL 2
REMARK VINA RESULT: -7.040476261      2.041      2.497
REMARK  5 active torsions:
REMARK  status: ('A' for Active; 'I' for Inactive)
REMARK    1  A    between atoms: S1_2  and  C2_3 
REMARK    2  A    between atoms: C2_3  and  C3_4 
REMARK    3  A    between atoms: C3_4  and  N1_5 
REMARK       I    between atoms: N1_5  and  C4_7 
REMARK       I    between atoms: C4_7  and  N3_12 
REMARK    4  A    between atoms: N2_8  and  O1_10 
REMARK    5  A    between atoms: N3_12  and  C5_14 
ROOT
HETATM    1  N1  UNL     1     -46.069   7.545  35.184  1.00  0.00    -0.224 N 
ATOM      2  H1  UNL     1     -46.703   8.120  35.738  1.00  0.00     0.177 HD
HETATM    3  C4  UNL     1     -46.114   7.643  33.766  1.00  0.00     0.694 C 
HETATM    4  N2  UNL     1     -46.308   8.813  33.297  1.00  0.00    -0.099 N 
ATOM      5  H2  UNL     1     -46.347   8.934  32.285  1.00  0.00     0.213 HD
HETATM    6  N3  UNL     1     -45.948   6.477  32.969  1.00  0.00    -0.219 N 
ATOM      7  H3  UNL     1     -46.233   5.595  33.394  1.00  0.00     0.178 HD
ENDROOT
BRANCH   6   8
HETATM    8  C5  UNL     1     -45.432   6.401  31.657  1.00  0.00     0.107 C 
HETATM    9  C6  UNL     1     -44.558   5.172  31.540  1.00  0.00     0.010 C 
HETATM   10  C7  UNL     1     -43.805   5.091  30.246  1.00  0.00     0.011 C 
HETATM   11  C11 UNL     1     -45.467   3.958  31.630  1.00  0.00     0.011 C 
HETATM   12  C8  UNL     1     -44.780   5.135  29.104  1.00  0.00    -0.013 C 
HETATM   13  C9  UNL     1     -45.662   3.927  29.135  1.00  0.00     0.009 C 
HETATM   14  C14 UNL     1     -45.601   6.372  29.241  1.00  0.00     0.011 C 
HETATM   15  C10 UNL     1     -46.397   3.904  30.458  1.00  0.00    -0.013 C 
HETATM   16  C12 UNL     1     -47.268   5.143  30.504  1.00  0.00     0.011 C 
HETATM   17  C13 UNL     1     -46.415   6.374  30.538  1.00  0.00     0.010 C 
ENDBRANCH   6   8
BRANCH   1  18
HETATM   18  C3  UNL     1     -45.155   6.659  35.866  1.00  0.00     0.148 C 
BRANCH  18  19
HETATM   19  C2  UNL     1     -45.957   5.776  36.808  1.00  0.00     0.093 C 
BRANCH  19  20
HETATM   20  S1  UNL     1     -46.036   4.070  36.256  1.00  0.00    -0.172 SA
HETATM   21  C1  UNL     1     -44.659   3.722  35.151  1.00  0.00     0.089 C 
ENDBRANCH  19  20
ENDBRANCH  18  19
ENDBRANCH   1  18
BRANCH   4  22
HETATM   22  O1  UNL     1     -46.464   9.910  34.094  1.00  0.00    -0.276 OA
ATOM     23  H1  UNL     1     -47.069   9.931  34.825  1.00  0.00     0.245 HD
ENDBRANCH   4  22
TORSDOF 5
ENDMDL
MODEL 3
REMARK VINA RESULT: -7.005489496      1.157      1.827
REMARK  5 active torsions:
REMARK  status: ('A' for Active; 'I' for Inactive)
REMARK    1  A    between atoms: S1_2  and  C2_3 
REMARK    2  A    between atoms: C2_3  and  C3_4 
REMARK    3  A    between atoms: C3_4  and  N1_5 
REMARK       I    between atoms: N1_5  and  C4_7 
REMARK       I    between atoms: C4_7  and  N3_12 
REMARK    4  A    between atoms: N2_8  and  O1_10 
REMARK    5  A    between atoms: N3_12  and  C5_14 
ROOT
HETATM    1  N1  UNL     1     -45.787   3.120  35.230  1.00  0.00    -0.224 N 
ATOM      2  H1  UNL     1     -46.022   3.564  36.117  1.00  0.00     0.177 HD
HETATM    3  C4  UNL     1     -45.365   3.934  34.144  1.00  0.00     0.694 C 
HETATM    4  N2  UNL     1     -44.619   4.923  34.450  1.00  0.00    -0.099 N 
ATOM      5  H2  UNL     1     -44.290   5.536  33.704  1.00  0.00     0.213 HD
HETATM    6  N3  UNL     1     -45.777   3.620  32.820  1.00  0.00    -0.219 N 
ATOM      7  H3  UNL     1     -46.667   3.130  32.728  1.00  0.00     0.178 HD
ENDROOT
BRANCH   6   8
HETATM    8  C5  UNL     1     -45.096   3.909  31.617  1.00  0.00     0.107 C 
HETATM    9  C6  UNL     1     -46.041   3.712  30.453  1.00  0.00     0.010 C 
HETATM   10  C7  UNL     1     -45.374   3.808  29.115  1.00  0.00     0.011 C 
HETATM   11  C11 UNL     1     -47.093   4.806  30.532  1.00  0.00     0.011 C 
HETATM   12  C8  UNL     1     -44.691   5.141  28.997  1.00  0.00    -0.013 C 
HETATM   13  C9  UNL     1     -45.704   6.240  29.024  1.00  0.00     0.009 C 
HETATM   14  C14 UNL     1     -43.750   5.284  30.146  1.00  0.00     0.011 C 
HETATM   15  C10 UNL     1     -46.473   6.152  30.324  1.00  0.00    -0.013 C 
HETATM   16  C12 UNL     1     -45.480   6.381  31.444  1.00  0.00     0.011 C 
HETATM   17  C13 UNL     1     -44.485   5.262  31.488  1.00  0.00     0.010 C 
ENDBRANCH   6   8
BRANCH   1  18
HETATM   18  C3  UNL     1     -45.895   1.684  35.119  1.00  0.00     0.148 C 
BRANCH  18  19
HETATM   19  C2  UNL     1     -44.492   1.102  35.051  1.00  0.00     0.093 C 
BRANCH  19  20
HETATM   20  S1  UNL     1     -44.289  -0.339  36.102  1.00  0.00    -0.172 SA
HETATM   21  C1  UNL     1     -45.680  -0.466  37.237  1.00  0.00     0.089 C 
ENDBRANCH  19  20
ENDBRANCH  18  19
ENDBRANCH   1  18
BRANCH   4  22
HETATM   22  O1  UNL     1     -44.244   5.194  35.734  1.00  0.00    -0.276 OA
ATOM     23  H1  UNL     1     -44.850   5.154  36.464  1.00  0.00     0.245 HD
ENDBRANCH   4  22
TORSDOF 5
ENDMDL
MODEL 4
REMARK VINA RESULT: -6.936470353      2.891      3.425
REMARK  5 active torsions:
REMARK  status: ('A' for Active; 'I' for Inactive)
REMARK    1  A    between atoms: S1_2  and  C2_3 
REMARK    2  A    between atoms: C2_3  and  C3_4 
REMARK    3  A    between atoms: C3_4  and  N1_5 
REMARK       I    between atoms: N1_5  and  C4_7 
REMARK       I    between atoms: C4_7  and  N3_12 
REMARK    4  A    between atoms: N2_8  and  O1_10 
REMARK    5  A    between atoms: N3_12  and  C5_14 
ROOT
HETATM    1  N1  UNL     1     -46.542   7.505  35.096  1.00  0.00    -0.224 N 
ATOM      2  H1  UNL     1     -47.114   8.177  35.606  1.00  0.00     0.177 HD
HETATM    3  C4  UNL     1     -46.386   7.660  33.692  1.00  0.00     0.694 C 
HETATM    4  N2  UNL     1     -46.283   8.861  33.274  1.00  0.00    -0.099 N 
ATOM      5  H2  UNL     1     -46.169   9.023  32.274  1.00  0.00     0.213 HD
HETATM    6  N3  UNL     1     -46.355   6.513  32.851  1.00  0.00    -0.219 N 
ATOM      7  H3  UNL     1     -46.862   5.694  33.185  1.00  0.00     0.178 HD
ENDROOT
BRANCH   6   8
HETATM    8  C5  UNL     1     -45.702   6.380  31.606  1.00  0.00     0.107 C 
HETATM    9  C6  UNL     1     -44.705   5.246  31.689  1.00  0.00     0.010 C 
HETATM   10  C7  UNL     1     -43.820   5.134  30.485  1.00  0.00     0.011 C 
HETATM   11  C11 UNL     1     -45.496   3.953  31.811  1.00  0.00     0.011 C 
HETATM   12  C8  UNL     1     -44.672   4.975  29.258  1.00  0.00    -0.013 C 
HETATM   13  C9  UNL     1     -45.430   3.687  29.324  1.00  0.00     0.009 C 
HETATM   14  C14 UNL     1     -45.620   6.125  29.199  1.00  0.00     0.011 C 
HETATM   15  C10 UNL     1     -46.291   3.700  30.568  1.00  0.00    -0.013 C 
HETATM   16  C12 UNL     1     -47.279   4.838  30.413  1.00  0.00     0.011 C 
HETATM   17  C13 UNL     1     -46.558   6.151  30.408  1.00  0.00     0.010 C 
ENDBRANCH   6   8
BRANCH   1  18
HETATM   18  C3  UNL     1     -45.916   6.427  35.826  1.00  0.00     0.148 C 
BRANCH  18  19
HETATM   19  C2  UNL     1     -44.425   6.449  35.529  1.00  0.00     0.093 C 
BRANCH  19  20
HETATM   20  S1  UNL     1     -43.618   7.926  36.151  1.00  0.00    -0.172 SA
HETATM   21  C1  UNL     1     -42.808   8.795  34.798  1.00  0.00     0.089 C 
ENDBRANCH  19  20
ENDBRANCH  18  19
ENDBRANCH   1  18
BRANCH   4  22
HETATM   22  O1  UNL     1     -46.318   9.937  34.112  1.00  0.00    -0.276 OA
ATOM     23  H1  UNL     1     -46.187   9.862  35.050  1.00  0.00     0.245 HD
ENDBRANCH   4  22
TORSDOF 5
ENDMDL
MODEL 5
REMARK VINA RESULT: -6.847812242      1.723      2.004
REMARK  5 active torsions:
REMARK  status: ('A' for Active; 'I' for Inactive)
REMARK    1  A    between atoms: S1_2  and  C2_3 
REMARK    2  A    between atoms: C2_3  and  C3_4 
REMARK    3  A    between atoms: C3_4  and  N1_5 
REMARK       I    between atoms: N1_5  and  C4_7 
REMARK       I    between atoms: C4_7  and  N3_12 
REMARK    4  A    between atoms: N2_8  and  O1_10 
REMARK    5  A    between atoms: N3_12  and  C5_14 
ROOT
HETATM    1  N1  UNL     1     -45.127   4.989  35.854  1.00  0.00    -0.224 N 
ATOM      2  H1  UNL     1     -45.122   5.360  36.804  1.00  0.00     0.177 HD
HETATM    3  C4  UNL     1     -44.883   5.874  34.769  1.00  0.00     0.694 C 
HETATM    4  N2  UNL     1     -44.006   6.776  34.975  1.00  0.00    -0.099 N 
ATOM      5  H2  UNL     1     -43.796   7.435  34.225  1.00  0.00     0.213 HD
HETATM    6  N3  UNL     1     -45.603   5.718  33.551  1.00  0.00    -0.219 N 
ATOM      7  H3  UNL     1     -46.530   5.300  33.625  1.00  0.00     0.178 HD
ENDROOT
BRANCH   6   8
HETATM    8  C5  UNL     1     -45.180   6.076  32.253  1.00  0.00     0.107 C 
HETATM    9  C6  UNL     1     -44.469   4.900  31.622  1.00  0.00     0.010 C 
HETATM   10  C7  UNL     1     -43.811   5.224  30.316  1.00  0.00     0.011 C 
HETATM   11  C11 UNL     1     -45.511   3.823  31.367  1.00  0.00     0.011 C 
HETATM   12  C8  UNL     1     -44.840   5.768  29.365  1.00  0.00    -0.013 C 
HETATM   13  C9  UNL     1     -45.858   4.717  29.056  1.00  0.00     0.009 C 
HETATM   14  C14 UNL     1     -45.496   6.941  30.013  1.00  0.00     0.011 C 
HETATM   15  C10 UNL     1     -46.509   4.283  30.350  1.00  0.00    -0.013 C 
HETATM   16  C12 UNL     1     -47.220   5.495  30.918  1.00  0.00     0.011 C 
HETATM   17  C13 UNL     1     -46.224   6.546  31.300  1.00  0.00     0.010 C 
ENDBRANCH   6   8
BRANCH   1  18
HETATM   18  C3  UNL     1     -45.381   3.581  35.657  1.00  0.00     0.148 C 
BRANCH  18  19
HETATM   19  C2  UNL     1     -46.545   3.175  36.547  1.00  0.00     0.093 C 
BRANCH  19  20
HETATM   20  S1  UNL     1     -47.519   4.580  37.094  1.00  0.00    -0.172 SA
HETATM   21  C1  UNL     1     -49.263   4.135  37.133  1.00  0.00     0.089 C 
ENDBRANCH  19  20
ENDBRANCH  18  19
ENDBRANCH   1  18
BRANCH   4  22
HETATM   22  O1  UNL     1     -43.335   6.895  36.158  1.00  0.00    -0.276 OA
ATOM     23  H1  UNL     1     -42.396   7.025  36.204  1.00  0.00     0.245 HD
ENDBRANCH   4  22
TORSDOF 5
ENDMDL
