MODEL 1
REMARK VINA RESULT: -7.118049501      0.000      0.000
REMARK  6 active torsions:
REMARK  status: ('A' for Active; 'I' for Inactive)
REMARK    1  A    between atoms: C2_2  and  C3_3 
REMARK    2  A    between atoms: C6_8  and  N2_9 
REMARK    3  A    between atoms: C7_14  and  N4_15 
REMARK    4  A    between atoms: N4_15  and  C8_17 
REMARK    5  A    between atoms: C8_17  and  C9_18 
REMARK    6  A    between atoms: C8_17  and  C11_20 
ROOT
HETATM    1  C3  UNL     1     -49.075   1.202  39.689  1.00  0.00     0.009 A 
HETATM    2  C4  UNL     1     -50.370   1.544  39.991  1.00  0.00     0.032 A 
HETATM    3  C5  UNL     1     -50.777   1.918  41.387  1.00  0.00     0.069 C 
HETATM    4  N1  UNL     1     -51.305   1.553  39.037  1.00  0.00    -0.196 N 
ATOM      5  H1  UNL     1     -52.267   1.806  39.260  1.00  0.00     0.184 HD
HETATM    6  C6  UNL     1     -50.966   1.225  37.785  1.00  0.00     0.677 A 
HETATM    7  N3  UNL     1     -49.672   0.883  37.479  1.00  0.00    -0.177 N 
ATOM      8  H3  UNL     1     -49.449   0.639  36.514  1.00  0.00     0.186 HD
HETATM    9  C7  UNL     1     -48.690   0.853  38.385  1.00  0.00     0.125 A 
ENDROOT
BRANCH   9  10
HETATM   10  N4  UNL     1     -47.510   0.546  38.127  1.00  0.00    -0.370 N 
ATOM     11  H4  UNL     1     -46.910   1.371  38.126  1.00  0.00     0.161 HD
BRANCH  10  12
HETATM   12  C8  UNL     1     -46.774  -0.608  37.839  1.00  0.00     0.086 C 
BRANCH  12  13
HETATM   13  C9  UNL     1     -47.584  -1.864  37.788  1.00  0.00     0.021 C 
HETATM   14  C10 UNL     1     -47.935  -2.244  36.342  1.00  0.00     0.007 C 
ENDBRANCH  12  13
BRANCH  12  15
HETATM   15  C11 UNL     1     -45.874  -0.480  36.630  1.00  0.00     0.008 C 
HETATM   16  C12 UNL     1     -45.946   0.981  36.182  1.00  0.00     0.007 C 
HETATM   17  C13 UNL     1     -45.103   1.287  34.999  1.00  0.00     0.000 C 
HETATM   18  C14 UNL     1     -43.709   0.715  35.086  1.00  0.00     0.000 C 
HETATM   19  C15 UNL     1     -43.726  -0.732  35.528  1.00  0.00     0.000 C 
HETATM   20  C16 UNL     1     -44.413  -0.734  36.910  1.00  0.00     0.007 C 
ENDBRANCH  12  15
ENDBRANCH  10  12
ENDBRANCH   9  10
BRANCH   1  21
HETATM   21  C2  UNL     1     -48.071   1.202  40.761  1.00  0.00     0.040 C 
HETATM   22  C1  UNL     1     -48.006  -0.180  41.365  1.00  0.00     0.010 C 
ENDBRANCH   1  21
BRANCH   6  23
HETATM   23  N2  UNL     1     -51.873   1.230  36.839  1.00  0.00    -0.234 N 
ATOM     24  H22 UNL     1     -52.126   2.109  36.390  1.00  0.00     0.174 HD
ATOM     25  H21 UNL     1     -52.319   0.357  36.558  1.00  0.00     0.174 HD
ENDBRANCH   6  23
TORSDOF 6
ENDMDL
MODEL 2
REMARK VINA RESULT: -7.113044909      5.497      8.668
REMARK  6 active torsions:
REMARK  status: ('A' for Active; 'I' for Inactive)
REMARK    1  A    between atoms: C2_2  and  C3_3 
REMARK    2  A    between atoms: C6_8  and  N2_9 
REMARK    3  A    between atoms: C7_14  and  N4_15 
REMARK    4  A    between atoms: N4_15  and  C8_17 
REMARK    5  A    between atoms: C8_17  and  C9_18 
REMARK    6  A    between atoms: C8_17  and  C11_20 
ROOT
HETATM    1  C3  UNL     1     -45.115   4.777  30.495  1.00  0.00     0.009 A 
HETATM    2  C4  UNL     1     -45.296   4.447  29.174  1.00  0.00     0.032 A 
HETATM    3  C5  UNL     1     -44.717   5.285  28.071  1.00  0.00     0.069 C 
HETATM    4  N1  UNL     1     -45.998   3.360  28.842  1.00  0.00    -0.196 N 
ATOM      5  H1  UNL     1     -46.132   3.115  27.861  1.00  0.00     0.184 HD
HETATM    6  C6  UNL     1     -46.521   2.598  29.807  1.00  0.00     0.677 A 
HETATM    7  N3  UNL     1     -46.343   2.925  31.129  1.00  0.00    -0.177 N 
ATOM      8  H3  UNL     1     -46.757   2.320  31.838  1.00  0.00     0.186 HD
HETATM    9  C7  UNL     1     -45.654   3.996  31.530  1.00  0.00     0.125 A 
ENDROOT
BRANCH   9  10
HETATM   10  N4  UNL     1     -45.480   4.309  32.724  1.00  0.00    -0.370 N 
ATOM     11  H4  UNL     1     -46.066   5.103  32.982  1.00  0.00     0.161 HD
BRANCH  10  12
HETATM   12  C8  UNL     1     -44.710   3.880  33.810  1.00  0.00     0.086 C 
BRANCH  12  13
HETATM   13  C9  UNL     1     -44.678   4.833  34.962  1.00  0.00     0.021 C 
HETATM   14  C10 UNL     1     -44.667   6.291  34.479  1.00  0.00     0.007 C 
ENDBRANCH  12  13
BRANCH  12  15
HETATM   15  C11 UNL     1     -45.016   2.471  34.266  1.00  0.00     0.008 C 
HETATM   16  C12 UNL     1     -43.685   1.847  34.689  1.00  0.00     0.007 C 
HETATM   17  C13 UNL     1     -43.806   0.451  35.179  1.00  0.00     0.000 C 
HETATM   18  C14 UNL     1     -44.943   0.248  36.151  1.00  0.00     0.000 C 
HETATM   19  C15 UNL     1     -46.222   0.888  35.656  1.00  0.00     0.000 C 
HETATM   20  C16 UNL     1     -45.896   2.388  35.490  1.00  0.00     0.007 C 
ENDBRANCH  12  15
ENDBRANCH  10  12
ENDBRANCH   9  10
BRANCH   1  21
HETATM   21  C2  UNL     1     -44.339   5.978  30.828  1.00  0.00     0.040 C 
HETATM   22  C1  UNL     1     -45.270   7.167  30.849  1.00  0.00     0.010 C 
ENDBRANCH   1  21
BRANCH   6  23
HETATM   23  N2  UNL     1     -47.212   1.529  29.494  1.00  0.00    -0.234 N 
ATOM     24  H22 UNL     1     -46.763   0.776  28.973  1.00  0.00     0.174 HD
ATOM     25  H21 UNL     1     -48.191   1.455  29.772  1.00  0.00     0.174 HD
ENDBRANCH   6  23
TORSDOF 6
ENDMDL
MODEL 3
REMARK VINA RESULT: -6.974478918      7.322      9.058
REMARK  6 active torsions:
REMARK  status: ('A' for Active; 'I' for Inactive)
REMARK    1  A    between atoms: C2_2  and  C3_3 
REMARK    2  A    between atoms: C6_8  and  N2_9 
REMARK    3  A    between atoms: C7_14  and  N4_15 
REMARK    4  A    between atoms: N4_15  and  C8_17 
REMARK    5  A    between atoms: C8_17  and  C9_18 
REMARK    6  A    between atoms: C8_17  and  C11_20 
ROOT
HETATM    1  C3  UNL     1     -45.418   7.030  33.358  1.00  0.00     0.009 A 
HETATM    2  C4  UNL     1     -45.575   7.940  34.374  1.00  0.00     0.032 A 
HETATM    3  C5  UNL     1     -44.684   9.142  34.494  1.00  0.00     0.069 C 
HETATM    4  N1  UNL     1     -46.536   7.772  35.287  1.00  0.00    -0.196 N 
ATOM      5  H1  UNL     1     -46.653   8.447  36.042  1.00  0.00     0.184 HD
HETATM    6  C6  UNL     1     -47.343   6.709  35.200  1.00  0.00     0.677 A 
HETATM    7  N3  UNL     1     -47.189   5.797  34.185  1.00  0.00    -0.177 N 
ATOM      8  H3  UNL     1     -47.823   4.999  34.150  1.00  0.00     0.186 HD
HETATM    9  C7  UNL     1     -46.250   5.904  33.242  1.00  0.00     0.125 A 
ENDROOT
BRANCH   9  10
HETATM   10  N4  UNL     1     -46.095   5.088  32.313  1.00  0.00    -0.370 N 
ATOM     11  H4  UNL     1     -45.254   4.528  32.455  1.00  0.00     0.161 HD
BRANCH  10  12
HETATM   12  C8  UNL     1     -46.747   4.720  31.131  1.00  0.00     0.086 C 
BRANCH  12  13
HETATM   13  C9  UNL     1     -47.761   5.707  30.649  1.00  0.00     0.021 C 
HETATM   14  C10 UNL     1     -49.190   5.177  30.837  1.00  0.00     0.007 C 
ENDBRANCH  12  13
BRANCH  12  15
HETATM   15  C11 UNL     1     -45.814   4.296  30.019  1.00  0.00     0.008 C 
HETATM   16  C12 UNL     1     -46.515   3.162  29.267  1.00  0.00     0.007 C 
HETATM   17  C13 UNL     1     -45.733   2.629  28.124  1.00  0.00     0.000 C 
HETATM   18  C14 UNL     1     -45.136   3.702  27.246  1.00  0.00     0.000 C 
HETATM   19  C15 UNL     1     -44.457   4.779  28.065  1.00  0.00     0.000 C 
HETATM   20  C16 UNL     1     -45.558   5.359  28.979  1.00  0.00     0.007 C 
ENDBRANCH  12  15
ENDBRANCH  10  12
ENDBRANCH   9  10
BRANCH   1  21
HETATM   21  C2  UNL     1     -44.352   7.243  32.371  1.00  0.00     0.040 C 
HETATM   22  C1  UNL     1     -44.905   8.059  31.227  1.00  0.00     0.010 C 
ENDBRANCH   1  21
BRANCH   6  23
HETATM   23  N2  UNL     1     -48.290   6.533  36.089  1.00  0.00    -0.234 N 
ATOM     24  H22 UNL     1     -49.087   7.167  36.106  1.00  0.00     0.174 HD
ATOM     25  H21 UNL     1     -48.225   5.764  36.756  1.00  0.00     0.174 HD
ENDBRANCH   6  23
TORSDOF 6
ENDMDL
MODEL 4
REMARK VINA RESULT: -6.911902568      6.192      8.737
REMARK  6 active torsions:
REMARK  status: ('A' for Active; 'I' for Inactive)
REMARK    1  A    between atoms: C2_2  and  C3_3 
REMARK    2  A    between atoms: C6_8  and  N2_9 
REMARK    3  A    between atoms: C7_14  and  N4_15 
REMARK    4  A    between atoms: N4_15  and  C8_17 
REMARK    5  A    between atoms: C8_17  and  C9_18 
REMARK    6  A    between atoms: C8_17  and  C11_20 
ROOT
HETATM    1  C3  UNL     1     -45.820   5.596  34.266  1.00  0.00     0.009 A 
HETATM    2  C4  UNL     1     -45.861   4.893  35.444  1.00  0.00     0.032 A 
HETATM    3  C5  UNL     1     -46.738   5.323  36.584  1.00  0.00     0.069 C 
HETATM    4  N1  UNL     1     -45.111   3.798  35.601  1.00  0.00    -0.196 N 
ATOM      5  H1  UNL     1     -45.141   3.276  36.477  1.00  0.00     0.184 HD
HETATM    6  C6  UNL     1     -44.322   3.395  34.600  1.00  0.00     0.677 A 
HETATM    7  N3  UNL     1     -44.279   4.096  33.420  1.00  0.00    -0.177 N 
ATOM      8  H3  UNL     1     -43.666   3.759  32.678  1.00  0.00     0.186 HD
HETATM    9  C7  UNL     1     -45.001   5.197  33.197  1.00  0.00     0.125 A 
ENDROOT
BRANCH   9  10
HETATM   10  N4  UNL     1     -44.976   5.846  32.134  1.00  0.00    -0.370 N 
ATOM     11  H4  UNL     1     -44.228   6.539  32.145  1.00  0.00     0.161 HD
BRANCH  10  12
HETATM   12  C8  UNL     1     -45.683   5.894  30.927  1.00  0.00     0.086 C 
BRANCH  12  13
HETATM   13  C9  UNL     1     -45.696   7.236  30.269  1.00  0.00     0.021 C 
HETATM   14  C10 UNL     1     -44.651   8.174  30.893  1.00  0.00     0.007 C 
ENDBRANCH  12  13
BRANCH  12  15
HETATM   15  C11 UNL     1     -45.312   4.801  29.951  1.00  0.00     0.008 C 
HETATM   16  C12 UNL     1     -46.399   3.730  30.056  1.00  0.00     0.007 C 
HETATM   17  C13 UNL     1     -46.193   2.575  29.146  1.00  0.00     0.000 C 
HETATM   18  C14 UNL     1     -45.825   2.974  27.737  1.00  0.00     0.000 C 
HETATM   19  C15 UNL     1     -44.741   4.030  27.721  1.00  0.00     0.000 C 
HETATM   20  C16 UNL     1     -45.319   5.229  28.503  1.00  0.00     0.007 C 
ENDBRANCH  12  15
ENDBRANCH  10  12
ENDBRANCH   9  10
BRANCH   1  21
HETATM   21  C2  UNL     1     -46.656   6.796  34.124  1.00  0.00     0.040 C 
HETATM   22  C1  UNL     1     -45.833   8.006  34.494  1.00  0.00     0.010 C 
ENDBRANCH   1  21
BRANCH   6  23
HETATM   23  N2  UNL     1     -43.582   2.322  34.742  1.00  0.00    -0.234 N 
ATOM     24  H22 UNL     1     -43.617   1.800  35.617  1.00  0.00     0.174 HD
ATOM     25  H21 UNL     1     -42.978   2.017  33.979  1.00  0.00     0.174 HD
ENDBRANCH   6  23
TORSDOF 6
ENDMDL
MODEL 5
REMARK VINA RESULT: -6.896714606      6.267      8.647
REMARK  6 active torsions:
REMARK  status: ('A' for Active; 'I' for Inactive)
REMARK    1  A    between atoms: C2_2  and  C3_3 
REMARK    2  A    between atoms: C6_8  and  N2_9 
REMARK    3  A    between atoms: C7_14  and  N4_15 
REMARK    4  A    between atoms: N4_15  and  C8_17 
REMARK    5  A    between atoms: C8_17  and  C9_18 
REMARK    6  A    between atoms: C8_17  and  C11_20 
ROOT
HETATM    1  C3  UNL     1     -46.128   5.721  34.360  1.00  0.00     0.009 A 
HETATM    2  C4  UNL     1     -45.550   5.400  35.563  1.00  0.00     0.032 A 
HETATM    3  C5  UNL     1     -45.828   6.199  36.804  1.00  0.00     0.069 C 
HETATM    4  N1  UNL     1     -44.719   4.358  35.655  1.00  0.00    -0.196 N 
ATOM      5  H1  UNL     1     -44.289   4.120  36.548  1.00  0.00     0.184 HD
HETATM    6  C6  UNL     1     -44.457   3.631  34.564  1.00  0.00     0.677 A 
HETATM    7  N3  UNL     1     -45.033   3.949  33.358  1.00  0.00    -0.177 N 
ATOM      8  H3  UNL     1     -44.810   3.373  32.547  1.00  0.00     0.186 HD
HETATM    9  C7  UNL     1     -45.870   4.977  33.197  1.00  0.00     0.125 A 
ENDROOT
BRANCH   9  10
HETATM   10  N4  UNL     1     -46.404   5.281  32.113  1.00  0.00    -0.370 N 
ATOM     11  H4  UNL     1     -47.407   5.099  32.135  1.00  0.00     0.161 HD
BRANCH  10  12
HETATM   12  C8  UNL     1     -46.018   5.801  30.872  1.00  0.00     0.086 C 
BRANCH  12  13
HETATM   13  C9  UNL     1     -44.638   6.375  30.842  1.00  0.00     0.021 C 
HETATM   14  C10 UNL     1     -44.674   7.909  30.780  1.00  0.00     0.007 C 
ENDBRANCH  12  13
BRANCH  12  15
HETATM   15  C11 UNL     1     -46.253   4.863  29.710  1.00  0.00     0.008 C 
HETATM   16  C12 UNL     1     -44.990   4.907  28.848  1.00  0.00     0.007 C 
HETATM   17  C13 UNL     1     -45.048   4.024  27.655  1.00  0.00     0.000 C 
HETATM   18  C14 UNL     1     -45.568   2.639  27.953  1.00  0.00     0.000 C 
HETATM   19  C15 UNL     1     -46.820   2.683  28.803  1.00  0.00     0.000 C 
HETATM   20  C16 UNL     1     -46.412   3.413  30.101  1.00  0.00     0.007 C 
ENDBRANCH  12  15
ENDBRANCH  10  12
ENDBRANCH   9  10
BRANCH   1  21
HETATM   21  C2  UNL     1     -47.036   6.873  34.292  1.00  0.00     0.040 C 
HETATM   22  C1  UNL     1     -46.224   8.116  34.015  1.00  0.00     0.010 C 
ENDBRANCH   1  21
BRANCH   6  23
HETATM   23  N2  UNL     1     -43.644   2.606  34.640  1.00  0.00    -0.234 N 
ATOM     24  H22 UNL     1     -43.598   2.065  35.503  1.00  0.00     0.174 HD
ATOM     25  H21 UNL     1     -43.064   2.356  33.839  1.00  0.00     0.174 HD
ENDBRANCH   6  23
TORSDOF 6
ENDMDL
