MODEL 1
REMARK VINA RESULT: -7.351362808      0.000      0.000
REMARK  2 active torsions:
REMARK  status: ('A' for Active; 'I' for Inactive)
REMARK    1  A    between atoms: O1_2  and  C2_3 
REMARK    2  A    between atoms: N4_15  and  N5_17 
ROOT
HETATM    1  C2  UNL     1     -13.063 -27.496 -26.740  1.00  0.00     0.192 C 
HETATM    2  N1  UNL     1     -12.647 -27.569 -28.031  1.00  0.00    -0.286 N 
ATOM      3  H1  UNL     1     -13.078 -26.940 -28.709  1.00  0.00     0.172 HD
HETATM    4  C3  UNL     1     -11.689 -28.431 -28.481  1.00  0.00     0.330 C 
HETATM    5  O2  UNL     1     -11.699 -28.702 -29.709  1.00  0.00    -0.246 OA
HETATM    6  N2  UNL     1     -10.719 -29.039 -27.774  1.00  0.00    -0.260 N 
ATOM      7  H2  UNL     1     -10.041 -29.553 -28.337  1.00  0.00     0.175 HD
HETATM    8  C4  UNL     1     -10.491 -29.082 -26.429  1.00  0.00     0.329 C 
HETATM    9  O3  UNL     1      -9.461 -29.661 -26.023  1.00  0.00    -0.246 OA
HETATM   10  N3  UNL     1     -11.251 -28.568 -25.448  1.00  0.00    -0.290 N 
ATOM     11  H3  UNL     1     -11.016 -28.838 -24.492  1.00  0.00     0.172 HD
HETATM   12  C5  UNL     1     -12.310 -27.719 -25.607  1.00  0.00     0.175 C 
HETATM   13  N4  UNL     1     -12.620 -27.058 -24.546  1.00  0.00    -0.288 N 
ATOM     14  H4  UNL     1     -12.098 -27.181 -23.678  1.00  0.00     0.188 HD
ENDROOT
BRANCH   1  15
HETATM   15  O1  UNL     1     -14.374 -27.163 -26.483  1.00  0.00    -0.338 OA
HETATM   16  C1  UNL     1     -15.486 -27.879 -26.975  1.00  0.00     0.211 C 
ENDBRANCH   1  15
BRANCH  13  17
HETATM   17  N5  UNL     1     -13.691 -26.167 -24.621  1.00  0.00    -0.344 N 
ATOM     18  H52 UNL     1     -13.538 -25.207 -24.930  1.00  0.00     0.176 HD
ATOM     19  H51 UNL     1     -14.616 -26.509 -24.360  1.00  0.00     0.176 HD
ENDBRANCH  13  17
TORSDOF 2
ENDMDL
MODEL 2
REMARK VINA RESULT: -6.784340809      1.811      3.886
REMARK  2 active torsions:
REMARK  status: ('A' for Active; 'I' for Inactive)
REMARK    1  A    between atoms: O1_2  and  C2_3 
REMARK    2  A    between atoms: N4_15  and  N5_17 
ROOT
HETATM    1  C2  UNL     1     -12.053 -28.430 -26.467  1.00  0.00     0.192 C 
HETATM    2  N1  UNL     1     -13.229 -29.102 -26.568  1.00  0.00    -0.286 N 
ATOM      3  H1  UNL     1     -13.225 -30.000 -27.053  1.00  0.00     0.172 HD
HETATM    4  C3  UNL     1     -14.415 -28.654 -26.063  1.00  0.00     0.330 C 
HETATM    5  O2  UNL     1     -15.464 -29.125 -26.573  1.00  0.00    -0.246 OA
HETATM    6  N2  UNL     1     -14.615 -27.762 -25.075  1.00  0.00    -0.260 N 
ATOM      7  H2  UNL     1     -15.587 -27.663 -24.783  1.00  0.00     0.175 HD
HETATM    8  C4  UNL     1     -13.734 -26.969 -24.400  1.00  0.00     0.329 C 
HETATM    9  O3  UNL     1     -14.167 -26.272 -23.459  1.00  0.00    -0.246 OA
HETATM   10  N3  UNL     1     -12.415 -26.832 -24.618  1.00  0.00    -0.290 N 
ATOM     11  H3  UNL     1     -11.943 -26.071 -24.127  1.00  0.00     0.172 HD
HETATM   12  C5  UNL     1     -11.645 -27.612 -25.434  1.00  0.00     0.175 C 
HETATM   13  N4  UNL     1     -10.383 -27.555 -25.182  1.00  0.00    -0.288 N 
ATOM     14  H4  UNL     1     -10.023 -26.968 -24.429  1.00  0.00     0.188 HD
ENDROOT
BRANCH   1  15
HETATM   15  O1  UNL     1     -11.132 -28.546 -27.483  1.00  0.00    -0.338 OA
HETATM   16  C1  UNL     1     -11.443 -28.424 -28.855  1.00  0.00     0.211 C 
ENDBRANCH   1  15
BRANCH  13  17
HETATM   17  N5  UNL     1      -9.525 -28.322 -25.970  1.00  0.00    -0.344 N 
ATOM     18  H52 UNL     1      -9.127 -29.186 -25.601  1.00  0.00     0.176 HD
ATOM     19  H51 UNL     1      -9.317 -27.990 -26.911  1.00  0.00     0.176 HD
ENDBRANCH  13  17
TORSDOF 2
ENDMDL
MODEL 3
REMARK VINA RESULT: -6.690403272      1.478      3.013
REMARK  2 active torsions:
REMARK  status: ('A' for Active; 'I' for Inactive)
REMARK    1  A    between atoms: O1_2  and  C2_3 
REMARK    2  A    between atoms: N4_15  and  N5_17 
ROOT
HETATM    1  C2  UNL     1     -13.232 -28.311 -25.795  1.00  0.00     0.192 C 
HETATM    2  N1  UNL     1     -12.173 -29.091 -25.458  1.00  0.00    -0.286 N 
ATOM      3  H1  UNL     1     -12.208 -29.583 -24.565  1.00  0.00     0.172 HD
HETATM    4  C3  UNL     1     -11.065 -29.260 -26.237  1.00  0.00     0.330 C 
HETATM    5  O2  UNL     1     -10.014 -29.634 -25.657  1.00  0.00    -0.246 OA
HETATM    6  N2  UNL     1     -10.946 -29.077 -27.565  1.00  0.00    -0.260 N 
ATOM      7  H2  UNL     1     -10.052 -29.374 -27.956  1.00  0.00     0.175 HD
HETATM    8  C4  UNL     1     -11.822 -28.560 -28.474  1.00  0.00     0.329 C 
HETATM    9  O3  UNL     1     -11.495 -28.569 -29.680  1.00  0.00    -0.246 OA
HETATM   10  N3  UNL     1     -13.032 -28.024 -28.241  1.00  0.00    -0.290 N 
ATOM     11  H3  UNL     1     -13.478 -27.537 -29.018  1.00  0.00     0.172 HD
HETATM   12  C5  UNL     1     -13.721 -28.069 -27.062  1.00  0.00     0.175 C 
HETATM   13  N4  UNL     1     -14.986 -27.854 -27.182  1.00  0.00    -0.288 N 
ATOM     14  H4  UNL     1     -15.404 -27.670 -28.094  1.00  0.00     0.188 HD
ENDROOT
BRANCH   1  15
HETATM   15  O1  UNL     1     -13.929 -27.669 -24.797  1.00  0.00    -0.338 OA
HETATM   16  C1  UNL     1     -13.397 -26.637 -23.994  1.00  0.00     0.211 C 
ENDBRANCH   1  15
BRANCH  13  17
HETATM   17  N5  UNL     1     -15.765 -27.882 -26.025  1.00  0.00    -0.344 N 
ATOM     18  H52 UNL     1     -15.385 -27.535 -25.144  1.00  0.00     0.176 HD
ATOM     19  H51 UNL     1     -16.711 -28.255 -26.095  1.00  0.00     0.176 HD
ENDBRANCH  13  17
TORSDOF 2
ENDMDL
MODEL 4
REMARK VINA RESULT: -5.896710294      1.617      4.744
REMARK  2 active torsions:
REMARK  status: ('A' for Active; 'I' for Inactive)
REMARK    1  A    between atoms: O1_2  and  C2_3 
REMARK    2  A    between atoms: N4_15  and  N5_17 
ROOT
HETATM    1  C2  UNL     1     -12.115 -28.262 -26.135  1.00  0.00     0.192 C 
HETATM    2  N1  UNL     1     -12.260 -27.394 -25.100  1.00  0.00    -0.286 N 
ATOM      3  H1  UNL     1     -11.417 -26.989 -24.694  1.00  0.00     0.172 HD
HETATM    4  C3  UNL     1     -13.463 -27.028 -24.569  1.00  0.00     0.330 C 
HETATM    5  O2  UNL     1     -13.453 -26.584 -23.392  1.00  0.00    -0.246 OA
HETATM    6  N2  UNL     1     -14.678 -27.079 -25.145  1.00  0.00    -0.260 N 
ATOM      7  H2  UNL     1     -15.425 -26.646 -24.603  1.00  0.00     0.175 HD
HETATM    8  C4  UNL     1     -15.076 -27.615 -26.335  1.00  0.00     0.329 C 
HETATM    9  O3  UNL     1     -16.266 -27.462 -26.683  1.00  0.00    -0.246 OA
HETATM   10  N3  UNL     1     -14.336 -28.308 -27.216  1.00  0.00    -0.290 N 
ATOM     11  H3  UNL     1     -14.836 -28.776 -27.973  1.00  0.00     0.172 HD
HETATM   12  C5  UNL     1     -12.976 -28.448 -27.195  1.00  0.00     0.175 C 
HETATM   13  N4  UNL     1     -12.465 -28.800 -28.324  1.00  0.00    -0.288 N 
ATOM     14  H4  UNL     1     -13.053 -28.952 -29.144  1.00  0.00     0.188 HD
ENDROOT
BRANCH   1  15
HETATM   15  O1  UNL     1     -10.999 -29.066 -26.175  1.00  0.00    -0.338 OA
HETATM   16  C1  UNL     1      -9.786 -28.776 -25.513  1.00  0.00     0.211 C 
ENDBRANCH   1  15
BRANCH  13  17
HETATM   17  N5  UNL     1     -11.081 -28.966 -28.390  1.00  0.00    -0.344 N 
ATOM     18  H52 UNL     1     -10.463 -28.164 -28.265  1.00  0.00     0.176 HD
ATOM     19  H51 UNL     1     -10.721 -29.904 -28.564  1.00  0.00     0.176 HD
ENDBRANCH  13  17
TORSDOF 2
ENDMDL
MODEL 5
REMARK VINA RESULT: -5.332590931      2.519      4.952
REMARK  2 active torsions:
REMARK  status: ('A' for Active; 'I' for Inactive)
REMARK    1  A    between atoms: O1_2  and  C2_3 
REMARK    2  A    between atoms: N4_15  and  N5_17 
ROOT
HETATM    1  C2  UNL     1     -13.535 -27.730 -25.624  1.00  0.00     0.192 C 
HETATM    2  N1  UNL     1     -14.230 -26.570 -25.496  1.00  0.00    -0.286 N 
ATOM      3  H1  UNL     1     -13.753 -25.699 -25.728  1.00  0.00     0.172 HD
HETATM    4  C3  UNL     1     -15.527 -26.495 -25.077  1.00  0.00     0.330 C 
HETATM    5  O2  UNL     1     -15.907 -25.395 -24.600  1.00  0.00    -0.246 OA
HETATM    6  N2  UNL     1     -16.468 -27.456 -25.106  1.00  0.00    -0.260 N 
ATOM      7  H2  UNL     1     -17.404 -27.143 -24.847  1.00  0.00     0.175 HD
HETATM    8  C4  UNL     1     -16.379 -28.779 -25.425  1.00  0.00     0.329 C 
HETATM    9  O3  UNL     1     -17.430 -29.453 -25.449  1.00  0.00    -0.246 OA
HETATM   10  N3  UNL     1     -15.274 -29.482 -25.729  1.00  0.00    -0.290 N 
ATOM     11  H3  UNL     1     -15.371 -30.496 -25.778  1.00  0.00     0.172 HD
HETATM   12  C5  UNL     1     -14.033 -28.967 -25.977  1.00  0.00     0.175 C 
HETATM   13  N4  UNL     1     -13.252 -29.762 -26.622  1.00  0.00    -0.288 N 
ATOM     14  H4  UNL     1     -13.565 -30.689 -26.910  1.00  0.00     0.188 HD
ENDROOT
BRANCH   1  15
HETATM   15  O1  UNL     1     -12.179 -27.721 -25.387  1.00  0.00    -0.338 OA
HETATM   16  C1  UNL     1     -11.452 -26.583 -24.978  1.00  0.00     0.211 C 
ENDBRANCH   1  15
BRANCH  13  17
HETATM   17  N5  UNL     1     -11.964 -29.314 -26.917  1.00  0.00    -0.344 N 
ATOM     18  H52 UNL     1     -11.265 -29.242 -26.177  1.00  0.00     0.176 HD
ATOM     19  H51 UNL     1     -11.754 -29.066 -27.884  1.00  0.00     0.176 HD
ENDBRANCH  13  17
TORSDOF 2
ENDMDL
