MODEL 1
REMARK VINA RESULT: -8.106960133      0.000      0.000
REMARK  16 active torsions:
REMARK  status: ('A' for Active; 'I' for Inactive)
REMARK    1  A    between atoms: C2_2  and  C3_3 
REMARK    2  A    between atoms: C3_3  and  C4_4 
REMARK    3  A    between atoms: C4_4  and  C5_5 
REMARK    4  A    between atoms: C4_4  and  C7_9 
REMARK    5  A    between atoms: C5_5  and  C6_6 
REMARK       I    between atoms: C7_9  and  N1_11 
REMARK    6  A    between atoms: N1_11  and  C8_13 
REMARK    7  A    between atoms: C8_13  and  C9_14 
REMARK    8  A    between atoms: C8_13  and  C21_32 
REMARK    9  A    between atoms: C9_14  and  C10_15 
REMARK   10  A    between atoms: C12_17  and  C13_18 
REMARK   11  A    between atoms: C13_18  and  O4_19 
REMARK   12  A    between atoms: C13_18  and  N2_21 
REMARK   13  A    between atoms: N2_21  and  C14_22 
REMARK   14  A    between atoms: N2_21  and  C17_25 
REMARK       I    between atoms: C21_32  and  N5_34 
REMARK       I    between atoms: N6_37  and  C24_38 
REMARK   15  A    between atoms: C24_38  and  O7_40 
REMARK   16  A    between atoms: O7_40  and  C25_41 
ROOT
HETATM    1  C8  UNL     1       9.458  18.199  16.448  1.00  0.00     0.182 C 
ENDROOT
BRANCH   1   2
HETATM    2  N1  UNL     1       8.905  19.056  17.503  1.00  0.00    -0.347 N 
HETATM    3  C7  UNL     1       9.342  18.993  18.847  1.00  0.00     0.223 C 
HETATM    4  O3  UNL     1      10.230  18.181  19.153  1.00  0.00    -0.273 OA
ATOM      5  H1  UNL     1       8.175  19.725  17.256  1.00  0.00     0.163 HD
BRANCH   3   6
HETATM    6  C4  UNL     1       8.755  19.871  19.891  1.00  0.00     0.088 C 
BRANCH   6   7
HETATM    7  C3  UNL     1       9.531  21.125  20.138  1.00  0.00     0.014 C 
BRANCH   7   8
HETATM    8  C2  UNL     1      11.019  21.005  19.977  1.00  0.00    -0.004 C 
HETATM    9  C1  UNL     1      11.498  21.925  18.851  1.00  0.00     0.005 C 
ENDBRANCH   7   8
ENDBRANCH   6   7
BRANCH   6  10
HETATM   10  C5  UNL     1       8.644  19.106  21.199  1.00  0.00     0.127 C 
BRANCH  10  11
HETATM   11  C6  UNL     1       7.685  18.036  21.248  1.00  0.00     0.173 C 
HETATM   12  O1  UNL     1       6.452  18.185  21.198  1.00  0.00    -0.648 OA
HETATM   13  O2  UNL     1       8.146  16.724  21.358  1.00  0.00    -0.648 OA
ENDBRANCH  10  11
ENDBRANCH   6  10
ENDBRANCH   3   6
ENDBRANCH   1   2
BRANCH   1  14
HETATM   14  C9  UNL     1      10.217  19.093  15.532  1.00  0.00     0.093 C 
BRANCH  14  15
HETATM   15  C10 UNL     1      11.613  19.344  16.005  1.00  0.00     0.030 A 
HETATM   16  C11 UNL     1      12.570  20.095  15.288  1.00  0.00     0.062 A 
HETATM   17  C12 UNL     1      13.760  20.141  15.962  1.00  0.00     0.102 A 
HETATM   18  N3  UNL     1      13.513  19.412  17.093  1.00  0.00    -0.292 N 
HETATM   19  C20 UNL     1      14.454  19.138  18.160  1.00  0.00     0.178 C 
HETATM   20  N4  UNL     1      12.258  18.962  17.089  1.00  0.00    -0.302 N 
ATOM     21  H4  UNL     1      11.849  18.393  17.830  1.00  0.00     0.186 HD
BRANCH  17  22
HETATM   22  C13 UNL     1      15.019  20.768  15.654  1.00  0.00     0.168 C 
BRANCH  22  23
HETATM   23  O4  UNL     1      15.934  19.888  15.205  1.00  0.00    -0.344 OA
ATOM     24  H4  UNL     1      16.108  19.990  14.276  1.00  0.00     0.219 HD
ENDBRANCH  22  23
BRANCH  22  25
HETATM   25  N2  UNL     1      15.511  22.075  15.713  1.00  0.00    -0.352 N 
BRANCH  25  26
HETATM   26  C14 UNL     1      15.820  22.863  14.576  1.00  0.00     0.078 C 
HETATM   27  C15 UNL     1      14.848  22.735  13.410  1.00  0.00     0.032 C 
HETATM   28  C16 UNL     1      17.216  22.560  13.988  1.00  0.00     0.032 C 
ENDBRANCH  25  26
BRANCH  25  29
HETATM   29  C17 UNL     1      15.719  22.610  17.070  1.00  0.00     0.078 C 
HETATM   30  C18 UNL     1      14.608  23.468  17.571  1.00  0.00     0.032 C 
HETATM   31  C19 UNL     1      17.036  23.270  17.286  1.00  0.00     0.032 C 
ENDBRANCH  25  29
ENDBRANCH  22  25
ENDBRANCH  17  22
ENDBRANCH  14  15
ENDBRANCH   1  14
BRANCH   1  32
HETATM   32  C21 UNL     1       8.306  17.650  15.645  1.00  0.00     0.243 C 
HETATM   33  O5  UNL     1       8.243  17.949  14.409  1.00  0.00    -0.271 OA
HETATM   34  N5  UNL     1       7.299  16.828  16.175  1.00  0.00    -0.347 N 
HETATM   35  C22 UNL     1       7.287  16.486  17.584  1.00  0.00     0.146 C 
HETATM   36  C30 UNL     1       6.261  16.303  15.310  1.00  0.00     0.146 C 
HETATM   37  C23 UNL     1       5.854  16.611  18.068  1.00  0.00     0.148 C 
HETATM   38  N6  UNL     1       5.049  15.665  17.338  1.00  0.00    -0.325 N 
HETATM   39  C24 UNL     1       3.847  15.175  17.949  1.00  0.00     0.363 C 
HETATM   40  C29 UNL     1       5.453  15.234  16.015  1.00  0.00     0.148 C 
HETATM   41  O6  UNL     1       3.528  15.577  19.096  1.00  0.00    -0.238 OA
BRANCH  39  42
HETATM   42  O7  UNL     1       3.014  14.270  17.327  1.00  0.00    -0.294 OA
BRANCH  42  43
HETATM   43  C25 UNL     1       1.825  14.728  16.722  1.00  0.00     0.061 C 
HETATM   44  C26 UNL     1       1.564  13.833  15.525  1.00  0.00     0.046 C 
HETATM   45  C27 UNL     1       1.888  16.171  16.287  1.00  0.00     0.046 C 
HETATM   46  C28 UNL     1       0.647  14.591  17.676  1.00  0.00     0.046 C 
ENDBRANCH  42  43
ENDBRANCH  39  42
ENDBRANCH   1  32
TORSDOF 16
ENDMDL
MODEL 2
REMARK VINA RESULT: -8.074377060      2.826      5.230
REMARK  16 active torsions:
REMARK  status: ('A' for Active; 'I' for Inactive)
REMARK    1  A    between atoms: C2_2  and  C3_3 
REMARK    2  A    between atoms: C3_3  and  C4_4 
REMARK    3  A    between atoms: C4_4  and  C5_5 
REMARK    4  A    between atoms: C4_4  and  C7_9 
REMARK    5  A    between atoms: C5_5  and  C6_6 
REMARK       I    between atoms: C7_9  and  N1_11 
REMARK    6  A    between atoms: N1_11  and  C8_13 
REMARK    7  A    between atoms: C8_13  and  C9_14 
REMARK    8  A    between atoms: C8_13  and  C21_32 
REMARK    9  A    between atoms: C9_14  and  C10_15 
REMARK   10  A    between atoms: C12_17  and  C13_18 
REMARK   11  A    between atoms: C13_18  and  O4_19 
REMARK   12  A    between atoms: C13_18  and  N2_21 
REMARK   13  A    between atoms: N2_21  and  C14_22 
REMARK   14  A    between atoms: N2_21  and  C17_25 
REMARK       I    between atoms: C21_32  and  N5_34 
REMARK       I    between atoms: N6_37  and  C24_38 
REMARK   15  A    between atoms: C24_38  and  O7_40 
REMARK   16  A    between atoms: O7_40  and  C25_41 
ROOT
HETATM    1  C8  UNL     1       9.473  19.881  18.688  1.00  0.00     0.182 C 
ENDROOT
BRANCH   1   2
HETATM    2  N1  UNL     1      10.457  19.342  17.743  1.00  0.00    -0.347 N 
HETATM    3  C7  UNL     1      10.159  19.107  16.381  1.00  0.00     0.223 C 
HETATM    4  O3  UNL     1       9.019  19.365  15.961  1.00  0.00    -0.273 OA
ATOM      5  H1  UNL     1      11.395  19.129  18.083  1.00  0.00     0.163 HD
BRANCH   3   6
HETATM    6  C4  UNL     1      11.178  18.554  15.453  1.00  0.00     0.088 C 
BRANCH   6   7
HETATM    7  C3  UNL     1      11.129  17.066  15.309  1.00  0.00     0.014 C 
BRANCH   7   8
HETATM    8  C2  UNL     1      10.353  16.558  14.129  1.00  0.00    -0.004 C 
HETATM    9  C1  UNL     1       9.144  15.749  14.609  1.00  0.00     0.005 C 
ENDBRANCH   7   8
ENDBRANCH   6   7
BRANCH   6  10
HETATM   10  C5  UNL     1      12.568  18.949  15.925  1.00  0.00     0.127 C 
BRANCH  10  11
HETATM   11  C6  UNL     1      13.169  20.092  15.295  1.00  0.00     0.173 C 
HETATM   12  O1  UNL     1      12.539  21.040  14.797  1.00  0.00    -0.648 OA
HETATM   13  O2  UNL     1      14.560  20.167  15.225  1.00  0.00    -0.648 OA
ENDBRANCH  10  11
ENDBRANCH   6  10
ENDBRANCH   3   6
ENDBRANCH   1   2
BRANCH   1  14
HETATM   14  C9  UNL     1      10.094  21.083  19.307  1.00  0.00     0.093 C 
BRANCH  14  15
HETATM   15  C10 UNL     1      11.547  21.211  18.974  1.00  0.00     0.030 A 
HETATM   16  C11 UNL     1      12.112  22.318  18.304  1.00  0.00     0.062 A 
HETATM   17  C12 UNL     1      13.457  22.147  18.127  1.00  0.00     0.102 A 
HETATM   18  N3  UNL     1      13.701  20.927  18.696  1.00  0.00    -0.292 N 
HETATM   19  C20 UNL     1      14.983  20.257  18.776  1.00  0.00     0.178 C 
HETATM   20  N4  UNL     1      12.572  20.408  19.179  1.00  0.00    -0.302 N 
ATOM     21  H4  UNL     1      12.508  19.504  19.647  1.00  0.00     0.186 HD
BRANCH  17  22
HETATM   22  C13 UNL     1      14.462  22.975  17.512  1.00  0.00     0.168 C 
BRANCH  22  23
HETATM   23  O4  UNL     1      14.237  23.162  16.197  1.00  0.00    -0.344 OA
ATOM     24  H4  UNL     1      14.542  24.010  15.895  1.00  0.00     0.219 HD
ENDBRANCH  22  23
BRANCH  22  25
HETATM   25  N2  UNL     1      15.613  23.629  17.960  1.00  0.00    -0.352 N 
BRANCH  25  26
HETATM   26  C14 UNL     1      16.934  23.246  17.613  1.00  0.00     0.078 C 
HETATM   27  C15 UNL     1      18.022  24.244  17.987  1.00  0.00     0.032 C 
HETATM   28  C16 UNL     1      17.112  22.985  16.100  1.00  0.00     0.032 C 
ENDBRANCH  25  26
BRANCH  25  29
HETATM   29  C17 UNL     1      15.379  24.771  18.861  1.00  0.00     0.078 C 
HETATM   30  C18 UNL     1      15.186  24.398  20.291  1.00  0.00     0.032 C 
HETATM   31  C19 UNL     1      14.317  25.712  18.412  1.00  0.00     0.032 C 
ENDBRANCH  25  29
ENDBRANCH  22  25
ENDBRANCH  17  22
ENDBRANCH  14  15
ENDBRANCH   1  14
BRANCH   1  32
HETATM   32  C21 UNL     1       9.297  18.876  19.799  1.00  0.00     0.243 C 
HETATM   33  O5  UNL     1      10.340  18.321  20.272  1.00  0.00    -0.271 OA
HETATM   34  N5  UNL     1       8.054  18.516  20.344  1.00  0.00    -0.347 N 
HETATM   35  C22 UNL     1       6.825  19.079  19.822  1.00  0.00     0.146 C 
HETATM   36  C30 UNL     1       7.992  17.580  21.449  1.00  0.00     0.146 C 
HETATM   37  C23 UNL     1       5.820  17.946  19.712  1.00  0.00     0.148 C 
HETATM   38  N6  UNL     1       5.584  17.425  21.036  1.00  0.00    -0.325 N 
HETATM   39  C24 UNL     1       4.329  16.785  21.305  1.00  0.00     0.363 C 
HETATM   40  C29 UNL     1       6.606  17.546  22.057  1.00  0.00     0.148 C 
HETATM   41  O6  UNL     1       3.472  16.696  20.391  1.00  0.00    -0.238 OA
BRANCH  39  42
HETATM   42  O7  UNL     1       4.016  16.257  22.539  1.00  0.00    -0.294 OA
BRANCH  42  43
HETATM   43  C25 UNL     1       3.280  17.036  23.456  1.00  0.00     0.061 C 
HETATM   44  C26 UNL     1       1.967  16.313  23.695  1.00  0.00     0.046 C 
HETATM   45  C27 UNL     1       3.019  18.442  22.979  1.00  0.00     0.046 C 
HETATM   46  C28 UNL     1       4.010  17.135  24.788  1.00  0.00     0.046 C 
ENDBRANCH  42  43
ENDBRANCH  39  42
ENDBRANCH   1  32
TORSDOF 16
ENDMDL
MODEL 3
REMARK VINA RESULT: -8.016154752      2.950     11.034
REMARK  16 active torsions:
REMARK  status: ('A' for Active; 'I' for Inactive)
REMARK    1  A    between atoms: C2_2  and  C3_3 
REMARK    2  A    between atoms: C3_3  and  C4_4 
REMARK    3  A    between atoms: C4_4  and  C5_5 
REMARK    4  A    between atoms: C4_4  and  C7_9 
REMARK    5  A    between atoms: C5_5  and  C6_6 
REMARK       I    between atoms: C7_9  and  N1_11 
REMARK    6  A    between atoms: N1_11  and  C8_13 
REMARK    7  A    between atoms: C8_13  and  C9_14 
REMARK    8  A    between atoms: C8_13  and  C21_32 
REMARK    9  A    between atoms: C9_14  and  C10_15 
REMARK   10  A    between atoms: C12_17  and  C13_18 
REMARK   11  A    between atoms: C13_18  and  O4_19 
REMARK   12  A    between atoms: C13_18  and  N2_21 
REMARK   13  A    between atoms: N2_21  and  C14_22 
REMARK   14  A    between atoms: N2_21  and  C17_25 
REMARK       I    between atoms: C21_32  and  N5_34 
REMARK       I    between atoms: N6_37  and  C24_38 
REMARK   15  A    between atoms: C24_38  and  O7_40 
REMARK   16  A    between atoms: O7_40  and  C25_41 
ROOT
HETATM    1  C8  UNL     1      11.137  19.362  19.498  1.00  0.00     0.182 C 
ENDROOT
BRANCH   1   2
HETATM    2  N1  UNL     1      10.236  18.599  18.627  1.00  0.00    -0.347 N 
HETATM    3  C7  UNL     1      10.707  17.721  17.622  1.00  0.00     0.223 C 
HETATM    4  O3  UNL     1      11.932  17.586  17.467  1.00  0.00    -0.273 OA
ATOM      5  H1  UNL     1       9.229  18.707  18.750  1.00  0.00     0.163 HD
BRANCH   3   6
HETATM    6  C4  UNL     1       9.767  16.969  16.753  1.00  0.00     0.088 C 
BRANCH   6   7
HETATM    7  C3  UNL     1       9.768  17.414  15.325  1.00  0.00     0.014 C 
BRANCH   7   8
HETATM    8  C2  UNL     1      10.137  16.360  14.322  1.00  0.00    -0.004 C 
HETATM    9  C1  UNL     1       9.200  15.155  14.462  1.00  0.00     0.005 C 
ENDBRANCH   7   8
ENDBRANCH   6   7
BRANCH   6  10
HETATM   10  C5  UNL     1       8.354  17.096  17.298  1.00  0.00     0.127 C 
BRANCH  10  11
HETATM   11  C6  UNL     1       7.734  15.894  17.784  1.00  0.00     0.173 C 
HETATM   12  O1  UNL     1       8.168  15.200  18.719  1.00  0.00    -0.648 OA
HETATM   13  O2  UNL     1       6.556  15.453  17.180  1.00  0.00    -0.648 OA
ENDBRANCH  10  11
ENDBRANCH   6  10
ENDBRANCH   3   6
ENDBRANCH   1   2
BRANCH   1  14
HETATM   14  C9  UNL     1      10.458  19.469  20.818  1.00  0.00     0.093 C 
BRANCH  14  15
HETATM   15  C10 UNL     1       9.066  18.922  20.791  1.00  0.00     0.030 A 
HETATM   16  C11 UNL     1       8.618  17.855  21.599  1.00  0.00     0.062 A 
HETATM   17  C12 UNL     1       7.305  17.567  21.344  1.00  0.00     0.102 A 
HETATM   18  N3  UNL     1       6.964  18.469  20.375  1.00  0.00    -0.292 N 
HETATM   19  C20 UNL     1       5.669  18.594  19.735  1.00  0.00     0.178 C 
HETATM   20  N4  UNL     1       8.007  19.242  20.074  1.00  0.00    -0.302 N 
ATOM     21  H4  UNL     1       7.989  19.987  19.377  1.00  0.00     0.186 HD
BRANCH  17  22
HETATM   22  C13 UNL     1       6.409  16.583  21.897  1.00  0.00     0.168 C 
BRANCH  22  23
HETATM   23  O4  UNL     1       6.363  15.459  21.157  1.00  0.00    -0.344 OA
ATOM     24  H4  UNL     1       5.639  14.894  21.402  1.00  0.00     0.219 HD
ENDBRANCH  22  23
BRANCH  22  25
HETATM   25  N2  UNL     1       5.578  16.525  23.019  1.00  0.00    -0.352 N 
BRANCH  25  26
HETATM   26  C14 UNL     1       4.183  16.775  22.992  1.00  0.00     0.078 C 
HETATM   27  C15 UNL     1       3.530  16.684  21.618  1.00  0.00     0.032 C 
HETATM   28  C16 UNL     1       3.805  18.169  23.540  1.00  0.00     0.032 C 
ENDBRANCH  25  26
BRANCH  25  29
HETATM   29  C17 UNL     1       6.253  16.195  24.286  1.00  0.00     0.078 C 
HETATM   30  C18 UNL     1       7.488  15.376  24.132  1.00  0.00     0.032 C 
HETATM   31  C19 UNL     1       5.365  15.621  25.334  1.00  0.00     0.032 C 
ENDBRANCH  25  29
ENDBRANCH  22  25
ENDBRANCH  17  22
ENDBRANCH  14  15
ENDBRANCH   1  14
BRANCH   1  32
HETATM   32  C21 UNL     1      11.230  20.766  18.955  1.00  0.00     0.243 C 
HETATM   33  O5  UNL     1      10.151  21.428  18.825  1.00  0.00    -0.271 OA
HETATM   34  N5  UNL     1      12.433  21.388  18.584  1.00  0.00    -0.347 N 
HETATM   35  C22 UNL     1      13.692  20.673  18.666  1.00  0.00     0.146 C 
HETATM   36  C30 UNL     1      12.427  22.761  18.123  1.00  0.00     0.146 C 
HETATM   37  C23 UNL     1      14.470  20.981  17.399  1.00  0.00     0.148 C 
HETATM   38  N6  UNL     1      14.725  22.400  17.363  1.00  0.00    -0.325 N 
HETATM   39  C24 UNL     1      15.867  22.870  16.633  1.00  0.00     0.363 C 
HETATM   40  C29 UNL     1      13.833  23.316  18.045  1.00  0.00     0.148 C 
HETATM   41  O6  UNL     1      16.612  22.043  16.052  1.00  0.00    -0.238 OA
BRANCH  39  42
HETATM   42  O7  UNL     1      16.189  24.207  16.542  1.00  0.00    -0.294 OA
BRANCH  42  43
HETATM   43  C25 UNL     1      17.051  24.776  17.504  1.00  0.00     0.061 C 
HETATM   44  C26 UNL     1      18.250  25.324  16.753  1.00  0.00     0.046 C 
HETATM   45  C27 UNL     1      17.501  23.801  18.562  1.00  0.00     0.046 C 
HETATM   46  C28 UNL     1      16.372  25.938  18.215  1.00  0.00     0.046 C 
ENDBRANCH  42  43
ENDBRANCH  39  42
ENDBRANCH   1  32
TORSDOF 16
ENDMDL
MODEL 4
REMARK VINA RESULT: -7.978981908      0.365      1.489
REMARK  16 active torsions:
REMARK  status: ('A' for Active; 'I' for Inactive)
REMARK    1  A    between atoms: C2_2  and  C3_3 
REMARK    2  A    between atoms: C3_3  and  C4_4 
REMARK    3  A    between atoms: C4_4  and  C5_5 
REMARK    4  A    between atoms: C4_4  and  C7_9 
REMARK    5  A    between atoms: C5_5  and  C6_6 
REMARK       I    between atoms: C7_9  and  N1_11 
REMARK    6  A    between atoms: N1_11  and  C8_13 
REMARK    7  A    between atoms: C8_13  and  C9_14 
REMARK    8  A    between atoms: C8_13  and  C21_32 
REMARK    9  A    between atoms: C9_14  and  C10_15 
REMARK   10  A    between atoms: C12_17  and  C13_18 
REMARK   11  A    between atoms: C13_18  and  O4_19 
REMARK   12  A    between atoms: C13_18  and  N2_21 
REMARK   13  A    between atoms: N2_21  and  C14_22 
REMARK   14  A    between atoms: N2_21  and  C17_25 
REMARK       I    between atoms: C21_32  and  N5_34 
REMARK       I    between atoms: N6_37  and  C24_38 
REMARK   15  A    between atoms: C24_38  and  O7_40 
REMARK   16  A    between atoms: O7_40  and  C25_41 
ROOT
HETATM    1  C8  UNL     1       9.468  18.206  16.441  1.00  0.00     0.182 C 
ENDROOT
BRANCH   1   2
HETATM    2  N1  UNL     1       8.910  19.035  17.515  1.00  0.00    -0.347 N 
HETATM    3  C7  UNL     1       9.396  18.994  18.843  1.00  0.00     0.223 C 
HETATM    4  O3  UNL     1      10.333  18.227  19.117  1.00  0.00    -0.273 OA
ATOM      5  H1  UNL     1       8.140  19.667  17.295  1.00  0.00     0.163 HD
BRANCH   3   6
HETATM    6  C4  UNL     1       8.803  19.843  19.908  1.00  0.00     0.088 C 
BRANCH   6   7
HETATM    7  C3  UNL     1       9.627  21.039  20.262  1.00  0.00     0.014 C 
BRANCH   7   8
HETATM    8  C2  UNL     1      10.524  21.550  19.172  1.00  0.00    -0.004 C 
HETATM    9  C1  UNL     1      11.986  21.487  19.626  1.00  0.00     0.005 C 
ENDBRANCH   7   8
ENDBRANCH   6   7
BRANCH   6  10
HETATM   10  C5  UNL     1       8.590  19.013  21.163  1.00  0.00     0.127 C 
BRANCH  10  11
HETATM   11  C6  UNL     1       7.594  17.979  21.098  1.00  0.00     0.173 C 
HETATM   12  O1  UNL     1       6.368  18.177  21.048  1.00  0.00    -0.648 OA
HETATM   13  O2  UNL     1       8.007  16.647  21.090  1.00  0.00    -0.648 OA
ENDBRANCH  10  11
ENDBRANCH   6  10
ENDBRANCH   3   6
ENDBRANCH   1   2
BRANCH   1  14
HETATM   14  C9  UNL     1      10.216  19.125  15.542  1.00  0.00     0.093 C 
BRANCH  14  15
HETATM   15  C10 UNL     1      11.616  19.369  16.009  1.00  0.00     0.030 A 
HETATM   16  C11 UNL     1      12.577  20.105  15.283  1.00  0.00     0.062 A 
HETATM   17  C12 UNL     1      13.769  20.147  15.954  1.00  0.00     0.102 A 
HETATM   18  N3  UNL     1      13.518  19.430  17.092  1.00  0.00    -0.292 N 
HETATM   19  C20 UNL     1      14.460  19.157  18.160  1.00  0.00     0.178 C 
HETATM   20  N4  UNL     1      12.260  18.991  17.095  1.00  0.00    -0.302 N 
ATOM     21  H4  UNL     1      11.848  18.432  17.842  1.00  0.00     0.186 HD
BRANCH  17  22
HETATM   22  C13 UNL     1      15.032  20.761  15.637  1.00  0.00     0.168 C 
BRANCH  22  23
HETATM   23  O4  UNL     1      15.992  19.853  15.378  1.00  0.00    -0.344 OA
ATOM     24  H4  UNL     1      16.070  19.664  14.450  1.00  0.00     0.219 HD
ENDBRANCH  22  23
BRANCH  22  25
HETATM   25  N2  UNL     1      15.493  22.077  15.537  1.00  0.00    -0.352 N 
BRANCH  25  26
HETATM   26  C14 UNL     1      15.474  23.011  16.603  1.00  0.00     0.078 C 
HETATM   27  C15 UNL     1      16.363  22.665  17.791  1.00  0.00     0.032 C 
HETATM   28  C16 UNL     1      14.063  23.232  17.191  1.00  0.00     0.032 C 
ENDBRANCH  25  26
BRANCH  25  29
HETATM   29  C17 UNL     1      16.005  22.466  14.212  1.00  0.00     0.078 C 
HETATM   30  C18 UNL     1      17.190  23.368  14.249  1.00  0.00     0.032 C 
HETATM   31  C19 UNL     1      14.973  22.987  13.274  1.00  0.00     0.032 C 
ENDBRANCH  25  29
ENDBRANCH  22  25
ENDBRANCH  17  22
ENDBRANCH  14  15
ENDBRANCH   1  14
BRANCH   1  32
HETATM   32  C21 UNL     1       8.319  17.663  15.629  1.00  0.00     0.243 C 
HETATM   33  O5  UNL     1       8.256  17.978  14.398  1.00  0.00    -0.271 OA
HETATM   34  N5  UNL     1       7.313  16.831  16.148  1.00  0.00    -0.347 N 
HETATM   35  C22 UNL     1       7.302  16.470  17.552  1.00  0.00     0.146 C 
HETATM   36  C30 UNL     1       6.279  16.314  15.275  1.00  0.00     0.146 C 
HETATM   37  C23 UNL     1       5.867  16.585  18.036  1.00  0.00     0.148 C 
HETATM   38  N6  UNL     1       5.066  15.645  17.293  1.00  0.00    -0.325 N 
HETATM   39  C24 UNL     1       3.865  15.143  17.896  1.00  0.00     0.363 C 
HETATM   40  C29 UNL     1       5.474  15.233  15.965  1.00  0.00     0.148 C 
HETATM   41  O6  UNL     1       3.544  15.530  19.048  1.00  0.00    -0.238 OA
BRANCH  39  42
HETATM   42  O7  UNL     1       3.036  14.243  17.261  1.00  0.00    -0.294 OA
BRANCH  42  43
HETATM   43  C25 UNL     1       1.843  14.705  16.667  1.00  0.00     0.061 C 
HETATM   44  C26 UNL     1       1.553  13.790  15.491  1.00  0.00     0.046 C 
HETATM   45  C27 UNL     1       1.916  16.138  16.204  1.00  0.00     0.046 C 
HETATM   46  C28 UNL     1       0.679  14.600  17.641  1.00  0.00     0.046 C 
ENDBRANCH  42  43
ENDBRANCH  39  42
ENDBRANCH   1  32
TORSDOF 16
ENDMDL
MODEL 5
REMARK VINA RESULT: -7.937987863      0.951      2.099
REMARK  16 active torsions:
REMARK  status: ('A' for Active; 'I' for Inactive)
REMARK    1  A    between atoms: C2_2  and  C3_3 
REMARK    2  A    between atoms: C3_3  and  C4_4 
REMARK    3  A    between atoms: C4_4  and  C5_5 
REMARK    4  A    between atoms: C4_4  and  C7_9 
REMARK    5  A    between atoms: C5_5  and  C6_6 
REMARK       I    between atoms: C7_9  and  N1_11 
REMARK    6  A    between atoms: N1_11  and  C8_13 
REMARK    7  A    between atoms: C8_13  and  C9_14 
REMARK    8  A    between atoms: C8_13  and  C21_32 
REMARK    9  A    between atoms: C9_14  and  C10_15 
REMARK   10  A    between atoms: C12_17  and  C13_18 
REMARK   11  A    between atoms: C13_18  and  O4_19 
REMARK   12  A    between atoms: C13_18  and  N2_21 
REMARK   13  A    between atoms: N2_21  and  C14_22 
REMARK   14  A    between atoms: N2_21  and  C17_25 
REMARK       I    between atoms: C21_32  and  N5_34 
REMARK       I    between atoms: N6_37  and  C24_38 
REMARK   15  A    between atoms: C24_38  and  O7_40 
REMARK   16  A    between atoms: O7_40  and  C25_41 
ROOT
HETATM    1  C8  UNL     1       9.608  18.232  16.374  1.00  0.00     0.182 C 
ENDROOT
BRANCH   1   2
HETATM    2  N1  UNL     1       9.148  18.928  17.581  1.00  0.00    -0.347 N 
HETATM    3  C7  UNL     1       9.710  18.694  18.858  1.00  0.00     0.223 C 
HETATM    4  O3  UNL     1      10.630  17.868  18.969  1.00  0.00    -0.273 OA
ATOM      5  H1  UNL     1       8.393  19.608  17.495  1.00  0.00     0.163 HD
BRANCH   3   6
HETATM    6  C4  UNL     1       9.216  19.412  20.061  1.00  0.00     0.088 C 
BRANCH   6   7
HETATM    7  C3  UNL     1       7.760  19.212  20.335  1.00  0.00     0.014 C 
BRANCH   7   8
HETATM    8  C2  UNL     1       7.440  18.393  21.552  1.00  0.00    -0.004 C 
HETATM    9  C1  UNL     1       7.838  16.932  21.317  1.00  0.00     0.005 C 
ENDBRANCH   7   8
ENDBRANCH   6   7
BRANCH   6  10
HETATM   10  C5  UNL     1       9.479  20.902  19.911  1.00  0.00     0.127 C 
BRANCH  10  11
HETATM   11  C6  UNL     1      10.728  21.285  19.310  1.00  0.00     0.173 C 
HETATM   12  O1  UNL     1      11.845  21.119  19.828  1.00  0.00    -0.648 OA
HETATM   13  O2  UNL     1      10.711  21.889  18.053  1.00  0.00    -0.648 OA
ENDBRANCH  10  11
ENDBRANCH   6  10
ENDBRANCH   3   6
ENDBRANCH   1   2
BRANCH   1  14
HETATM   14  C9  UNL     1      10.308  19.247  15.541  1.00  0.00     0.093 C 
BRANCH  14  15
HETATM   15  C10 UNL     1      11.701  19.515  16.016  1.00  0.00     0.030 A 
HETATM   16  C11 UNL     1      12.678  20.201  15.262  1.00  0.00     0.062 A 
HETATM   17  C12 UNL     1      13.858  20.280  15.950  1.00  0.00     0.102 A 
HETATM   18  N3  UNL     1      13.585  19.636  17.125  1.00  0.00    -0.292 N 
HETATM   19  C20 UNL     1      14.508  19.427  18.223  1.00  0.00     0.178 C 
HETATM   20  N4  UNL     1      12.325  19.202  17.134  1.00  0.00    -0.302 N 
ATOM     21  H4  UNL     1      11.898  18.693  17.908  1.00  0.00     0.186 HD
BRANCH  17  22
HETATM   22  C13 UNL     1      15.129  20.869  15.617  1.00  0.00     0.168 C 
BRANCH  22  23
HETATM   23  O4  UNL     1      16.021  19.955  15.190  1.00  0.00    -0.344 OA
ATOM     24  H4  UNL     1      15.803  19.610  14.332  1.00  0.00     0.219 HD
ENDBRANCH  22  23
BRANCH  22  25
HETATM   25  N2  UNL     1      15.651  22.166  15.634  1.00  0.00    -0.352 N 
BRANCH  25  26
HETATM   26  C14 UNL     1      15.936  22.926  14.471  1.00  0.00     0.078 C 
HETATM   27  C15 UNL     1      14.937  22.775  13.332  1.00  0.00     0.032 C 
HETATM   28  C16 UNL     1      17.317  22.602  13.858  1.00  0.00     0.032 C 
ENDBRANCH  25  26
BRANCH  25  29
HETATM   29  C17 UNL     1      15.918  22.720  16.972  1.00  0.00     0.078 C 
HETATM   30  C18 UNL     1      14.796  23.516  17.545  1.00  0.00     0.032 C 
HETATM   31  C19 UNL     1      17.206  23.457  17.097  1.00  0.00     0.032 C 
ENDBRANCH  25  29
ENDBRANCH  22  25
ENDBRANCH  17  22
ENDBRANCH  14  15
ENDBRANCH   1  14
BRANCH   1  32
HETATM   32  C21 UNL     1       8.391  17.809  15.590  1.00  0.00     0.243 C 
HETATM   33  O5  UNL     1       8.267  18.242  14.400  1.00  0.00    -0.271 OA
HETATM   34  N5  UNL     1       7.386  16.967  16.093  1.00  0.00    -0.347 N 
HETATM   35  C22 UNL     1       7.444  16.475  17.455  1.00  0.00     0.146 C 
HETATM   36  C30 UNL     1       6.280  16.571  15.244  1.00  0.00     0.146 C 
HETATM   37  C23 UNL     1       6.048  16.593  18.039  1.00  0.00     0.148 C 
HETATM   38  N6  UNL     1       5.166  15.756  17.264  1.00  0.00    -0.325 N 
HETATM   39  C24 UNL     1       3.984  15.242  17.894  1.00  0.00     0.363 C 
HETATM   40  C29 UNL     1       5.475  15.458  15.880  1.00  0.00     0.148 C 
HETATM   41  O6  UNL     1       3.749  15.528  19.094  1.00  0.00    -0.238 OA
BRANCH  39  42
HETATM   42  O7  UNL     1       3.082  14.435  17.233  1.00  0.00    -0.294 OA
BRANCH  42  43
HETATM   43  C25 UNL     1       1.911  15.008  16.693  1.00  0.00     0.061 C 
HETATM   44  C26 UNL     1       1.767  14.470  15.282  1.00  0.00     0.046 C 
HETATM   45  C27 UNL     1       1.930  16.515  16.676  1.00  0.00     0.046 C 
HETATM   46  C28 UNL     1       0.686  14.577  17.486  1.00  0.00     0.046 C 
ENDBRANCH  42  43
ENDBRANCH  39  42
ENDBRANCH   1  32
TORSDOF 16
ENDMDL
