MODEL 1
REMARK VINA RESULT: -7.774311104      0.000      0.000
REMARK  15 active torsions:
REMARK  status: ('A' for Active; 'I' for Inactive)
REMARK    1  A    between atoms: C2_2  and  O1_3 
REMARK    2  A    between atoms: O1_3  and  C3_4 
REMARK    3  A    between atoms: C3_4  and  C4_5 
REMARK    4  A    between atoms: C6_7  and  C7_8 
REMARK       I    between atoms: C7_8  and  N1_10 
REMARK    5  A    between atoms: N2_17  and  C13_18 
REMARK    6  A    between atoms: C13_18  and  O3_19 
REMARK    7  A    between atoms: C14_21  and  C15_22 
REMARK    8  A    between atoms: C14_21  and  N3_27 
REMARK    9  A    between atoms: C15_22  and  C16_23 
REMARK   10  A    between atoms: C16_23  and  C17_24 
REMARK       I    between atoms: N3_27  and  C18_29 
REMARK   11  A    between atoms: C18_29  and  C19_31 
REMARK   12  A    between atoms: C19_31  and  N4_32 
REMARK   13  A    between atoms: C19_31  and  C25_41 
REMARK       I    between atoms: N4_32  and  C20_34 
REMARK   14  A    between atoms: C20_34  and  O8_36 
REMARK   15  A    between atoms: O8_36  and  C21_37 
ROOT
HETATM    1  C13 UNL     1      19.830  23.928  18.115  1.00  0.00     0.162 C 
HETATM    2  C14 UNL     1      20.490  23.936  19.397  1.00  0.00     0.063 C 
ENDROOT
BRANCH   2   3
HETATM    3  C15 UNL     1      19.795  24.413  20.606  1.00  0.00     0.072 C 
BRANCH   3   4
HETATM    4  C16 UNL     1      18.785  23.387  21.109  1.00  0.00     0.119 C 
BRANCH   4   5
HETATM    5  C17 UNL     1      19.427  22.039  21.231  1.00  0.00     0.172 C 
HETATM    6  O4  UNL     1      20.019  21.753  22.274  1.00  0.00    -0.648 OA
HETATM    7  O5  UNL     1      19.354  21.127  20.184  1.00  0.00    -0.648 OA
ENDBRANCH   4   5
ENDBRANCH   3   4
ENDBRANCH   2   3
BRANCH   2   8
HETATM    8  N3  UNL     1      21.859  24.419  19.249  1.00  0.00    -0.325 N 
HETATM    9  C18 UNL     1      22.854  24.348  20.247  1.00  0.00     0.245 C 
HETATM   10  O6  UNL     1      22.486  23.808  21.340  1.00  0.00    -0.271 OA
ATOM     11  H3  UNL     1      22.117  24.841  18.357  1.00  0.00     0.169 HD
BRANCH   9  12
HETATM   12  C19 UNL     1      24.238  24.828  20.127  1.00  0.00     0.182 C 
BRANCH  12  13
HETATM   13  N4  UNL     1      24.509  25.315  18.762  1.00  0.00    -0.323 N 
HETATM   14  C20 UNL     1      25.028  26.616  18.547  1.00  0.00     0.362 C 
HETATM   15  O7  UNL     1      25.268  27.351  19.530  1.00  0.00    -0.238 OA
ATOM     16  H4  UNL     1      24.320  24.710  17.964  1.00  0.00     0.165 HD
BRANCH  14  17
HETATM   17  O8  UNL     1      25.263  27.066  17.275  1.00  0.00    -0.294 OA
BRANCH  17  18
HETATM   18  C21 UNL     1      26.572  27.108  16.755  1.00  0.00     0.061 C 
HETATM   19  C22 UNL     1      26.447  27.196  15.226  1.00  0.00     0.046 C 
HETATM   20  C23 UNL     1      27.325  25.823  17.040  1.00  0.00     0.046 C 
HETATM   21  C24 UNL     1      27.364  28.307  17.198  1.00  0.00     0.046 C 
ENDBRANCH  17  18
ENDBRANCH  14  17
ENDBRANCH  12  13
BRANCH  12  22
HETATM   22  C25 UNL     1      25.230  23.679  20.312  1.00  0.00     0.009 C 
HETATM   23  C26 UNL     1      26.509  24.158  20.972  1.00  0.00     0.012 C 
HETATM   24  C27 UNL     1      25.576  22.993  19.024  1.00  0.00     0.012 C 
ENDBRANCH  12  22
ENDBRANCH   9  12
ENDBRANCH   2   8
BRANCH   1  25
HETATM   25  N2  UNL     1      18.457  23.950  17.739  1.00  0.00    -0.346 N 
HETATM   26  C6  UNL     1      17.711  25.172  17.536  1.00  0.00     0.179 C 
HETATM   27  C5  UNL     1      16.279  24.795  17.580  1.00  0.00     0.043 C 
HETATM   28  C4  UNL     1      16.243  23.306  17.364  1.00  0.00     0.030 C 
HETATM   29  C28 UNL     1      17.632  22.815  17.543  1.00  0.00     0.132 C 
BRANCH  26  30
HETATM   30  C7  UNL     1      18.121  25.779  16.248  1.00  0.00     0.243 C 
HETATM   31  O2  UNL     1      17.440  25.447  15.197  1.00  0.00    -0.271 OA
HETATM   32  N1  UNL     1      19.180  26.679  16.095  1.00  0.00    -0.340 N 
HETATM   33  C8  UNL     1      20.033  27.086  17.208  1.00  0.00     0.200 C 
HETATM   34  C12 UNL     1      19.541  27.302  14.864  1.00  0.00     0.146 C 
HETATM   35  S1  UNL     1      21.557  27.683  16.356  1.00  0.00    -0.138 SA
HETATM   36  C9  UNL     1      21.019  27.243  14.654  1.00  0.00     0.018 C 
HETATM   37  C10 UNL     1      21.403  28.341  13.679  1.00  0.00     0.028 C 
HETATM   38  C11 UNL     1      21.544  25.900  14.303  1.00  0.00     0.028 C 
ENDBRANCH  26  30
BRANCH  28  39
HETATM   39  C3  UNL     1      15.235  22.736  18.346  1.00  0.00     0.173 C 
BRANCH  39  40
HETATM   40  O1  UNL     1      15.709  21.602  18.960  1.00  0.00    -0.391 OA
BRANCH  40  41
HETATM   41  C2  UNL     1      14.687  20.652  18.884  1.00  0.00     0.163 C 
HETATM   42  C1  UNL     1      15.093  19.625  17.850  1.00  0.00     0.033 C 
ENDBRANCH  40  41
ENDBRANCH  39  40
ENDBRANCH  28  39
ENDBRANCH   1  25
BRANCH   1  43
HETATM   43  O3  UNL     1      20.642  23.892  17.096  1.00  0.00    -0.345 OA
ATOM     44  H3  UNL     1      21.444  23.413  17.272  1.00  0.00     0.219 HD
ENDBRANCH   1  43
TORSDOF 15
ENDMDL
MODEL 2
REMARK VINA RESULT: -7.717606842      4.748     11.156
REMARK  15 active torsions:
REMARK  status: ('A' for Active; 'I' for Inactive)
REMARK    1  A    between atoms: C2_2  and  O1_3 
REMARK    2  A    between atoms: O1_3  and  C3_4 
REMARK    3  A    between atoms: C3_4  and  C4_5 
REMARK    4  A    between atoms: C6_7  and  C7_8 
REMARK       I    between atoms: C7_8  and  N1_10 
REMARK    5  A    between atoms: N2_17  and  C13_18 
REMARK    6  A    between atoms: C13_18  and  O3_19 
REMARK    7  A    between atoms: C14_21  and  C15_22 
REMARK    8  A    between atoms: C14_21  and  N3_27 
REMARK    9  A    between atoms: C15_22  and  C16_23 
REMARK   10  A    between atoms: C16_23  and  C17_24 
REMARK       I    between atoms: N3_27  and  C18_29 
REMARK   11  A    between atoms: C18_29  and  C19_31 
REMARK   12  A    between atoms: C19_31  and  N4_32 
REMARK   13  A    between atoms: C19_31  and  C25_41 
REMARK       I    between atoms: N4_32  and  C20_34 
REMARK   14  A    between atoms: C20_34  and  O8_36 
REMARK   15  A    between atoms: O8_36  and  C21_37 
ROOT
HETATM    1  C13 UNL     1      14.776  21.444  17.163  1.00  0.00     0.162 C 
HETATM    2  C14 UNL     1      13.883  20.342  17.423  1.00  0.00     0.063 C 
ENDROOT
BRANCH   2   3
HETATM    3  C15 UNL     1      14.346  19.142  18.140  1.00  0.00     0.072 C 
BRANCH   3   4
HETATM    4  C16 UNL     1      13.845  19.126  19.581  1.00  0.00     0.119 C 
BRANCH   4   5
HETATM    5  C17 UNL     1      12.536  18.405  19.671  1.00  0.00     0.172 C 
HETATM    6  O4  UNL     1      12.414  17.319  19.102  1.00  0.00    -0.648 OA
HETATM    7  O5  UNL     1      11.478  18.953  20.386  1.00  0.00    -0.648 OA
ENDBRANCH   4   5
ENDBRANCH   3   4
ENDBRANCH   2   3
BRANCH   2   8
HETATM    8  N3  UNL     1      13.070  20.071  16.241  1.00  0.00    -0.325 N 
HETATM    9  C18 UNL     1      11.659  20.046  16.219  1.00  0.00     0.245 C 
HETATM   10  O6  UNL     1      11.096  20.288  17.334  1.00  0.00    -0.271 OA
ATOM     11  H3  UNL     1      13.558  19.887  15.365  1.00  0.00     0.169 HD
BRANCH   9  12
HETATM   12  C19 UNL     1      10.817  19.773  15.046  1.00  0.00     0.182 C 
BRANCH  12  13
HETATM   13  N4  UNL     1      11.236  18.530  14.374  1.00  0.00    -0.323 N 
HETATM   14  C20 UNL     1      10.502  17.330  14.547  1.00  0.00     0.362 C 
HETATM   15  O7  UNL     1       9.481  17.335  15.270  1.00  0.00    -0.238 OA
ATOM     16  H4  UNL     1      12.064  18.532  13.779  1.00  0.00     0.165 HD
BRANCH  14  17
HETATM   17  O8  UNL     1      10.907  16.176  13.931  1.00  0.00    -0.294 OA
BRANCH  17  18
HETATM   18  C21 UNL     1      10.711  15.990  12.547  1.00  0.00     0.061 C 
HETATM   19  C22 UNL     1      10.146  14.573  12.360  1.00  0.00     0.046 C 
HETATM   20  C23 UNL     1      12.025  16.019  11.791  1.00  0.00     0.046 C 
HETATM   21  C24 UNL     1       9.717  16.940  11.940  1.00  0.00     0.046 C 
ENDBRANCH  17  18
ENDBRANCH  14  17
ENDBRANCH  12  13
BRANCH  12  22
HETATM   22  C25 UNL     1      11.008  20.852  13.978  1.00  0.00     0.009 C 
HETATM   23  C26 UNL     1       9.674  21.414  13.521  1.00  0.00     0.012 C 
HETATM   24  C27 UNL     1      11.763  20.359  12.779  1.00  0.00     0.012 C 
ENDBRANCH  12  22
ENDBRANCH   9  12
ENDBRANCH   2   8
BRANCH   1  25
HETATM   25  N2  UNL     1      16.003  21.850  17.761  1.00  0.00    -0.346 N 
HETATM   26  C6  UNL     1      17.287  21.703  17.113  1.00  0.00     0.179 C 
HETATM   27  C5  UNL     1      18.307  21.832  18.180  1.00  0.00     0.043 C 
HETATM   28  C4  UNL     1      17.604  22.489  19.336  1.00  0.00     0.030 C 
HETATM   29  C28 UNL     1      16.150  22.412  19.054  1.00  0.00     0.132 C 
BRANCH  26  30
HETATM   30  C7  UNL     1      17.411  22.730  16.051  1.00  0.00     0.243 C 
HETATM   31  O2  UNL     1      17.043  22.388  14.856  1.00  0.00    -0.271 OA
HETATM   32  N1  UNL     1      17.889  24.028  16.253  1.00  0.00    -0.340 N 
HETATM   33  C8  UNL     1      18.365  24.498  17.550  1.00  0.00     0.200 C 
HETATM   34  C12 UNL     1      17.959  25.031  15.240  1.00  0.00     0.146 C 
HETATM   35  S1  UNL     1      19.434  25.932  17.097  1.00  0.00    -0.138 SA
HETATM   36  C9  UNL     1      19.280  25.727  15.277  1.00  0.00     0.018 C 
HETATM   37  C10 UNL     1      19.120  27.080  14.606  1.00  0.00     0.028 C 
HETATM   38  C11 UNL     1      20.421  24.924  14.772  1.00  0.00     0.028 C 
ENDBRANCH  26  30
BRANCH  28  39
HETATM   39  C3  UNL     1      18.047  21.766  20.596  1.00  0.00     0.173 C 
BRANCH  39  40
HETATM   40  O1  UNL     1      19.403  21.549  20.608  1.00  0.00    -0.391 OA
BRANCH  40  41
HETATM   41  C2  UNL     1      19.896  22.171  21.759  1.00  0.00     0.163 C 
HETATM   42  C1  UNL     1      20.645  23.411  21.324  1.00  0.00     0.033 C 
ENDBRANCH  40  41
ENDBRANCH  39  40
ENDBRANCH  28  39
ENDBRANCH   1  25
BRANCH   1  43
HETATM   43  O3  UNL     1      14.392  22.226  16.194  1.00  0.00    -0.345 OA
ATOM     44  H3  UNL     1      13.484  22.496  16.268  1.00  0.00     0.219 HD
ENDBRANCH   1  43
TORSDOF 15
ENDMDL
MODEL 3
REMARK VINA RESULT: -7.664738196      4.646     11.320
REMARK  15 active torsions:
REMARK  status: ('A' for Active; 'I' for Inactive)
REMARK    1  A    between atoms: C2_2  and  O1_3 
REMARK    2  A    between atoms: O1_3  and  C3_4 
REMARK    3  A    between atoms: C3_4  and  C4_5 
REMARK    4  A    between atoms: C6_7  and  C7_8 
REMARK       I    between atoms: C7_8  and  N1_10 
REMARK    5  A    between atoms: N2_17  and  C13_18 
REMARK    6  A    between atoms: C13_18  and  O3_19 
REMARK    7  A    between atoms: C14_21  and  C15_22 
REMARK    8  A    between atoms: C14_21  and  N3_27 
REMARK    9  A    between atoms: C15_22  and  C16_23 
REMARK   10  A    between atoms: C16_23  and  C17_24 
REMARK       I    between atoms: N3_27  and  C18_29 
REMARK   11  A    between atoms: C18_29  and  C19_31 
REMARK   12  A    between atoms: C19_31  and  N4_32 
REMARK   13  A    between atoms: C19_31  and  C25_41 
REMARK       I    between atoms: N4_32  and  C20_34 
REMARK   14  A    between atoms: C20_34  and  O8_36 
REMARK   15  A    between atoms: O8_36  and  C21_37 
ROOT
HETATM    1  C13 UNL     1      14.758  21.207  17.270  1.00  0.00     0.162 C 
HETATM    2  C14 UNL     1      13.847  20.172  17.693  1.00  0.00     0.063 C 
ENDROOT
BRANCH   2   3
HETATM    3  C15 UNL     1      14.279  19.113  18.622  1.00  0.00     0.072 C 
BRANCH   3   4
HETATM    4  C16 UNL     1      13.591  19.246  19.977  1.00  0.00     0.119 C 
BRANCH   4   5
HETATM    5  C17 UNL     1      12.323  18.449  19.999  1.00  0.00     0.172 C 
HETATM    6  O4  UNL     1      11.288  18.988  20.396  1.00  0.00    -0.648 OA
HETATM    7  O5  UNL     1      12.317  17.124  19.578  1.00  0.00    -0.648 OA
ENDBRANCH   4   5
ENDBRANCH   3   4
ENDBRANCH   2   3
BRANCH   2   8
HETATM    8  N3  UNL     1      13.064  19.702  16.554  1.00  0.00    -0.325 N 
HETATM    9  C18 UNL     1      11.658  19.764  16.458  1.00  0.00     0.245 C 
HETATM   10  O6  UNL     1      11.070  20.280  17.462  1.00  0.00    -0.271 OA
ATOM     11  H3  UNL     1      13.572  19.299  15.766  1.00  0.00     0.169 HD
BRANCH   9  12
HETATM   12  C19 UNL     1      10.845  19.297  15.326  1.00  0.00     0.182 C 
BRANCH  12  13
HETATM   13  N4  UNL     1      11.101  17.872  15.048  1.00  0.00    -0.323 N 
HETATM   14  C20 UNL     1      10.708  16.872  15.972  1.00  0.00     0.362 C 
HETATM   15  O7  UNL     1      10.128  17.206  17.028  1.00  0.00    -0.238 OA
ATOM     16  H4  UNL     1      11.566  17.602  14.181  1.00  0.00     0.165 HD
BRANCH  14  17
HETATM   17  O8  UNL     1      10.962  15.551  15.711  1.00  0.00    -0.294 OA
BRANCH  17  18
HETATM   18  C21 UNL     1      10.144  14.820  14.827  1.00  0.00     0.061 C 
HETATM   19  C22 UNL     1      10.225  13.346  15.254  1.00  0.00     0.046 C 
HETATM   20  C23 UNL     1      10.675  14.873  13.407  1.00  0.00     0.046 C 
HETATM   21  C24 UNL     1       8.693  15.210  14.876  1.00  0.00     0.046 C 
ENDBRANCH  17  18
ENDBRANCH  14  17
ENDBRANCH  12  13
BRANCH  12  22
HETATM   22  C25 UNL     1      11.257  20.004  14.034  1.00  0.00     0.009 C 
HETATM   23  C26 UNL     1      10.403  21.235  13.786  1.00  0.00     0.012 C 
HETATM   24  C27 UNL     1      11.183  19.112  12.831  1.00  0.00     0.012 C 
ENDBRANCH  12  22
ENDBRANCH   9  12
ENDBRANCH   2   8
BRANCH   1  25
HETATM   25  N2  UNL     1      15.972  21.706  17.824  1.00  0.00    -0.346 N 
HETATM   26  C6  UNL     1      17.248  21.606  17.152  1.00  0.00     0.179 C 
HETATM   27  C5  UNL     1      18.281  21.836  18.189  1.00  0.00     0.043 C 
HETATM   28  C4  UNL     1      17.566  22.498  19.335  1.00  0.00     0.030 C 
HETATM   29  C28 UNL     1      16.113  22.327  19.089  1.00  0.00     0.132 C 
BRANCH  26  30
HETATM   30  C7  UNL     1      17.290  22.595  16.048  1.00  0.00     0.243 C 
HETATM   31  O2  UNL     1      16.932  22.181  14.873  1.00  0.00    -0.271 OA
HETATM   32  N1  UNL     1      17.682  23.929  16.191  1.00  0.00    -0.340 N 
HETATM   33  C8  UNL     1      18.140  24.483  17.461  1.00  0.00     0.200 C 
HETATM   34  C12 UNL     1      17.672  24.891  15.138  1.00  0.00     0.146 C 
HETATM   35  S1  UNL     1      19.105  25.965  16.936  1.00  0.00    -0.138 SA
HETATM   36  C9  UNL     1      18.944  25.676  15.127  1.00  0.00     0.018 C 
HETATM   37  C10 UNL     1      18.686  26.986  14.405  1.00  0.00     0.028 C 
HETATM   38  C11 UNL     1      20.131  24.931  14.639  1.00  0.00     0.028 C 
ENDBRANCH  26  30
BRANCH  28  39
HETATM   39  C3  UNL     1      18.075  21.852  20.612  1.00  0.00     0.173 C 
BRANCH  39  40
HETATM   40  O1  UNL     1      19.430  21.627  20.561  1.00  0.00    -0.391 OA
BRANCH  40  41
HETATM   41  C2  UNL     1      19.972  22.194  21.718  1.00  0.00     0.163 C 
HETATM   42  C1  UNL     1      20.132  23.677  21.469  1.00  0.00     0.033 C 
ENDBRANCH  40  41
ENDBRANCH  39  40
ENDBRANCH  28  39
ENDBRANCH   1  25
BRANCH   1  43
HETATM   43  O3  UNL     1      14.408  21.810  16.169  1.00  0.00    -0.345 OA
ATOM     44  H3  UNL     1      13.864  21.273  15.604  1.00  0.00     0.219 HD
ENDBRANCH   1  43
TORSDOF 15
ENDMDL
MODEL 4
REMARK VINA RESULT: -7.584634191      3.474      6.740
REMARK  15 active torsions:
REMARK  status: ('A' for Active; 'I' for Inactive)
REMARK    1  A    between atoms: C2_2  and  O1_3 
REMARK    2  A    between atoms: O1_3  and  C3_4 
REMARK    3  A    between atoms: C3_4  and  C4_5 
REMARK    4  A    between atoms: C6_7  and  C7_8 
REMARK       I    between atoms: C7_8  and  N1_10 
REMARK    5  A    between atoms: N2_17  and  C13_18 
REMARK    6  A    between atoms: C13_18  and  O3_19 
REMARK    7  A    between atoms: C14_21  and  C15_22 
REMARK    8  A    between atoms: C14_21  and  N3_27 
REMARK    9  A    between atoms: C15_22  and  C16_23 
REMARK   10  A    between atoms: C16_23  and  C17_24 
REMARK       I    between atoms: N3_27  and  C18_29 
REMARK   11  A    between atoms: C18_29  and  C19_31 
REMARK   12  A    between atoms: C19_31  and  N4_32 
REMARK   13  A    between atoms: C19_31  and  C25_41 
REMARK       I    between atoms: N4_32  and  C20_34 
REMARK   14  A    between atoms: C20_34  and  O8_36 
REMARK   15  A    between atoms: O8_36  and  C21_37 
ROOT
HETATM    1  C13 UNL     1      16.249  24.273  16.984  1.00  0.00     0.162 C 
HETATM    2  C14 UNL     1      17.246  25.198  16.506  1.00  0.00     0.063 C 
ENDROOT
BRANCH   2   3
HETATM    3  C15 UNL     1      17.902  25.001  15.202  1.00  0.00     0.072 C 
BRANCH   3   4
HETATM    4  C16 UNL     1      17.933  26.294  14.393  1.00  0.00     0.119 C 
BRANCH   4   5
HETATM    5  C17 UNL     1      19.278  26.944  14.499  1.00  0.00     0.172 C 
HETATM    6  O4  UNL     1      20.093  26.779  13.589  1.00  0.00    -0.648 OA
HETATM    7  O5  UNL     1      19.599  27.721  15.606  1.00  0.00    -0.648 OA
ENDBRANCH   4   5
ENDBRANCH   3   4
ENDBRANCH   2   3
BRANCH   2   8
HETATM    8  N3  UNL     1      18.148  25.563  17.595  1.00  0.00    -0.325 N 
HETATM    9  C18 UNL     1      19.351  24.897  17.906  1.00  0.00     0.245 C 
HETATM   10  O6  UNL     1      19.635  23.911  17.151  1.00  0.00    -0.271 OA
ATOM     11  H3  UNL     1      17.888  26.362  18.174  1.00  0.00     0.169 HD
BRANCH   9  12
HETATM   12  C19 UNL     1      20.276  25.241  18.995  1.00  0.00     0.182 C 
BRANCH  12  13
HETATM   13  N4  UNL     1      21.622  25.533  18.471  1.00  0.00    -0.323 N 
HETATM   14  C20 UNL     1      21.992  26.854  18.120  1.00  0.00     0.362 C 
HETATM   15  O7  UNL     1      21.167  27.782  18.269  1.00  0.00    -0.238 OA
ATOM     16  H4  UNL     1      22.295  24.774  18.359  1.00  0.00     0.165 HD
BRANCH  14  17
HETATM   17  O8  UNL     1      23.241  27.114  17.620  1.00  0.00    -0.294 OA
BRANCH  17  18
HETATM   18  C21 UNL     1      23.441  27.283  16.235  1.00  0.00     0.061 C 
HETATM   19  C22 UNL     1      24.946  27.108  15.974  1.00  0.00     0.046 C 
HETATM   20  C23 UNL     1      23.102  28.693  15.793  1.00  0.00     0.046 C 
HETATM   21  C24 UNL     1      22.730  26.265  15.388  1.00  0.00     0.046 C 
ENDBRANCH  17  18
ENDBRANCH  14  17
ENDBRANCH  12  13
BRANCH  12  22
HETATM   22  C25 UNL     1      20.492  24.044  19.923  1.00  0.00     0.009 C 
HETATM   23  C26 UNL     1      19.242  23.740  20.728  1.00  0.00     0.012 C 
HETATM   24  C27 UNL     1      21.643  24.236  20.865  1.00  0.00     0.012 C 
ENDBRANCH  12  22
ENDBRANCH   9  12
ENDBRANCH   2   8
BRANCH   1  25
HETATM   25  N2  UNL     1      15.422  23.321  16.320  1.00  0.00    -0.346 N 
HETATM   26  C6  UNL     1      15.747  21.915  16.232  1.00  0.00     0.179 C 
HETATM   27  C5  UNL     1      14.905  21.363  15.145  1.00  0.00     0.043 C 
HETATM   28  C4  UNL     1      13.802  22.365  14.937  1.00  0.00     0.030 C 
HETATM   29  C28 UNL     1      14.211  23.604  15.642  1.00  0.00     0.132 C 
BRANCH  26  30
HETATM   30  C7  UNL     1      15.502  21.280  17.548  1.00  0.00     0.243 C 
HETATM   31  O2  UNL     1      16.508  21.205  18.362  1.00  0.00    -0.271 OA
HETATM   32  N1  UNL     1      14.271  20.765  17.966  1.00  0.00    -0.340 N 
HETATM   33  C8  UNL     1      13.089  20.764  17.111  1.00  0.00     0.200 C 
HETATM   34  C12 UNL     1      14.026  20.201  19.253  1.00  0.00     0.146 C 
HETATM   35  S1  UNL     1      12.043  19.443  17.863  1.00  0.00    -0.138 SA
HETATM   36  C9  UNL     1      13.266  18.920  19.132  1.00  0.00     0.018 C 
HETATM   37  C10 UNL     1      12.571  18.655  20.455  1.00  0.00     0.028 C 
HETATM   38  C11 UNL     1      14.056  17.775  18.614  1.00  0.00     0.028 C 
ENDBRANCH  26  30
BRANCH  28  39
HETATM   39  C3  UNL     1      13.616  22.518  13.437  1.00  0.00     0.173 C 
BRANCH  39  40
HETATM   40  O1  UNL     1      12.795  21.542  12.925  1.00  0.00    -0.391 OA
BRANCH  40  41
HETATM   41  C2  UNL     1      11.570  21.664  13.587  1.00  0.00     0.163 C 
HETATM   42  C1  UNL     1      10.978  20.278  13.711  1.00  0.00     0.033 C 
ENDBRANCH  40  41
ENDBRANCH  39  40
ENDBRANCH  28  39
ENDBRANCH   1  25
BRANCH   1  43
HETATM   43  O3  UNL     1      16.059  24.309  18.273  1.00  0.00    -0.345 OA
ATOM     44  H3  UNL     1      16.359  25.117  18.673  1.00  0.00     0.219 HD
ENDBRANCH   1  43
TORSDOF 15
ENDMDL
MODEL 5
REMARK VINA RESULT: -7.550280745      2.870      9.701
REMARK  15 active torsions:
REMARK  status: ('A' for Active; 'I' for Inactive)
REMARK    1  A    between atoms: C2_2  and  O1_3 
REMARK    2  A    between atoms: O1_3  and  C3_4 
REMARK    3  A    between atoms: C3_4  and  C4_5 
REMARK    4  A    between atoms: C6_7  and  C7_8 
REMARK       I    between atoms: C7_8  and  N1_10 
REMARK    5  A    between atoms: N2_17  and  C13_18 
REMARK    6  A    between atoms: C13_18  and  O3_19 
REMARK    7  A    between atoms: C14_21  and  C15_22 
REMARK    8  A    between atoms: C14_21  and  N3_27 
REMARK    9  A    between atoms: C15_22  and  C16_23 
REMARK   10  A    between atoms: C16_23  and  C17_24 
REMARK       I    between atoms: N3_27  and  C18_29 
REMARK   11  A    between atoms: C18_29  and  C19_31 
REMARK   12  A    between atoms: C19_31  and  N4_32 
REMARK   13  A    between atoms: C19_31  and  C25_41 
REMARK       I    between atoms: N4_32  and  C20_34 
REMARK   14  A    between atoms: C20_34  and  O8_36 
REMARK   15  A    between atoms: O8_36  and  C21_37 
ROOT
HETATM    1  C13 UNL     1      17.399  24.864  16.739  1.00  0.00     0.162 C 
HETATM    2  C14 UNL     1      17.183  23.534  17.250  1.00  0.00     0.063 C 
ENDROOT
BRANCH   2   3
HETATM    3  C15 UNL     1      18.184  22.471  17.048  1.00  0.00     0.072 C 
BRANCH   3   4
HETATM    4  C16 UNL     1      17.989  21.327  18.038  1.00  0.00     0.119 C 
BRANCH   4   5
HETATM    5  C17 UNL     1      18.501  21.714  19.391  1.00  0.00     0.172 C 
HETATM    6  O4  UNL     1      19.678  21.483  19.671  1.00  0.00    -0.648 OA
HETATM    7  O5  UNL     1      17.660  22.325  20.314  1.00  0.00    -0.648 OA
ENDBRANCH   4   5
ENDBRANCH   3   4
ENDBRANCH   2   3
BRANCH   2   8
HETATM    8  N3  UNL     1      15.802  23.125  17.008  1.00  0.00    -0.325 N 
HETATM    9  C18 UNL     1      15.353  22.432  15.864  1.00  0.00     0.245 C 
HETATM   10  O6  UNL     1      16.254  22.159  15.008  1.00  0.00    -0.271 OA
ATOM     11  H3  UNL     1      15.110  23.359  17.719  1.00  0.00     0.169 HD
BRANCH   9  12
HETATM   12  C19 UNL     1      13.971  22.012  15.594  1.00  0.00     0.182 C 
BRANCH  12  13
HETATM   13  N4  UNL     1      13.744  20.627  16.044  1.00  0.00    -0.323 N 
HETATM   14  C20 UNL     1      13.514  20.338  17.412  1.00  0.00     0.362 C 
HETATM   15  O7  UNL     1      13.493  21.274  18.241  1.00  0.00    -0.238 OA
ATOM     16  H4  UNL     1      13.754  19.867  15.364  1.00  0.00     0.165 HD
BRANCH  14  17
HETATM   17  O8  UNL     1      13.319  19.046  17.823  1.00  0.00    -0.294 OA
BRANCH  17  18
HETATM   18  C21 UNL     1      12.032  18.585  18.166  1.00  0.00     0.061 C 
HETATM   19  C22 UNL     1      11.940  17.123  17.702  1.00  0.00     0.046 C 
HETATM   20  C23 UNL     1      10.954  19.333  17.407  1.00  0.00     0.046 C 
HETATM   21  C24 UNL     1      11.757  18.592  19.644  1.00  0.00     0.046 C 
ENDBRANCH  17  18
ENDBRANCH  14  17
ENDBRANCH  12  13
BRANCH  12  22
HETATM   22  C25 UNL     1      13.704  21.959  14.089  1.00  0.00     0.009 C 
HETATM   23  C26 UNL     1      12.776  23.079  13.656  1.00  0.00     0.012 C 
HETATM   24  C27 UNL     1      13.124  20.649  13.644  1.00  0.00     0.012 C 
ENDBRANCH  12  22
ENDBRANCH   9  12
ENDBRANCH   2   8
BRANCH   1  25
HETATM   25  N2  UNL     1      18.575  25.566  16.348  1.00  0.00    -0.346 N 
HETATM   26  C6  UNL     1      19.431  26.261  17.283  1.00  0.00     0.179 C 
HETATM   27  C5  UNL     1      20.264  27.183  16.476  1.00  0.00     0.043 C 
HETATM   28  C4  UNL     1      20.177  26.677  15.062  1.00  0.00     0.030 C 
HETATM   29  C28 UNL     1      19.052  25.712  15.021  1.00  0.00     0.132 C 
BRANCH  26  30
HETATM   30  C7  UNL     1      20.222  25.264  18.044  1.00  0.00     0.243 C 
HETATM   31  O2  UNL     1      20.224  24.048  17.596  1.00  0.00    -0.271 OA
HETATM   32  N1  UNL     1      20.961  25.548  19.196  1.00  0.00    -0.340 N 
HETATM   33  C8  UNL     1      20.993  26.875  19.803  1.00  0.00     0.200 C 
HETATM   34  C12 UNL     1      21.764  24.599  19.896  1.00  0.00     0.146 C 
HETATM   35  S1  UNL     1      21.513  26.518  21.536  1.00  0.00    -0.138 SA
HETATM   36  C9  UNL     1      21.523  24.687  21.368  1.00  0.00     0.018 C 
HETATM   37  C10 UNL     1      22.728  24.099  22.081  1.00  0.00     0.028 C 
HETATM   38  C11 UNL     1      20.218  24.144  21.819  1.00  0.00     0.028 C 
ENDBRANCH  26  30
BRANCH  28  39
HETATM   39  C3  UNL     1      20.007  27.890  14.164  1.00  0.00     0.173 C 
BRANCH  39  40
HETATM   40  O1  UNL     1      20.956  28.850  14.422  1.00  0.00    -0.391 OA
BRANCH  40  41
HETATM   41  C2  UNL     1      22.181  28.321  14.006  1.00  0.00     0.163 C 
HETATM   42  C1  UNL     1      23.209  28.661  15.062  1.00  0.00     0.033 C 
ENDBRANCH  40  41
ENDBRANCH  39  40
ENDBRANCH  28  39
ENDBRANCH   1  25
BRANCH   1  43
HETATM   43  O3  UNL     1      16.311  25.571  16.610  1.00  0.00    -0.345 OA
ATOM     44  H3  UNL     1      16.434  26.356  16.089  1.00  0.00     0.219 HD
ENDBRANCH   1  43
TORSDOF 15
ENDMDL
