MODEL 1
REMARK VINA RESULT: -7.989020998      0.000      0.000
REMARK  0 active torsions:
REMARK  status: ('A' for Active; 'I' for Inactive)
ROOT
HETATM    1  C1  UNL     1       7.521  -0.299  11.836  1.00  0.00     0.012 C 
HETATM    2  C2  UNL     1       8.749  -0.131  12.707  1.00  0.00     0.005 C 
HETATM    3  C3  UNL     1       8.719  -1.080  13.881  1.00  0.00     0.011 C 
HETATM    4  C4  UNL     1      10.001  -0.885  14.651  1.00  0.00     0.069 C 
HETATM    5  C5  UNL     1      10.294   0.581  14.919  1.00  0.00     0.170 C 
HETATM    6  C6  UNL     1      11.505   0.938  14.124  1.00  0.00     0.069 C 
HETATM    7  C7  UNL     1      12.242   2.144  14.556  1.00  0.00     0.013 C 
HETATM    8  C8  UNL     1      11.625   2.706  15.790  1.00  0.00     0.107 C 
HETATM    9  C9  UNL     1      11.384   1.566  16.730  1.00  0.00     0.341 C 
HETATM   10  O1  UNL     1      11.044   2.151  17.973  1.00  0.00    -0.168 OA
HETATM   11  O2  UNL     1      11.488   1.386  18.936  1.00  0.00    -0.226 OA
HETATM   12  C10 UNL     1      12.672   1.788  19.484  1.00  0.00     0.207 C 
HETATM   13  C11 UNL     1      13.860   1.786  18.564  1.00  0.00     0.122 C 
HETATM   14  C12 UNL     1      14.463   3.198  18.438  1.00  0.00     0.052 C 
HETATM   15  C13 UNL     1      15.000   0.888  19.005  1.00  0.00     0.044 C 
HETATM   16  C14 UNL     1      15.296   0.891  20.479  1.00  0.00     0.009 C 
HETATM   17  C15 UNL     1      14.272   1.615  21.206  1.00  0.00     0.006 A 
HETATM   18  C16 UNL     1      13.176   1.275  22.034  1.00  0.00    -0.033 A 
HETATM   19  C17 UNL     1      13.409   0.153  23.052  1.00  0.00     0.016 C 
HETATM   20  C18 UNL     1      12.325   2.376  22.683  1.00  0.00     0.016 C 
HETATM   21  C19 UNL     1      12.957   0.958  20.665  1.00  0.00    -0.000 A 
HETATM   22  C20 UNL     1      12.913  -0.507  20.375  1.00  0.00     0.019 C 
HETATM   23  O3  UNL     1      13.582   1.431  17.257  1.00  0.00    -0.222 OA
HETATM   24  O4  UNL     1      12.526   0.807  16.982  1.00  0.00    -0.168 OA
HETATM   25  O5  UNL     1      10.415   0.713  16.281  1.00  0.00    -0.292 OA
HETATM   26  O6  UNL     1       9.223   1.368  14.539  1.00  0.00    -0.354 OA
HETATM   27  C21 UNL     1       8.839   1.261  13.241  1.00  0.00     0.175 C 
ENDROOT
TORSDOF 0
ENDMDL
MODEL 2
REMARK VINA RESULT: -7.396679702      4.104      4.958
REMARK  0 active torsions:
REMARK  status: ('A' for Active; 'I' for Inactive)
ROOT
HETATM    1  C1  UNL     1       6.503   3.191  13.046  1.00  0.00     0.012 C 
HETATM    2  C2  UNL     1       8.014   3.170  12.931  1.00  0.00     0.005 C 
HETATM    3  C3  UNL     1       8.618   2.150  13.865  1.00  0.00     0.011 C 
HETATM    4  C4  UNL     1      10.109   2.158  13.637  1.00  0.00     0.069 C 
HETATM    5  C5  UNL     1      10.684   3.564  13.637  1.00  0.00     0.170 C 
HETATM    6  C6  UNL     1      11.147   3.848  12.249  1.00  0.00     0.069 C 
HETATM    7  C7  UNL     1      12.133   4.939  12.095  1.00  0.00     0.013 C 
HETATM    8  C8  UNL     1      12.515   5.474  13.431  1.00  0.00     0.107 C 
HETATM    9  C9  UNL     1      12.787   4.303  14.323  1.00  0.00     0.341 C 
HETATM   10  O1  UNL     1      13.388   4.832  15.489  1.00  0.00    -0.168 OA
HETATM   11  O2  UNL     1      14.244   3.961  15.957  1.00  0.00    -0.226 OA
HETATM   12  C10 UNL     1      15.544   4.199  15.617  1.00  0.00     0.207 C 
HETATM   13  C11 UNL     1      15.866   4.138  14.152  1.00  0.00     0.122 C 
HETATM   14  C12 UNL     1      16.421   5.486  13.652  1.00  0.00     0.052 C 
HETATM   15  C13 UNL     1      16.904   3.099  13.775  1.00  0.00     0.044 C 
HETATM   16  C14 UNL     1      18.066   2.969  14.720  1.00  0.00     0.009 C 
HETATM   17  C15 UNL     1      17.837   3.743  15.924  1.00  0.00     0.006 A 
HETATM   18  C16 UNL     1      17.484   3.461  17.266  1.00  0.00    -0.033 A 
HETATM   19  C17 UNL     1      18.169   2.254  17.914  1.00  0.00     0.016 C 
HETATM   20  C18 UNL     1      17.383   4.597  18.294  1.00  0.00     0.016 C 
HETATM   21  C19 UNL     1      16.409   3.265  16.356  1.00  0.00    -0.000 A 
HETATM   22  C20 UNL     1      16.009   1.835  16.179  1.00  0.00     0.019 C 
HETATM   23  O3  UNL     1      14.781   3.906  13.328  1.00  0.00    -0.222 OA
HETATM   24  O4  UNL     1      13.724   3.414  13.798  1.00  0.00    -0.168 OA
HETATM   25  O5  UNL     1      11.656   3.588  14.607  1.00  0.00    -0.292 OA
HETATM   26  O6  UNL     1       9.723   4.482  14.018  1.00  0.00    -0.354 OA
HETATM   27  C21 UNL     1       8.593   4.505  13.266  1.00  0.00     0.175 C 
ENDROOT
TORSDOF 0
ENDMDL
MODEL 3
REMARK VINA RESULT: -7.347569693      1.678      7.326
REMARK  0 active torsions:
REMARK  status: ('A' for Active; 'I' for Inactive)
ROOT
HETATM    1  C1  UNL     1      13.180   0.412  23.737  1.00  0.00     0.012 C 
HETATM    2  C2  UNL     1      13.297   0.783  22.272  1.00  0.00     0.005 C 
HETATM    3  C3  UNL     1      12.510   2.033  21.962  1.00  0.00     0.011 C 
HETATM    4  C4  UNL     1      12.733   2.356  20.506  1.00  0.00     0.069 C 
HETATM    5  C5  UNL     1      12.541   1.144  19.610  1.00  0.00     0.170 C 
HETATM    6  C6  UNL     1      13.878   0.800  19.047  1.00  0.00     0.069 C 
HETATM    7  C7  UNL     1      13.882  -0.030  17.823  1.00  0.00     0.013 C 
HETATM    8  C8  UNL     1      12.484  -0.275  17.369  1.00  0.00     0.107 C 
HETATM    9  C9  UNL     1      11.760   1.034  17.416  1.00  0.00     0.341 C 
HETATM   10  O1  UNL     1      10.533   0.825  16.745  1.00  0.00    -0.168 OA
HETATM   11  O2  UNL     1      10.188   1.932  16.139  1.00  0.00    -0.226 OA
HETATM   12  C10 UNL     1      10.491   1.972  14.809  1.00  0.00     0.207 C 
HETATM   13  C11 UNL     1      11.951   1.916  14.462  1.00  0.00     0.122 C 
HETATM   14  C12 UNL     1      12.262   0.689  13.584  1.00  0.00     0.052 C 
HETATM   15  C13 UNL     1      12.466   3.116  13.692  1.00  0.00     0.044 C 
HETATM   16  C14 UNL     1      11.546   3.647  12.627  1.00  0.00     0.009 C 
HETATM   17  C15 UNL     1      10.248   3.007  12.705  1.00  0.00     0.006 A 
HETATM   18  C16 UNL     1       8.957   3.369  13.160  1.00  0.00    -0.033 A 
HETATM   19  C17 UNL     1       8.479   4.782  12.806  1.00  0.00     0.016 C 
HETATM   20  C18 UNL     1       7.784   2.389  13.019  1.00  0.00     0.016 C 
HETATM   21  C19 UNL     1       9.886   3.177  14.219  1.00  0.00    -0.000 A 
HETATM   22  C20 UNL     1      10.256   4.431  14.944  1.00  0.00     0.019 C 
HETATM   23  O3  UNL     1      12.799   1.767  15.543  1.00  0.00    -0.222 OA
HETATM   24  O4  UNL     1      12.401   2.046  16.702  1.00  0.00    -0.168 OA
HETATM   25  O5  UNL     1      11.577   1.485  18.694  1.00  0.00    -0.292 OA
HETATM   26  O6  UNL     1      12.039   0.080  20.335  1.00  0.00    -0.354 OA
HETATM   27  C21 UNL     1      12.782  -0.316  21.401  1.00  0.00     0.175 C 
ENDROOT
TORSDOF 0
ENDMDL
MODEL 4
REMARK VINA RESULT: -7.111766064      3.574      6.110
REMARK  0 active torsions:
REMARK  status: ('A' for Active; 'I' for Inactive)
ROOT
HETATM    1  C1  UNL     1       9.884  -2.856  18.554  1.00  0.00     0.012 C 
HETATM    2  C2  UNL     1      10.373  -1.819  17.563  1.00  0.00     0.005 C 
HETATM    3  C3  UNL     1      11.758  -2.154  17.063  1.00  0.00     0.011 C 
HETATM    4  C4  UNL     1      12.133  -1.107  16.044  1.00  0.00     0.069 C 
HETATM    5  C5  UNL     1      11.870   0.303  16.542  1.00  0.00     0.170 C 
HETATM    6  C6  UNL     1      10.761   0.859  15.715  1.00  0.00     0.069 C 
HETATM    7  C7  UNL     1      10.633   2.333  15.694  1.00  0.00     0.013 C 
HETATM    8  C8  UNL     1      11.739   2.953  16.475  1.00  0.00     0.107 C 
HETATM    9  C9  UNL     1      13.011   2.279  16.064  1.00  0.00     0.341 C 
HETATM   10  O1  UNL     1      14.058   3.052  16.619  1.00  0.00    -0.168 OA
HETATM   11  O2  UNL     1      15.088   3.009  15.814  1.00  0.00    -0.226 OA
HETATM   12  C10 UNL     1      15.216   4.091  14.992  1.00  0.00     0.207 C 
HETATM   13  C11 UNL     1      14.106   4.304  14.003  1.00  0.00     0.122 C 
HETATM   14  C12 UNL     1      13.427   5.669  14.221  1.00  0.00     0.052 C 
HETATM   15  C13 UNL     1      14.541   4.285  12.550  1.00  0.00     0.044 C 
HETATM   16  C14 UNL     1      15.842   4.978  12.254  1.00  0.00     0.009 C 
HETATM   17  C15 UNL     1      16.517   5.348  13.481  1.00  0.00     0.006 A 
HETATM   18  C16 UNL     1      17.628   4.871  14.219  1.00  0.00    -0.033 A 
HETATM   19  C17 UNL     1      18.863   4.463  13.409  1.00  0.00     0.016 C 
HETATM   20  C18 UNL     1      18.077   5.595  15.496  1.00  0.00     0.016 C 
HETATM   21  C19 UNL     1      16.503   4.003  14.284  1.00  0.00    -0.000 A 
HETATM   22  C20 UNL     1      16.691   2.702  13.574  1.00  0.00     0.019 C 
HETATM   23  O3  UNL     1      13.063   3.401  14.098  1.00  0.00    -0.222 OA
HETATM   24  O4  UNL     1      13.229   2.303  14.686  1.00  0.00    -0.168 OA
HETATM   25  O5  UNL     1      13.066   0.974  16.466  1.00  0.00    -0.292 OA
HETATM   26  O6  UNL     1      11.510   0.287  17.877  1.00  0.00    -0.354 OA
HETATM   27  C21 UNL     1      10.423  -0.464  18.190  1.00  0.00     0.175 C 
ENDROOT
TORSDOF 0
ENDMDL
MODEL 5
REMARK VINA RESULT: -7.007847768      2.419      3.517
REMARK  0 active torsions:
REMARK  status: ('A' for Active; 'I' for Inactive)
ROOT
HETATM    1  C1  UNL     1      11.385   4.597  11.566  1.00  0.00     0.012 C 
HETATM    2  C2  UNL     1      11.234   3.724  12.796  1.00  0.00     0.005 C 
HETATM    3  C3  UNL     1      10.299   4.354  13.800  1.00  0.00     0.011 C 
HETATM    4  C4  UNL     1      10.164   3.392  14.954  1.00  0.00     0.069 C 
HETATM    5  C5  UNL     1      11.510   2.886  15.442  1.00  0.00     0.170 C 
HETATM    6  C6  UNL     1      11.577   1.433  15.114  1.00  0.00     0.069 C 
HETATM    7  C7  UNL     1      12.561   0.632  15.874  1.00  0.00     0.013 C 
HETATM    8  C8  UNL     1      13.232   1.483  16.895  1.00  0.00     0.107 C 
HETATM    9  C9  UNL     1      12.168   2.271  17.594  1.00  0.00     0.341 C 
HETATM   10  O1  UNL     1      12.794   2.866  18.714  1.00  0.00    -0.168 OA
HETATM   11  O2  UNL     1      11.927   2.949  19.689  1.00  0.00    -0.226 OA
HETATM   12  C10 UNL     1      12.020   1.957  20.622  1.00  0.00     0.207 C 
HETATM   13  C11 UNL     1      11.747   0.564  20.133  1.00  0.00     0.122 C 
HETATM   14  C12 UNL     1      12.973  -0.345  20.344  1.00  0.00     0.052 C 
HETATM   15  C13 UNL     1      10.592  -0.135  20.824  1.00  0.00     0.044 C 
HETATM   16  C14 UNL     1      10.496   0.084  22.308  1.00  0.00     0.009 C 
HETATM   17  C15 UNL     1      11.433   1.103  22.739  1.00  0.00     0.006 A 
HETATM   18  C16 UNL     1      11.354   2.459  23.137  1.00  0.00    -0.033 A 
HETATM   19  C17 UNL     1      10.190   2.833  24.061  1.00  0.00     0.016 C 
HETATM   20  C18 UNL     1      12.616   3.208  23.585  1.00  0.00     0.016 C 
HETATM   21  C19 UNL     1      11.125   2.274  21.746  1.00  0.00    -0.000 A 
HETATM   22  C20 UNL     1       9.719   2.544  21.315  1.00  0.00     0.019 C 
HETATM   23  O3  UNL     1      11.495   0.462  18.777  1.00  0.00    -0.222 OA
HETATM   24  O4  UNL     1      11.150   1.477  18.121  1.00  0.00    -0.168 OA
HETATM   25  O5  UNL     1      11.584   3.200  16.778  1.00  0.00    -0.292 OA
HETATM   26  O6  UNL     1      12.540   3.566  14.819  1.00  0.00    -0.354 OA
HETATM   27  C21 UNL     1      12.553   3.510  13.463  1.00  0.00     0.175 C 
ENDROOT
TORSDOF 0
ENDMDL
