MODEL 1
REMARK VINA RESULT: -9.101493412      0.000      0.000
REMARK  6 active torsions:
REMARK  status: ('A' for Active; 'I' for Inactive)
REMARK    1  A    between atoms: C2_2  and  O1_3 
REMARK    2  A    between atoms: O1_3  and  C3_4 
REMARK    3  A    between atoms: C3_4  and  C4_5 
REMARK    4  A    between atoms: C4_5  and  C5_6 
REMARK    5  A    between atoms: C5_6  and  N1_7 
REMARK    6  A    between atoms: N2_17  and  C15_18 
ROOT
HETATM    1  C3  UNL     1     -12.555   1.054 -18.996  1.00  0.00     0.073 C 
HETATM    2  C11 UNL     1     -11.924   1.582 -17.685  1.00  0.00     0.118 C 
HETATM    3  C12 UNL     1     -12.502   2.846 -17.475  1.00  0.00    -0.179 C 
HETATM    4  C13 UNL     1     -12.851   4.080 -16.895  1.00  0.00     0.099 C 
HETATM    5  C14 UNL     1     -13.916   4.653 -17.908  1.00  0.00     0.128 C 
HETATM    6  N2  UNL     1     -14.732   3.678 -18.484  1.00  0.00    -0.407 N 
HETATM    7  C23 UNL     1     -14.326   2.892 -19.637  1.00  0.00     0.120 C 
HETATM    8  C24 UNL     1     -13.946   1.485 -19.263  1.00  0.00     0.058 C 
ENDROOT
BRANCH   1   9
HETATM    9  O1  UNL     1     -12.549  -0.300 -18.830  1.00  0.00    -0.380 OA
BRANCH   9  10
HETATM   10  C2  UNL     1     -12.166  -0.867 -17.678  1.00  0.00     0.164 C 
HETATM   11  C1  UNL     1     -13.215  -1.948 -17.342  1.00  0.00     0.033 C 
ENDBRANCH   9  10
ENDBRANCH   1   9
BRANCH   1  12
HETATM   12  C4  UNL     1     -11.707   1.395 -20.174  1.00  0.00     0.069 C 
BRANCH  12  13
HETATM   13  C5  UNL     1     -10.271   1.019 -20.108  1.00  0.00     0.275 C 
BRANCH  13  14
HETATM   14  N1  UNL     1     -10.008  -0.070 -21.071  1.00  0.00     0.088 N 
HETATM   15  C6  UNL     1     -11.006  -0.083 -22.084  1.00  0.00     0.272 C 
HETATM   16  C7  UNL     1     -10.603  -0.816 -23.336  1.00  0.00     0.030 C 
HETATM   17  C8  UNL     1      -9.230  -0.457 -23.837  1.00  0.00     0.003 C 
HETATM   18  C9  UNL     1      -8.266  -0.732 -22.682  1.00  0.00     0.030 C 
HETATM   19  C10 UNL     1      -8.669   0.188 -21.565  1.00  0.00     0.272 C 
ENDBRANCH  13  14
ENDBRANCH  12  13
ENDBRANCH   1  12
BRANCH   6  20
HETATM   20  C15 UNL     1     -16.148   3.935 -18.423  1.00  0.00     0.079 C 
HETATM   21  C16 UNL     1     -16.795   2.820 -17.669  1.00  0.00     0.029 C 
HETATM   22  C17 UNL     1     -18.267   2.663 -17.948  1.00  0.00    -0.012 C 
HETATM   23  C18 UNL     1     -19.040   3.944 -17.889  1.00  0.00     0.005 C 
HETATM   24  C21 UNL     1     -18.376   2.313 -19.438  1.00  0.00     0.009 C 
HETATM   25  C19 UNL     1     -19.007   4.560 -19.272  1.00  0.00     0.005 C 
HETATM   26  C20 UNL     1     -18.058   3.664 -20.050  1.00  0.00    -0.012 C 
HETATM   27  C22 UNL     1     -16.652   4.101 -19.821  1.00  0.00     0.029 C 
ENDBRANCH   6  20
TORSDOF 6
ENDMDL
MODEL 2
REMARK VINA RESULT: -9.070789524      3.551      5.005
REMARK  6 active torsions:
REMARK  status: ('A' for Active; 'I' for Inactive)
REMARK    1  A    between atoms: C2_2  and  O1_3 
REMARK    2  A    between atoms: O1_3  and  C3_4 
REMARK    3  A    between atoms: C3_4  and  C4_5 
REMARK    4  A    between atoms: C4_5  and  C5_6 
REMARK    5  A    between atoms: C5_6  and  N1_7 
REMARK    6  A    between atoms: N2_17  and  C15_18 
ROOT
HETATM    1  C3  UNL     1     -11.252   1.249 -19.711  1.00  0.00     0.073 C 
HETATM    2  C11 UNL     1     -12.087   0.275 -18.844  1.00  0.00     0.118 C 
HETATM    3  C12 UNL     1     -11.841   0.657 -17.513  1.00  0.00    -0.179 C 
HETATM    4  C13 UNL     1     -11.897   0.731 -16.109  1.00  0.00     0.099 C 
HETATM    5  C14 UNL     1     -10.939   1.943 -15.786  1.00  0.00     0.128 C 
HETATM    6  N2  UNL     1     -10.979   2.965 -16.734  1.00  0.00    -0.407 N 
HETATM    7  C23 UNL     1     -10.214   2.926 -17.969  1.00  0.00     0.120 C 
HETATM    8  C24 UNL     1     -11.074   2.613 -19.162  1.00  0.00     0.058 C 
ENDROOT
BRANCH   1   9
HETATM    9  O1  UNL     1     -11.970   1.341 -20.868  1.00  0.00    -0.380 OA
BRANCH   9  10
HETATM   10  C2  UNL     1     -13.180   0.779 -20.992  1.00  0.00     0.164 C 
HETATM   11  C1  UNL     1     -13.215   0.097 -22.377  1.00  0.00     0.033 C 
ENDBRANCH   9  10
ENDBRANCH   1   9
BRANCH   1  12
HETATM   12  C4  UNL     1      -9.913   0.673 -20.025  1.00  0.00     0.069 C 
BRANCH  12  13
HETATM   13  C5  UNL     1      -9.679   0.221 -21.421  1.00  0.00     0.275 C 
BRANCH  13  14
HETATM   14  N1  UNL     1      -8.669  -0.856 -21.421  1.00  0.00     0.088 N 
HETATM   15  C6  UNL     1      -7.379  -0.322 -21.696  1.00  0.00     0.272 C 
HETATM   16  C7  UNL     1      -6.241  -1.213 -21.272  1.00  0.00     0.030 C 
HETATM   17  C8  UNL     1      -6.387  -1.769 -19.881  1.00  0.00     0.003 C 
HETATM   18  C9  UNL     1      -7.727  -2.507 -19.852  1.00  0.00     0.030 C 
HETATM   19  C10 UNL     1      -8.785  -1.473 -20.113  1.00  0.00     0.272 C 
ENDBRANCH  13  14
ENDBRANCH  12  13
ENDBRANCH   1  12
BRANCH   6  20
HETATM   20  C15 UNL     1     -11.171   4.294 -16.210  1.00  0.00     0.079 C 
HETATM   21  C16 UNL     1     -10.623   4.333 -14.821  1.00  0.00     0.029 C 
HETATM   22  C17 UNL     1     -11.184   5.442 -13.970  1.00  0.00    -0.012 C 
HETATM   23  C18 UNL     1     -11.194   6.781 -14.641  1.00  0.00     0.005 C 
HETATM   24  C21 UNL     1     -12.686   5.156 -13.845  1.00  0.00     0.009 C 
HETATM   25  C19 UNL     1     -12.506   6.907 -15.387  1.00  0.00     0.005 C 
HETATM   26  C20 UNL     1     -13.144   5.535 -15.241  1.00  0.00    -0.012 C 
HETATM   27  C22 UNL     1     -12.626   4.625 -16.301  1.00  0.00     0.029 C 
ENDBRANCH   6  20
TORSDOF 6
ENDMDL
MODEL 3
REMARK VINA RESULT: -9.047709379      2.297      4.999
REMARK  6 active torsions:
REMARK  status: ('A' for Active; 'I' for Inactive)
REMARK    1  A    between atoms: C2_2  and  O1_3 
REMARK    2  A    between atoms: O1_3  and  C3_4 
REMARK    3  A    between atoms: C3_4  and  C4_5 
REMARK    4  A    between atoms: C4_5  and  C5_6 
REMARK    5  A    between atoms: C5_6  and  N1_7 
REMARK    6  A    between atoms: N2_17  and  C15_18 
ROOT
HETATM    1  C3  UNL     1     -13.193   1.991 -19.326  1.00  0.00     0.073 C 
HETATM    2  C11 UNL     1     -13.541   0.929 -18.256  1.00  0.00     0.118 C 
HETATM    3  C12 UNL     1     -12.633   1.146 -17.206  1.00  0.00    -0.179 C 
HETATM    4  C13 UNL     1     -11.969   1.053 -15.968  1.00  0.00     0.099 C 
HETATM    5  C14 UNL     1     -10.898   2.209 -16.060  1.00  0.00     0.128 C 
HETATM    6  N2  UNL     1     -11.341   3.338 -16.750  1.00  0.00    -0.407 N 
HETATM    7  C23 UNL     1     -11.307   3.440 -18.199  1.00  0.00     0.120 C 
HETATM    8  C24 UNL     1     -12.671   3.279 -18.813  1.00  0.00     0.058 C 
ENDROOT
BRANCH   1   9
HETATM    9  O1  UNL     1     -14.388   2.227 -19.942  1.00  0.00    -0.380 OA
BRANCH   9  10
HETATM   10  C2  UNL     1     -14.947   3.445 -19.952  1.00  0.00     0.164 C 
HETATM   11  C1  UNL     1     -16.305   3.319 -19.229  1.00  0.00     0.033 C 
ENDBRANCH   9  10
ENDBRANCH   1   9
BRANCH   1  12
HETATM   12  C4  UNL     1     -12.237   1.446 -20.333  1.00  0.00     0.069 C 
BRANCH  12  13
HETATM   13  C5  UNL     1     -12.813   0.695 -21.478  1.00  0.00     0.275 C 
BRANCH  13  14
HETATM   14  N1  UNL     1     -11.800  -0.243 -22.003  1.00  0.00     0.088 N 
HETATM   15  C6  UNL     1     -11.806  -0.228 -23.425  1.00  0.00     0.272 C 
HETATM   16  C7  UNL     1     -10.546  -0.767 -24.051  1.00  0.00     0.030 C 
HETATM   17  C8  UNL     1      -9.282  -0.225 -23.440  1.00  0.00     0.003 C 
HETATM   18  C9  UNL     1      -9.356  -0.545 -21.946  1.00  0.00     0.030 C 
HETATM   19  C10 UNL     1     -10.549   0.194 -21.413  1.00  0.00     0.272 C 
ENDBRANCH  13  14
ENDBRANCH  12  13
ENDBRANCH   1  12
BRANCH   6  20
HETATM   20  C15 UNL     1     -11.151   4.596 -16.073  1.00  0.00     0.079 C 
HETATM   21  C16 UNL     1     -10.768   4.313 -14.657  1.00  0.00     0.029 C 
HETATM   22  C17 UNL     1     -11.029   5.454 -13.710  1.00  0.00    -0.012 C 
HETATM   23  C18 UNL     1     -10.541   6.781 -14.202  1.00  0.00     0.005 C 
HETATM   24  C21 UNL     1     -12.549   5.669 -13.722  1.00  0.00     0.009 C 
HETATM   25  C19 UNL     1     -11.658   7.407 -15.011  1.00  0.00     0.005 C 
HETATM   26  C20 UNL     1     -12.713   6.315 -15.084  1.00  0.00    -0.012 C 
HETATM   27  C22 UNL     1     -12.406   5.396 -16.216  1.00  0.00     0.029 C 
ENDBRANCH   6  20
TORSDOF 6
ENDMDL
MODEL 4
REMARK VINA RESULT: -8.997327863      3.095      4.631
REMARK  6 active torsions:
REMARK  status: ('A' for Active; 'I' for Inactive)
REMARK    1  A    between atoms: C2_2  and  O1_3 
REMARK    2  A    between atoms: O1_3  and  C3_4 
REMARK    3  A    between atoms: C3_4  and  C4_5 
REMARK    4  A    between atoms: C4_5  and  C5_6 
REMARK    5  A    between atoms: C5_6  and  N1_7 
REMARK    6  A    between atoms: N2_17  and  C15_18 
ROOT
HETATM    1  C3  UNL     1     -12.109   3.989 -16.321  1.00  0.00     0.073 C 
HETATM    2  C11 UNL     1     -11.461   3.735 -17.703  1.00  0.00     0.118 C 
HETATM    3  C12 UNL     1     -12.452   3.093 -18.466  1.00  0.00    -0.179 C 
HETATM    4  C13 UNL     1     -13.138   2.497 -19.541  1.00  0.00     0.099 C 
HETATM    5  C14 UNL     1     -14.560   2.200 -18.924  1.00  0.00     0.128 C 
HETATM    6  N2  UNL     1     -14.995   3.165 -18.015  1.00  0.00    -0.407 N 
HETATM    7  C23 UNL     1     -14.592   3.172 -16.619  1.00  0.00     0.120 C 
HETATM    8  C24 UNL     1     -13.569   4.235 -16.326  1.00  0.00     0.058 C 
ENDROOT
BRANCH   1   9
HETATM    9  O1  UNL     1     -11.484   5.119 -15.879  1.00  0.00    -0.380 OA
BRANCH   9  10
HETATM   10  C2  UNL     1     -12.171   6.224 -15.560  1.00  0.00     0.164 C 
HETATM   11  C1  UNL     1     -11.316   7.001 -14.535  1.00  0.00     0.033 C 
ENDBRANCH   9  10
ENDBRANCH   1   9
BRANCH   1  12
HETATM   12  C4  UNL     1     -11.808   2.876 -15.374  1.00  0.00     0.069 C 
BRANCH  12  13
HETATM   13  C5  UNL     1     -10.771   1.896 -15.788  1.00  0.00     0.275 C 
BRANCH  13  14
HETATM   14  N1  UNL     1     -11.347   0.536 -15.755  1.00  0.00     0.088 N 
HETATM   15  C6  UNL     1     -12.671   0.575 -15.238  1.00  0.00     0.272 C 
HETATM   16  C7  UNL     1     -13.502  -0.634 -15.583  1.00  0.00     0.030 C 
HETATM   17  C8  UNL     1     -13.424  -1.034 -17.032  1.00  0.00     0.003 C 
HETATM   18  C9  UNL     1     -11.942  -1.258 -17.336  1.00  0.00     0.030 C 
HETATM   19  C10 UNL     1     -11.261   0.064 -17.124  1.00  0.00     0.272 C 
ENDBRANCH  13  14
ENDBRANCH  12  13
ENDBRANCH   1  12
BRANCH   6  20
HETATM   20  C15 UNL     1     -16.322   3.680 -18.241  1.00  0.00     0.079 C 
HETATM   21  C16 UNL     1     -17.296   2.791 -17.540  1.00  0.00     0.029 C 
HETATM   22  C17 UNL     1     -18.701   2.873 -18.078  1.00  0.00    -0.012 C 
HETATM   23  C18 UNL     1     -19.203   4.271 -18.264  1.00  0.00     0.005 C 
HETATM   24  C21 UNL     1     -18.621   2.385 -19.531  1.00  0.00     0.009 C 
HETATM   25  C19 UNL     1     -18.814   4.714 -19.659  1.00  0.00     0.005 C 
HETATM   26  C20 UNL     1     -17.943   3.579 -20.174  1.00  0.00    -0.012 C 
HETATM   27  C22 UNL     1     -16.538   3.778 -19.717  1.00  0.00     0.029 C 
ENDBRANCH   6  20
TORSDOF 6
ENDMDL
MODEL 5
REMARK VINA RESULT: -8.960731777      0.603      1.152
REMARK  6 active torsions:
REMARK  status: ('A' for Active; 'I' for Inactive)
REMARK    1  A    between atoms: C2_2  and  O1_3 
REMARK    2  A    between atoms: O1_3  and  C3_4 
REMARK    3  A    between atoms: C3_4  and  C4_5 
REMARK    4  A    between atoms: C4_5  and  C5_6 
REMARK    5  A    between atoms: C5_6  and  N1_7 
REMARK    6  A    between atoms: N2_17  and  C15_18 
ROOT
HETATM    1  C3  UNL     1     -12.714   0.831 -18.520  1.00  0.00     0.073 C 
HETATM    2  C11 UNL     1     -12.267   1.235 -17.095  1.00  0.00     0.118 C 
HETATM    3  C12 UNL     1     -12.796   2.521 -16.889  1.00  0.00    -0.179 C 
HETATM    4  C13 UNL     1     -13.158   3.739 -16.285  1.00  0.00     0.099 C 
HETATM    5  C14 UNL     1     -14.015   4.444 -17.407  1.00  0.00     0.128 C 
HETATM    6  N2  UNL     1     -14.786   3.563 -18.167  1.00  0.00    -0.407 N 
HETATM    7  C23 UNL     1     -14.252   2.821 -19.296  1.00  0.00     0.120 C 
HETATM    8  C24 UNL     1     -14.018   1.372 -18.967  1.00  0.00     0.058 C 
ENDROOT
BRANCH   1   9
HETATM    9  O1  UNL     1     -12.814  -0.528 -18.450  1.00  0.00    -0.380 OA
BRANCH   9  10
HETATM   10  C2  UNL     1     -12.306  -1.219 -17.421  1.00  0.00     0.164 C 
HETATM   11  C1  UNL     1     -13.258  -2.407 -17.168  1.00  0.00     0.033 C 
ENDBRANCH   9  10
ENDBRANCH   1   9
BRANCH   1  12
HETATM   12  C4  UNL     1     -11.673   1.181 -19.529  1.00  0.00     0.069 C 
BRANCH  12  13
HETATM   13  C5  UNL     1     -11.705   0.447 -20.820  1.00  0.00     0.275 C 
BRANCH  13  14
HETATM   14  N1  UNL     1     -10.411   0.621 -21.511  1.00  0.00     0.088 N 
HETATM   15  C6  UNL     1      -9.344   0.591 -20.572  1.00  0.00     0.272 C 
HETATM   16  C7  UNL     1      -7.997   0.295 -21.179  1.00  0.00     0.030 C 
HETATM   17  C8  UNL     1      -8.002  -0.868 -22.134  1.00  0.00     0.003 C 
HETATM   18  C9  UNL     1      -9.048  -0.543 -23.202  1.00  0.00     0.030 C 
HETATM   19  C10 UNL     1     -10.367  -0.450 -22.489  1.00  0.00     0.272 C 
ENDBRANCH  13  14
ENDBRANCH  12  13
ENDBRANCH   1  12
BRANCH   6  20
HETATM   20  C15 UNL     1     -16.177   3.913 -18.305  1.00  0.00     0.079 C 
HETATM   21  C16 UNL     1     -16.990   2.909 -17.557  1.00  0.00     0.029 C 
HETATM   22  C17 UNL     1     -18.425   2.822 -18.007  1.00  0.00    -0.012 C 
HETATM   23  C18 UNL     1     -19.104   4.149 -18.144  1.00  0.00     0.005 C 
HETATM   24  C21 UNL     1     -18.378   2.355 -19.468  1.00  0.00     0.009 C 
HETATM   25  C19 UNL     1     -18.859   4.644 -19.554  1.00  0.00     0.005 C 
HETATM   26  C20 UNL     1     -17.891   3.626 -20.136  1.00  0.00    -0.012 C 
HETATM   27  C22 UNL     1     -16.495   3.992 -19.764  1.00  0.00     0.029 C 
ENDBRANCH   6  20
TORSDOF 6
ENDMDL
