MODEL 1
REMARK VINA RESULT: -8.949162035      0.000      0.000
REMARK  6 active torsions:
REMARK  status: ('A' for Active; 'I' for Inactive)
REMARK    1  A    between atoms: C4_5  and  C5_6 
REMARK    2  A    between atoms: C5_6  and  N1_7 
REMARK    3  A    between atoms: N1_7  and  C6_9 
REMARK    4  A    between atoms: C9_12  and  S1_13 
REMARK    5  A    between atoms: S1_13  and  C10_14 
REMARK    6  A    between atoms: C10_14  and  C11_15 
ROOT
HETATM    1  C6  UNL     1      70.350  27.335  21.221  1.00  0.00     0.028 A 
HETATM    2  C7  UNL     1      69.583  26.256  20.901  1.00  0.00     0.030 A 
HETATM    3  C8  UNL     1      69.248  25.911  19.613  1.00  0.00     0.021 A 
HETATM    4  C9  UNL     1      69.731  26.726  18.580  1.00  0.00     0.001 A 
HETATM    5  C16 UNL     1      70.496  27.806  18.875  1.00  0.00     0.021 A 
HETATM    6  C17 UNL     1      70.815  28.121  20.205  1.00  0.00     0.030 A 
ENDROOT
BRANCH   1   7
HETATM    7  N1  UNL     1      70.657  27.637  22.561  1.00  0.00    -0.386 N 
ATOM      8  H1  UNL     1      71.157  28.504  22.757  1.00  0.00     0.160 HD
BRANCH   7   9
HETATM    9  C5  UNL     1      70.302  26.786  23.675  1.00  0.00     0.158 C 
BRANCH   9  10
HETATM   10  C4  UNL     1      69.028  27.224  24.268  1.00  0.00    -0.040 A 
HETATM   11  C3  UNL     1      67.875  26.540  24.017  1.00  0.00     0.012 A 
HETATM   12  C2  UNL     1      66.644  26.904  24.547  1.00  0.00     0.043 A 
HETATM   13  C1  UNL     1      66.634  28.013  25.359  1.00  0.00     0.116 A 
HETATM   14  F1  UNL     1      65.420  28.368  25.878  1.00  0.00    -0.206 F 
HETATM   15  C19 UNL     1      67.787  28.722  25.626  1.00  0.00     0.043 A 
HETATM   16  C18 UNL     1      68.991  28.325  25.079  1.00  0.00     0.012 A 
ENDBRANCH   9  10
ENDBRANCH   7   9
ENDBRANCH   1   7
BRANCH   4  17
HETATM   17  S1  UNL     1      69.264  26.315  16.954  1.00  0.00    -0.125 SA
BRANCH  17  18
HETATM   18  C10 UNL     1      68.661  27.605  15.919  1.00  0.00     0.119 C 
BRANCH  18  19
HETATM   19  C11 UNL     1      69.631  28.250  15.023  1.00  0.00    -0.033 A 
HETATM   20  C12 UNL     1      69.136  29.262  14.186  1.00  0.00     0.011 A 
HETATM   21  C13 UNL     1      70.041  29.892  13.362  1.00  0.00     0.018 A 
HETATM   22  C14 UNL     1      71.380  29.540  13.360  1.00  0.00     0.087 A 
HETATM   23  N2  UNL     1      71.808  28.555  14.188  1.00  0.00    -0.375 N 
HETATM   24  C15 UNL     1      70.946  27.908  15.019  1.00  0.00     0.095 A 
ATOM     25  H2  UNL     1      72.793  28.295  14.187  1.00  0.00     0.164 HD
ENDBRANCH  18  19
ENDBRANCH  17  18
ENDBRANCH   4  17
TORSDOF 6
ENDMDL
MODEL 2
REMARK VINA RESULT: -8.923214031      4.219      9.226
REMARK  6 active torsions:
REMARK  status: ('A' for Active; 'I' for Inactive)
REMARK    1  A    between atoms: C4_5  and  C5_6 
REMARK    2  A    between atoms: C5_6  and  N1_7 
REMARK    3  A    between atoms: N1_7  and  C6_9 
REMARK    4  A    between atoms: C9_12  and  S1_13 
REMARK    5  A    between atoms: S1_13  and  C10_14 
REMARK    6  A    between atoms: C10_14  and  C11_15 
ROOT
HETATM    1  C6  UNL     1      67.127  24.967  19.958  1.00  0.00     0.028 A 
HETATM    2  C7  UNL     1      67.897  25.570  20.907  1.00  0.00     0.030 A 
HETATM    3  C8  UNL     1      67.584  25.592  22.245  1.00  0.00     0.021 A 
HETATM    4  C9  UNL     1      66.402  24.952  22.643  1.00  0.00     0.001 A 
HETATM    5  C16 UNL     1      65.620  24.345  21.716  1.00  0.00     0.021 A 
HETATM    6  C17 UNL     1      65.978  24.346  20.358  1.00  0.00     0.030 A 
ENDROOT
BRANCH   1   7
HETATM    7  N1  UNL     1      67.501  24.981  18.602  1.00  0.00    -0.386 N 
ATOM      8  H1  UNL     1      67.022  24.346  17.963  1.00  0.00     0.160 HD
BRANCH   7   9
HETATM    9  C5  UNL     1      68.527  25.846  18.063  1.00  0.00     0.158 C 
BRANCH   9  10
HETATM   10  C4  UNL     1      68.068  26.464  16.807  1.00  0.00    -0.040 A 
HETATM   11  C3  UNL     1      68.698  27.565  16.306  1.00  0.00     0.012 A 
HETATM   12  C2  UNL     1      68.312  28.191  15.129  1.00  0.00     0.043 A 
HETATM   13  C1  UNL     1      67.239  27.641  14.469  1.00  0.00     0.116 A 
HETATM   14  F1  UNL     1      66.862  28.262  13.310  1.00  0.00    -0.206 F 
HETATM   15  C19 UNL     1      66.586  26.528  14.957  1.00  0.00     0.043 A 
HETATM   16  C18 UNL     1      67.003  25.936  16.133  1.00  0.00     0.012 A 
ENDBRANCH   9  10
ENDBRANCH   7   9
ENDBRANCH   1   7
BRANCH   4  17
HETATM   17  S1  UNL     1      65.984  25.024  24.331  1.00  0.00    -0.125 SA
BRANCH  17  18
HETATM   18  C10 UNL     1      64.984  26.367  24.875  1.00  0.00     0.119 C 
BRANCH  18  19
HETATM   19  C11 UNL     1      65.669  27.634  25.165  1.00  0.00    -0.033 A 
HETATM   20  C12 UNL     1      67.067  27.580  25.286  1.00  0.00     0.011 A 
HETATM   21  C13 UNL     1      67.721  28.766  25.531  1.00  0.00     0.018 A 
HETATM   22  C14 UNL     1      67.029  29.959  25.653  1.00  0.00     0.087 A 
HETATM   23  N2  UNL     1      65.679  29.957  25.528  1.00  0.00    -0.375 N 
HETATM   24  C15 UNL     1      64.993  28.806  25.284  1.00  0.00     0.095 A 
ATOM     25  H2  UNL     1      65.168  30.835  25.617  1.00  0.00     0.164 HD
ENDBRANCH  18  19
ENDBRANCH  17  18
ENDBRANCH   4  17
TORSDOF 6
ENDMDL
MODEL 3
REMARK VINA RESULT: -8.911256272      4.157      9.128
REMARK  6 active torsions:
REMARK  status: ('A' for Active; 'I' for Inactive)
REMARK    1  A    between atoms: C4_5  and  C5_6 
REMARK    2  A    between atoms: C5_6  and  N1_7 
REMARK    3  A    between atoms: N1_7  and  C6_9 
REMARK    4  A    between atoms: C9_12  and  S1_13 
REMARK    5  A    between atoms: S1_13  and  C10_14 
REMARK    6  A    between atoms: C10_14  and  C11_15 
ROOT
HETATM    1  C6  UNL     1      67.300  25.093  19.851  1.00  0.00     0.028 A 
HETATM    2  C7  UNL     1      66.178  24.443  20.270  1.00  0.00     0.030 A 
HETATM    3  C8  UNL     1      65.758  24.408  21.578  1.00  0.00     0.021 A 
HETATM    4  C9  UNL     1      66.539  25.085  22.526  1.00  0.00     0.001 A 
HETATM    5  C16 UNL     1      67.661  25.738  22.132  1.00  0.00     0.021 A 
HETATM    6  C17 UNL     1      68.052  25.749  20.784  1.00  0.00     0.030 A 
ENDROOT
BRANCH   1   7
HETATM    7  N1  UNL     1      67.677  25.091  18.496  1.00  0.00    -0.386 N 
ATOM      8  H1  UNL     1      67.215  24.434  17.867  1.00  0.00     0.160 HD
BRANCH   7   9
HETATM    9  C5  UNL     1      68.686  25.969  17.944  1.00  0.00     0.158 C 
BRANCH   9  10
HETATM   10  C4  UNL     1      68.202  26.586  16.697  1.00  0.00    -0.040 A 
HETATM   11  C3  UNL     1      67.164  26.031  16.008  1.00  0.00     0.012 A 
HETATM   12  C2  UNL     1      66.664  26.567  14.828  1.00  0.00     0.043 A 
HETATM   13  C1  UNL     1      67.273  27.711  14.371  1.00  0.00     0.116 A 
HETATM   14  F1  UNL     1      66.777  28.233  13.209  1.00  0.00    -0.206 F 
HETATM   15  C19 UNL     1      68.324  28.289  15.052  1.00  0.00     0.043 A 
HETATM   16  C18 UNL     1      68.791  27.724  16.222  1.00  0.00     0.012 A 
ENDBRANCH   9  10
ENDBRANCH   7   9
ENDBRANCH   1   7
BRANCH   4  17
HETATM   17  S1  UNL     1      66.032  24.997  24.188  1.00  0.00    -0.125 SA
BRANCH  17  18
HETATM   18  C10 UNL     1      65.017  26.293  24.810  1.00  0.00     0.119 C 
BRANCH  18  19
HETATM   19  C11 UNL     1      65.678  27.567  25.125  1.00  0.00    -0.033 A 
HETATM   20  C12 UNL     1      67.076  27.535  25.249  1.00  0.00     0.011 A 
HETATM   21  C13 UNL     1      67.708  28.728  25.517  1.00  0.00     0.018 A 
HETATM   22  C14 UNL     1      66.995  29.906  25.658  1.00  0.00     0.087 A 
HETATM   23  N2  UNL     1      65.646  29.883  25.529  1.00  0.00    -0.375 N 
HETATM   24  C15 UNL     1      64.981  28.725  25.263  1.00  0.00     0.095 A 
ATOM     25  H2  UNL     1      65.119  30.750  25.632  1.00  0.00     0.164 HD
ENDBRANCH  18  19
ENDBRANCH  17  18
ENDBRANCH   4  17
TORSDOF 6
ENDMDL
MODEL 4
REMARK VINA RESULT: -8.872960708      3.966      9.105
REMARK  6 active torsions:
REMARK  status: ('A' for Active; 'I' for Inactive)
REMARK    1  A    between atoms: C4_5  and  C5_6 
REMARK    2  A    between atoms: C5_6  and  N1_7 
REMARK    3  A    between atoms: N1_7  and  C6_9 
REMARK    4  A    between atoms: C9_12  and  S1_13 
REMARK    5  A    between atoms: S1_13  and  C10_14 
REMARK    6  A    between atoms: C10_14  and  C11_15 
ROOT
HETATM    1  C6  UNL     1      67.867  25.353  19.769  1.00  0.00     0.028 A 
HETATM    2  C7  UNL     1      66.627  24.837  19.999  1.00  0.00     0.030 A 
HETATM    3  C8  UNL     1      66.059  24.737  21.246  1.00  0.00     0.021 A 
HETATM    4  C9  UNL     1      66.810  25.198  22.336  1.00  0.00     0.001 A 
HETATM    5  C16 UNL     1      68.047  25.716  22.132  1.00  0.00     0.021 A 
HETATM    6  C17 UNL     1      68.589  25.799  20.840  1.00  0.00     0.030 A 
ENDROOT
BRANCH   1   7
HETATM    7  N1  UNL     1      68.394  25.426  18.466  1.00  0.00    -0.386 N 
ATOM      8  H1  UNL     1      68.305  24.608  17.864  1.00  0.00     0.160 HD
BRANCH   7   9
HETATM    9  C5  UNL     1      69.054  26.598  17.934  1.00  0.00     0.158 C 
BRANCH   9  10
HETATM   10  C4  UNL     1      68.422  27.013  16.671  1.00  0.00    -0.040 A 
HETATM   11  C3  UNL     1      68.964  28.014  15.921  1.00  0.00     0.012 A 
HETATM   12  C2  UNL     1      68.414  28.450  14.723  1.00  0.00     0.043 A 
HETATM   13  C1  UNL     1      67.268  27.811  14.310  1.00  0.00     0.116 A 
HETATM   14  F1  UNL     1      66.730  28.244  13.130  1.00  0.00    -0.206 F 
HETATM   15  C19 UNL     1      66.702  26.796  15.053  1.00  0.00     0.043 A 
HETATM   16  C18 UNL     1      67.282  26.393  16.239  1.00  0.00     0.012 A 
ENDBRANCH   9  10
ENDBRANCH   7   9
ENDBRANCH   1   7
BRANCH   4  17
HETATM   17  S1  UNL     1      66.108  25.026  23.920  1.00  0.00    -0.125 SA
BRANCH  17  18
HETATM   18  C10 UNL     1      65.033  26.299  24.488  1.00  0.00     0.119 C 
BRANCH  18  19
HETATM   19  C11 UNL     1      65.660  27.539  24.965  1.00  0.00    -0.033 A 
HETATM   20  C12 UNL     1      67.046  27.499  25.183  1.00  0.00     0.011 A 
HETATM   21  C13 UNL     1      67.647  28.663  25.605  1.00  0.00     0.018 A 
HETATM   22  C14 UNL     1      66.916  29.821  25.805  1.00  0.00     0.087 A 
HETATM   23  N2  UNL     1      65.579  29.807  25.580  1.00  0.00    -0.375 N 
HETATM   24  C15 UNL     1      64.944  28.677  25.162  1.00  0.00     0.095 A 
ATOM     25  H2  UNL     1      65.038  30.659  25.727  1.00  0.00     0.164 HD
ENDBRANCH  18  19
ENDBRANCH  17  18
ENDBRANCH   4  17
TORSDOF 6
ENDMDL
MODEL 5
REMARK VINA RESULT: -8.768318021      0.651      1.028
REMARK  6 active torsions:
REMARK  status: ('A' for Active; 'I' for Inactive)
REMARK    1  A    between atoms: C4_5  and  C5_6 
REMARK    2  A    between atoms: C5_6  and  N1_7 
REMARK    3  A    between atoms: N1_7  and  C6_9 
REMARK    4  A    between atoms: C9_12  and  S1_13 
REMARK    5  A    between atoms: S1_13  and  C10_14 
REMARK    6  A    between atoms: C10_14  and  C11_15 
ROOT
HETATM    1  C6  UNL     1      70.302  27.168  21.043  1.00  0.00     0.028 A 
HETATM    2  C7  UNL     1      69.478  26.146  20.681  1.00  0.00     0.030 A 
HETATM    3  C8  UNL     1      69.133  25.864  19.380  1.00  0.00     0.021 A 
HETATM    4  C9  UNL     1      69.668  26.686  18.378  1.00  0.00     0.001 A 
HETATM    5  C16 UNL     1      70.490  27.710  18.715  1.00  0.00     0.021 A 
HETATM    6  C17 UNL     1      70.817  27.961  20.056  1.00  0.00     0.030 A 
ENDROOT
BRANCH   1   7
HETATM    7  N1  UNL     1      70.616  27.406  22.393  1.00  0.00    -0.386 N 
ATOM      8  H1  UNL     1      71.162  28.237  22.622  1.00  0.00     0.160 HD
BRANCH   7   9
HETATM    9  C5  UNL     1      70.208  26.538  23.475  1.00  0.00     0.158 C 
BRANCH   9  10
HETATM   10  C4  UNL     1      69.002  27.070  24.132  1.00  0.00    -0.040 A 
HETATM   11  C3  UNL     1      67.789  26.478  23.938  1.00  0.00     0.012 A 
HETATM   12  C2  UNL     1      66.618  26.934  24.529  1.00  0.00     0.043 A 
HETATM   13  C1  UNL     1      66.734  28.036  25.342  1.00  0.00     0.116 A 
HETATM   14  F1  UNL     1      65.578  28.481  25.921  1.00  0.00    -0.206 F 
HETATM   15  C19 UNL     1      67.950  28.652  25.552  1.00  0.00     0.043 A 
HETATM   16  C18 UNL     1      69.091  28.166  24.945  1.00  0.00     0.012 A 
ENDBRANCH   9  10
ENDBRANCH   7   9
ENDBRANCH   1   7
BRANCH   4  17
HETATM   17  S1  UNL     1      69.190  26.358  16.737  1.00  0.00    -0.125 SA
BRANCH  17  18
HETATM   18  C10 UNL     1      68.474  27.671  15.809  1.00  0.00     0.119 C 
BRANCH  18  19
HETATM   19  C11 UNL     1      69.356  28.392  14.882  1.00  0.00    -0.033 A 
HETATM   20  C12 UNL     1      70.719  28.061  14.927  1.00  0.00     0.011 A 
HETATM   21  C13 UNL     1      71.551  28.711  14.043  1.00  0.00     0.018 A 
HETATM   22  C14 UNL     1      71.062  29.651  13.152  1.00  0.00     0.087 A 
HETATM   23  N2  UNL     1      69.737  29.935  13.149  1.00  0.00    -0.375 N 
HETATM   24  C15 UNL     1      68.880  29.314  14.006  1.00  0.00     0.095 A 
ATOM     25  H2  UNL     1      69.375  30.627  12.494  1.00  0.00     0.164 HD
ENDBRANCH  18  19
ENDBRANCH  17  18
ENDBRANCH   4  17
TORSDOF 6
ENDMDL
