MODEL 1
REMARK VINA RESULT: -8.429123859      0.000      0.000
REMARK  21 active torsions:
REMARK  status: ('A' for Active; 'I' for Inactive)
REMARK       I    between atoms: N1_2  and  C2_4 
REMARK    1  A    between atoms: C2_4  and  C3_6 
REMARK    2  A    between atoms: C4_10  and  C5_11 
REMARK    3  A    between atoms: C5_11  and  O2_12 
REMARK    4  A    between atoms: C5_11  and  O3_14 
REMARK    5  A    between atoms: O3_14  and  C6_15 
REMARK    6  A    between atoms: C6_15  and  C7_16 
REMARK    7  A    between atoms: C6_15  and  N3_22 
REMARK    8  A    between atoms: C7_16  and  C8_17 
REMARK    9  A    between atoms: N3_22  and  C11_23 
REMARK   10  A    between atoms: C12_24  and  O4_25 
REMARK   11  A    between atoms: C13_28  and  O6_29 
REMARK   12  A    between atoms: C14_31  and  O7_32 
REMARK   13  A    between atoms: C16_37  and  O10_38 
REMARK   14  A    between atoms: O10_38  and  C17_39 
REMARK   15  A    between atoms: C17_39  and  O11_40 
REMARK   16  A    between atoms: C17_39  and  C18_42 
REMARK   17  A    between atoms: C18_42  and  O12_43 
REMARK   18  A    between atoms: C18_42  and  C19_45 
REMARK   19  A    between atoms: C19_45  and  O13_46 
REMARK   20  A    between atoms: C19_45  and  C20_48 
REMARK       I    between atoms: C20_48  and  N4_50 
REMARK   21  A    between atoms: N4_50  and  S3_52 
ROOT
HETATM    1  C3  UNL     1       8.177  23.922  18.940  1.00  0.00     0.333 C 
HETATM    2  N2  UNL     1       7.898  22.571  19.401  1.00  0.00    -0.039 N 
ATOM      3  H21 UNL     1       6.925  22.325  19.213  1.00  0.00     0.279 HD
ATOM      4  H22 UNL     1       7.892  22.537  20.421  1.00  0.00     0.279 HD
HETATM    5  C4  UNL     1       8.781  21.566  18.871  1.00  0.00     0.340 C 
HETATM    6  C15 UNL     1       8.801  21.626  17.372  1.00  0.00     0.297 C 
HETATM    7  O8  UNL     1       9.366  20.703  16.765  1.00  0.00    -0.263 OA
HETATM    8  O9  UNL     1       8.175  22.725  16.824  1.00  0.00    -0.285 OA
HETATM    9  C16 UNL     1       8.401  24.001  17.472  1.00  0.00     0.312 C 
ENDROOT
BRANCH   5  10
HETATM   10  C5  UNL     1      10.146  21.792  19.406  1.00  0.00     0.306 C 
BRANCH  10  11
HETATM   11  O2  UNL     1      11.016  22.064  18.332  1.00  0.00    -0.368 OA
ATOM     12  H2  UNL     1      11.557  22.811  18.557  1.00  0.00     0.212 HD
ENDBRANCH  10  11
BRANCH  10  13
HETATM   13  O3  UNL     1      10.290  22.722  20.428  1.00  0.00    -0.294 OA
BRANCH  13  14
HETATM   14  C6  UNL     1      11.329  22.822  21.344  1.00  0.00     0.195 C 
BRANCH  14  15
HETATM   15  C7  UNL     1      11.294  24.051  22.217  1.00  0.00     0.106 C 
BRANCH  15  16
HETATM   16  C8  UNL     1      10.183  24.014  23.204  1.00  0.00     0.014 C 
HETATM   17  C9  UNL     1       8.868  24.417  22.651  1.00  0.00     0.092 C 
HETATM   18  S1  UNL     1       7.761  24.426  24.122  1.00  0.00    -0.097 SA
HETATM   19  S2  UNL     1       8.851  22.867  25.164  1.00  0.00    -0.097 SA
HETATM   20  C10 UNL     1      10.073  22.632  23.801  1.00  0.00     0.092 C 
ENDBRANCH  15  16
ENDBRANCH  14  15
BRANCH  14  21
HETATM   21  N3  UNL     1      12.175  22.018  21.446  1.00  0.00    -0.377 NA
BRANCH  21  22
HETATM   22  C11 UNL     1      13.152  21.124  21.584  1.00  0.00     0.205 A 
HETATM   23  C12 UNL     1      13.741  20.257  20.652  1.00  0.00     0.230 A 
HETATM   24  O5  UNL     1      14.656  19.578  21.251  1.00  0.00    -0.259 OA
HETATM   25  C13 UNL     1      14.747  19.903  22.518  1.00  0.00     0.223 A 
HETATM   26  C14 UNL     1      13.824  20.877  22.804  1.00  0.00     0.171 A 
BRANCH  23  27
HETATM   27  O4  UNL     1      13.364  20.190  19.342  1.00  0.00    -0.338 OA
ATOM     28  H4  UNL     1      12.470  20.039  19.061  1.00  0.00     0.220 HD
ENDBRANCH  23  27
BRANCH  25  29
HETATM   29  O6  UNL     1      15.664  19.313  23.399  1.00  0.00    -0.338 OA
ATOM     30  H6  UNL     1      15.435  19.031  24.277  1.00  0.00     0.220 HD
ENDBRANCH  25  29
BRANCH  26  31
HETATM   31  O7  UNL     1      13.576  21.508  24.022  1.00  0.00    -0.354 OA
ATOM     32  H7  UNL     1      14.166  22.096  24.479  1.00  0.00     0.218 HD
ENDBRANCH  26  31
ENDBRANCH  21  22
ENDBRANCH  14  21
ENDBRANCH  13  14
ENDBRANCH  10  13
ENDBRANCH   5  10
BRANCH   1  33
HETATM   33  C2  UNL     1       6.962  24.708  19.370  1.00  0.00     0.253 C 
HETATM   34  N1  UNL     1       5.639  24.304  19.207  1.00  0.00    -0.363 N 
HETATM   35  C1  UNL     1       4.527  25.108  19.639  1.00  0.00     0.149 C 
ATOM     36  H1  UNL     1       5.451  23.406  18.763  1.00  0.00     0.161 HD
HETATM   37  O1  UNL     1       7.182  25.824  19.919  1.00  0.00    -0.271 OA
ENDBRANCH   1  33
BRANCH   9  38
HETATM   38  O10 UNL     1       7.505  24.855  16.880  1.00  0.00    -0.326 OA
BRANCH  38  39
HETATM   39  C17 UNL     1       7.736  25.177  15.565  1.00  0.00     0.291 C 
BRANCH  39  40
HETATM   40  O11 UNL     1       9.090  25.249  15.364  1.00  0.00    -0.368 OA
ATOM     41  H11 UNL     1       9.350  24.538  14.789  1.00  0.00     0.212 HD
ENDBRANCH  39  40
BRANCH  39  42
HETATM   42  C18 UNL     1       6.999  24.360  14.557  1.00  0.00     0.211 C 
BRANCH  42  43
HETATM   43  O12 UNL     1       5.865  23.745  15.065  1.00  0.00    -0.388 OA
ATOM     44  H12 UNL     1       5.177  23.627  14.421  1.00  0.00     0.210 HD
ENDBRANCH  42  43
BRANCH  42  45
HETATM   45  C19 UNL     1       6.690  25.065  13.266  1.00  0.00     0.244 C 
BRANCH  45  46
HETATM   46  O13 UNL     1       7.218  26.332  13.195  1.00  0.00    -0.383 OA
ATOM     47  H13 UNL     1       7.885  26.427  12.526  1.00  0.00     0.210 HD
ENDBRANCH  45  46
BRANCH  45  48
HETATM   48  C20 UNL     1       5.208  25.175  13.200  1.00  0.00     0.262 C 
HETATM   49  O14 UNL     1       4.641  26.226  13.603  1.00  0.00    -0.270 OA
HETATM   50  N4  UNL     1       4.415  24.113  12.686  1.00  0.00    -0.252 N 
ATOM     51  H4  UNL     1       4.875  23.261  12.365  1.00  0.00     0.181 HD
BRANCH  50  52
HETATM   52  S3  UNL     1       2.692  24.222  12.590  1.00  0.00     0.229 S 
HETATM   53  C21 UNL     1       1.991  24.867  14.057  1.00  0.00     0.186 C 
HETATM   54  O15 UNL     1       2.313  25.127  11.431  1.00  0.00    -0.206 OA
HETATM   55  O16 UNL     1       2.146  22.854  12.286  1.00  0.00    -0.206 OA
ENDBRANCH  50  52
ENDBRANCH  45  48
ENDBRANCH  42  45
ENDBRANCH  39  42
ENDBRANCH  38  39
ENDBRANCH   9  38
TORSDOF 21
ENDMDL
MODEL 2
REMARK VINA RESULT: -8.318655512      3.781      5.840
REMARK  21 active torsions:
REMARK  status: ('A' for Active; 'I' for Inactive)
REMARK       I    between atoms: N1_2  and  C2_4 
REMARK    1  A    between atoms: C2_4  and  C3_6 
REMARK    2  A    between atoms: C4_10  and  C5_11 
REMARK    3  A    between atoms: C5_11  and  O2_12 
REMARK    4  A    between atoms: C5_11  and  O3_14 
REMARK    5  A    between atoms: O3_14  and  C6_15 
REMARK    6  A    between atoms: C6_15  and  C7_16 
REMARK    7  A    between atoms: C6_15  and  N3_22 
REMARK    8  A    between atoms: C7_16  and  C8_17 
REMARK    9  A    between atoms: N3_22  and  C11_23 
REMARK   10  A    between atoms: C12_24  and  O4_25 
REMARK   11  A    between atoms: C13_28  and  O6_29 
REMARK   12  A    between atoms: C14_31  and  O7_32 
REMARK   13  A    between atoms: C16_37  and  O10_38 
REMARK   14  A    between atoms: O10_38  and  C17_39 
REMARK   15  A    between atoms: C17_39  and  O11_40 
REMARK   16  A    between atoms: C17_39  and  C18_42 
REMARK   17  A    between atoms: C18_42  and  O12_43 
REMARK   18  A    between atoms: C18_42  and  C19_45 
REMARK   19  A    between atoms: C19_45  and  O13_46 
REMARK   20  A    between atoms: C19_45  and  C20_48 
REMARK       I    between atoms: C20_48  and  N4_50 
REMARK   21  A    between atoms: N4_50  and  S3_52 
ROOT
HETATM    1  C3  UNL     1       5.022  24.876  15.216  1.00  0.00     0.333 C 
HETATM    2  N2  UNL     1       5.699  23.590  15.145  1.00  0.00    -0.039 N 
ATOM      3  H21 UNL     1       5.834  23.313  14.172  1.00  0.00     0.279 HD
ATOM      4  H22 UNL     1       5.077  22.843  15.456  1.00  0.00     0.279 HD
HETATM    5  C4  UNL     1       6.947  23.534  15.860  1.00  0.00     0.340 C 
HETATM    6  C15 UNL     1       7.855  24.643  15.414  1.00  0.00     0.297 C 
HETATM    7  O8  UNL     1       9.033  24.613  15.800  1.00  0.00    -0.263 OA
HETATM    8  O9  UNL     1       7.264  25.592  14.608  1.00  0.00    -0.285 OA
HETATM    9  C16 UNL     1       5.931  26.027  14.973  1.00  0.00     0.312 C 
ENDROOT
BRANCH   5  10
HETATM   10  C5  UNL     1       6.676  23.654  17.314  1.00  0.00     0.306 C 
BRANCH  10  11
HETATM   11  O2  UNL     1       7.201  22.522  17.968  1.00  0.00    -0.368 OA
ATOM     12  H2  UNL     1       6.535  22.165  18.544  1.00  0.00     0.212 HD
ENDBRANCH  10  11
BRANCH  10  13
HETATM   13  O3  UNL     1       7.059  24.832  17.944  1.00  0.00    -0.294 OA
BRANCH  13  14
HETATM   14  C6  UNL     1       7.415  25.004  19.275  1.00  0.00     0.195 C 
BRANCH  14  15
HETATM   15  C7  UNL     1       6.412  25.759  20.111  1.00  0.00     0.106 C 
BRANCH  15  16
HETATM   16  C8  UNL     1       5.734  24.888  21.108  1.00  0.00     0.014 C 
HETATM   17  C9  UNL     1       5.327  25.590  22.348  1.00  0.00     0.092 C 
HETATM   18  S1  UNL     1       4.681  24.241  23.421  1.00  0.00    -0.097 SA
HETATM   19  S2  UNL     1       4.002  23.017  21.765  1.00  0.00    -0.097 SA
HETATM   20  C10 UNL     1       4.524  24.237  20.481  1.00  0.00     0.092 C 
ENDBRANCH  15  16
ENDBRANCH  14  15
BRANCH  14  21
HETATM   21  N3  UNL     1       8.414  24.597  19.730  1.00  0.00    -0.377 NA
BRANCH  21  22
HETATM   22  C11 UNL     1       9.560  24.123  20.217  1.00  0.00     0.205 A 
HETATM   23  C12 UNL     1      10.414  23.120  19.739  1.00  0.00     0.230 A 
HETATM   24  O5  UNL     1      11.409  23.013  20.549  1.00  0.00    -0.259 OA
HETATM   25  C13 UNL     1      11.312  23.859  21.546  1.00  0.00     0.223 A 
HETATM   26  C14 UNL     1      10.164  24.597  21.405  1.00  0.00     0.171 A 
BRANCH  23  27
HETATM   27  O4  UNL     1      10.178  22.408  18.599  1.00  0.00    -0.338 OA
ATOM     28  H4  UNL     1      10.574  21.565  18.415  1.00  0.00     0.220 HD
ENDBRANCH  23  27
BRANCH  25  29
HETATM   29  O6  UNL     1      12.263  23.951  22.572  1.00  0.00    -0.338 OA
ATOM     30  H6  UNL     1      12.587  24.778  22.910  1.00  0.00     0.220 HD
ENDBRANCH  25  29
BRANCH  26  31
HETATM   31  O7  UNL     1       9.671  25.603  22.234  1.00  0.00    -0.354 OA
ATOM     32  H7  UNL     1      10.159  26.065  22.907  1.00  0.00     0.218 HD
ENDBRANCH  26  31
ENDBRANCH  21  22
ENDBRANCH  14  21
ENDBRANCH  13  14
ENDBRANCH  10  13
ENDBRANCH   5  10
BRANCH   1  33
HETATM   33  C2  UNL     1       3.944  24.775  14.163  1.00  0.00     0.253 C 
HETATM   34  N1  UNL     1       4.081  24.153  12.924  1.00  0.00    -0.363 N 
HETATM   35  C1  UNL     1       3.011  24.095  11.965  1.00  0.00     0.149 C 
ATOM     36  H1  UNL     1       4.975  23.723  12.687  1.00  0.00     0.161 HD
HETATM   37  O1  UNL     1       2.834  25.305  14.445  1.00  0.00    -0.271 OA
ENDBRANCH   1  33
BRANCH   9  38
HETATM   38  O10 UNL     1       5.506  26.777  13.906  1.00  0.00    -0.326 OA
BRANCH  38  39
HETATM   39  C17 UNL     1       6.083  28.014  13.752  1.00  0.00     0.291 C 
BRANCH  39  40
HETATM   40  O11 UNL     1       5.449  28.669  12.728  1.00  0.00    -0.368 OA
ATOM     41  H11 UNL     1       6.107  29.016  12.137  1.00  0.00     0.212 HD
ENDBRANCH  39  40
BRANCH  39  42
HETATM   42  C18 UNL     1       6.240  28.815  15.001  1.00  0.00     0.211 C 
BRANCH  42  43
HETATM   43  O12 UNL     1       7.256  29.755  14.932  1.00  0.00    -0.388 OA
ATOM     44  H12 UNL     1       7.128  30.497  15.512  1.00  0.00     0.210 HD
ENDBRANCH  42  43
BRANCH  42  45
HETATM   45  C19 UNL     1       4.975  29.437  15.525  1.00  0.00     0.244 C 
BRANCH  45  46
HETATM   46  O13 UNL     1       3.857  29.091  14.804  1.00  0.00    -0.383 OA
ATOM     47  H13 UNL     1       3.454  28.281  15.096  1.00  0.00     0.210 HD
ENDBRANCH  45  46
BRANCH  45  48
HETATM   48  C20 UNL     1       5.161  30.909  15.414  1.00  0.00     0.262 C 
HETATM   49  O14 UNL     1       5.371  31.593  16.450  1.00  0.00    -0.270 OA
HETATM   50  N4  UNL     1       5.107  31.562  14.151  1.00  0.00    -0.252 N 
ATOM     51  H4  UNL     1       4.932  31.007  13.313  1.00  0.00     0.181 HD
BRANCH  50  52
HETATM   52  S3  UNL     1       5.330  33.269  13.995  1.00  0.00     0.229 S 
HETATM   53  C21 UNL     1       4.121  34.174  14.877  1.00  0.00     0.186 C 
HETATM   54  O15 UNL     1       6.703  33.644  14.527  1.00  0.00    -0.206 OA
HETATM   55  O16 UNL     1       5.308  33.619  12.532  1.00  0.00    -0.206 OA
ENDBRANCH  50  52
ENDBRANCH  45  48
ENDBRANCH  42  45
ENDBRANCH  39  42
ENDBRANCH  38  39
ENDBRANCH   9  38
TORSDOF 21
ENDMDL
MODEL 3
REMARK VINA RESULT: -8.111618933      3.812      6.157
REMARK  21 active torsions:
REMARK  status: ('A' for Active; 'I' for Inactive)
REMARK       I    between atoms: N1_2  and  C2_4 
REMARK    1  A    between atoms: C2_4  and  C3_6 
REMARK    2  A    between atoms: C4_10  and  C5_11 
REMARK    3  A    between atoms: C5_11  and  O2_12 
REMARK    4  A    between atoms: C5_11  and  O3_14 
REMARK    5  A    between atoms: O3_14  and  C6_15 
REMARK    6  A    between atoms: C6_15  and  C7_16 
REMARK    7  A    between atoms: C6_15  and  N3_22 
REMARK    8  A    between atoms: C7_16  and  C8_17 
REMARK    9  A    between atoms: N3_22  and  C11_23 
REMARK   10  A    between atoms: C12_24  and  O4_25 
REMARK   11  A    between atoms: C13_28  and  O6_29 
REMARK   12  A    between atoms: C14_31  and  O7_32 
REMARK   13  A    between atoms: C16_37  and  O10_38 
REMARK   14  A    between atoms: O10_38  and  C17_39 
REMARK   15  A    between atoms: C17_39  and  O11_40 
REMARK   16  A    between atoms: C17_39  and  C18_42 
REMARK   17  A    between atoms: C18_42  and  O12_43 
REMARK   18  A    between atoms: C18_42  and  C19_45 
REMARK   19  A    between atoms: C19_45  and  O13_46 
REMARK   20  A    between atoms: C19_45  and  C20_48 
REMARK       I    between atoms: C20_48  and  N4_50 
REMARK   21  A    between atoms: N4_50  and  S3_52 
ROOT
HETATM    1  C3  UNL     1       4.836  25.116  14.832  1.00  0.00     0.333 C 
HETATM    2  N2  UNL     1       5.314  23.742  14.853  1.00  0.00    -0.039 N 
ATOM      3  H21 UNL     1       5.483  23.410  13.903  1.00  0.00     0.279 HD
ATOM      4  H22 UNL     1       4.563  23.109  15.129  1.00  0.00     0.279 HD
HETATM    5  C4  UNL     1       6.477  23.529  15.674  1.00  0.00     0.340 C 
HETATM    6  C15 UNL     1       7.576  24.471  15.279  1.00  0.00     0.297 C 
HETATM    7  O8  UNL     1       8.701  24.281  15.765  1.00  0.00    -0.263 OA
HETATM    8  O9  UNL     1       7.203  25.465  14.400  1.00  0.00    -0.285 OA
HETATM    9  C16 UNL     1       5.926  26.109  14.637  1.00  0.00     0.312 C 
ENDROOT
BRANCH   5  10
HETATM   10  C5  UNL     1       6.110  23.744  17.096  1.00  0.00     0.306 C 
BRANCH  10  11
HETATM   11  O2  UNL     1       6.368  22.561  17.815  1.00  0.00    -0.368 OA
ATOM     12  H2  UNL     1       6.748  22.789  18.655  1.00  0.00     0.212 HD
ENDBRANCH  10  11
BRANCH  10  13
HETATM   13  O3  UNL     1       6.643  24.856  17.735  1.00  0.00    -0.294 OA
BRANCH  13  14
HETATM   14  C6  UNL     1       7.217  24.915  18.998  1.00  0.00     0.195 C 
BRANCH  14  15
HETATM   15  C7  UNL     1       6.455  25.737  20.007  1.00  0.00     0.106 C 
BRANCH  15  16
HETATM   16  C8  UNL     1       5.229  25.049  20.491  1.00  0.00     0.014 C 
HETATM   17  C9  UNL     1       5.484  24.003  21.510  1.00  0.00     0.092 C 
HETATM   18  S1  UNL     1       3.829  23.243  21.779  1.00  0.00    -0.097 SA
HETATM   19  S2  UNL     1       2.733  25.060  21.331  1.00  0.00    -0.097 SA
HETATM   20  C10 UNL     1       4.258  26.063  21.047  1.00  0.00     0.092 C 
ENDBRANCH  15  16
ENDBRANCH  14  15
BRANCH  14  21
HETATM   21  N3  UNL     1       8.215  24.369  19.276  1.00  0.00    -0.377 NA
BRANCH  21  22
HETATM   22  C11 UNL     1       9.344  23.725  19.568  1.00  0.00     0.205 A 
HETATM   23  C12 UNL     1      10.330  23.991  20.528  1.00  0.00     0.230 A 
HETATM   24  O5  UNL     1      11.239  23.084  20.438  1.00  0.00    -0.259 OA
HETATM   25  C13 UNL     1      10.963  22.216  19.496  1.00  0.00     0.223 A 
HETATM   26  C14 UNL     1       9.776  22.556  18.898  1.00  0.00     0.171 A 
BRANCH  23  27
HETATM   27  O4  UNL     1      10.280  25.051  21.386  1.00  0.00    -0.338 OA
ATOM     28  H4  UNL     1      11.029  25.598  21.588  1.00  0.00     0.220 HD
ENDBRANCH  23  27
BRANCH  25  29
HETATM   29  O6  UNL     1      11.789  21.126  19.188  1.00  0.00    -0.338 OA
ATOM     30  H6  UNL     1      11.456  20.280  18.912  1.00  0.00     0.220 HD
ENDBRANCH  25  29
BRANCH  26  31
HETATM   31  O7  UNL     1       9.112  21.912  17.855  1.00  0.00    -0.354 OA
ATOM     32  H7  UNL     1       9.477  21.703  17.003  1.00  0.00     0.218 HD
ENDBRANCH  26  31
ENDBRANCH  21  22
ENDBRANCH  14  21
ENDBRANCH  13  14
ENDBRANCH  10  13
ENDBRANCH   5  10
BRANCH   1  33
HETATM   33  C2  UNL     1       3.845  25.136  13.693  1.00  0.00     0.253 C 
HETATM   34  N1  UNL     1       2.963  26.176  13.408  1.00  0.00    -0.363 N 
HETATM   35  C1  UNL     1       2.041  26.127  12.305  1.00  0.00     0.149 C 
ATOM     36  H1  UNL     1       2.972  27.004  14.003  1.00  0.00     0.161 HD
HETATM   37  O1  UNL     1       3.824  24.116  12.950  1.00  0.00    -0.271 OA
ENDBRANCH   1  33
BRANCH   9  38
HETATM   38  O10 UNL     1       5.708  26.871  13.518  1.00  0.00    -0.326 OA
BRANCH  38  39
HETATM   39  C17 UNL     1       6.150  28.170  13.561  1.00  0.00     0.291 C 
BRANCH  39  40
HETATM   40  O11 UNL     1       5.455  28.901  12.632  1.00  0.00    -0.368 OA
ATOM     41  H11 UNL     1       5.232  29.742  13.012  1.00  0.00     0.212 HD
ENDBRANCH  39  40
BRANCH  39  42
HETATM   42  C18 UNL     1       6.213  28.789  14.918  1.00  0.00     0.211 C 
BRANCH  42  43
HETATM   43  O12 UNL     1       7.221  29.732  15.050  1.00  0.00    -0.388 OA
ATOM     44  H12 UNL     1       6.943  30.526  15.492  1.00  0.00     0.210 HD
ENDBRANCH  42  43
BRANCH  42  45
HETATM   45  C19 UNL     1       4.909  29.327  15.437  1.00  0.00     0.244 C 
BRANCH  45  46
HETATM   46  O13 UNL     1       3.830  28.993  14.654  1.00  0.00    -0.383 OA
ATOM     47  H13 UNL     1       3.600  28.072  14.700  1.00  0.00     0.210 HD
ENDBRANCH  45  46
BRANCH  45  48
HETATM   48  C20 UNL     1       5.043  30.809  15.433  1.00  0.00     0.262 C 
HETATM   49  O14 UNL     1       5.122  31.433  16.524  1.00  0.00    -0.270 OA
HETATM   50  N4  UNL     1       5.086  31.539  14.213  1.00  0.00    -0.252 N 
ATOM     51  H4  UNL     1       5.017  31.033  13.330  1.00  0.00     0.181 HD
BRANCH  50  52
HETATM   52  S3  UNL     1       5.251  33.259  14.182  1.00  0.00     0.229 S 
HETATM   53  C21 UNL     1       3.953  34.061  15.039  1.00  0.00     0.186 C 
HETATM   54  O15 UNL     1       6.571  33.645  14.827  1.00  0.00    -0.206 OA
HETATM   55  O16 UNL     1       5.308  33.706  12.746  1.00  0.00    -0.206 OA
ENDBRANCH  50  52
ENDBRANCH  45  48
ENDBRANCH  42  45
ENDBRANCH  39  42
ENDBRANCH  38  39
ENDBRANCH   9  38
TORSDOF 21
ENDMDL
MODEL 4
REMARK VINA RESULT: -8.071385646      3.228      5.433
REMARK  21 active torsions:
REMARK  status: ('A' for Active; 'I' for Inactive)
REMARK       I    between atoms: N1_2  and  C2_4 
REMARK    1  A    between atoms: C2_4  and  C3_6 
REMARK    2  A    between atoms: C4_10  and  C5_11 
REMARK    3  A    between atoms: C5_11  and  O2_12 
REMARK    4  A    between atoms: C5_11  and  O3_14 
REMARK    5  A    between atoms: O3_14  and  C6_15 
REMARK    6  A    between atoms: C6_15  and  C7_16 
REMARK    7  A    between atoms: C6_15  and  N3_22 
REMARK    8  A    between atoms: C7_16  and  C8_17 
REMARK    9  A    between atoms: N3_22  and  C11_23 
REMARK   10  A    between atoms: C12_24  and  O4_25 
REMARK   11  A    between atoms: C13_28  and  O6_29 
REMARK   12  A    between atoms: C14_31  and  O7_32 
REMARK   13  A    between atoms: C16_37  and  O10_38 
REMARK   14  A    between atoms: O10_38  and  C17_39 
REMARK   15  A    between atoms: C17_39  and  O11_40 
REMARK   16  A    between atoms: C17_39  and  C18_42 
REMARK   17  A    between atoms: C18_42  and  O12_43 
REMARK   18  A    between atoms: C18_42  and  C19_45 
REMARK   19  A    between atoms: C19_45  and  O13_46 
REMARK   20  A    between atoms: C19_45  and  C20_48 
REMARK       I    between atoms: C20_48  and  N4_50 
REMARK   21  A    between atoms: N4_50  and  S3_52 
ROOT
HETATM    1  C3  UNL     1       5.038  24.659  15.310  1.00  0.00     0.333 C 
HETATM    2  N2  UNL     1       5.798  23.449  15.039  1.00  0.00    -0.039 N 
ATOM      3  H21 UNL     1       5.935  23.333  14.034  1.00  0.00     0.279 HD
ATOM      4  H22 UNL     1       5.233  22.623  15.235  1.00  0.00     0.279 HD
HETATM    5  C4  UNL     1       7.058  23.370  15.730  1.00  0.00     0.340 C 
HETATM    6  C15 UNL     1       7.883  24.593  15.454  1.00  0.00     0.297 C 
HETATM    7  O8  UNL     1       9.067  24.586  15.824  1.00  0.00    -0.263 OA
HETATM    8  O9  UNL     1       7.216  25.612  14.807  1.00  0.00    -0.285 OA
HETATM    9  C16 UNL     1       5.863  25.894  15.242  1.00  0.00     0.312 C 
ENDROOT
BRANCH   5  10
HETATM   10  C5  UNL     1       6.804  23.247  17.186  1.00  0.00     0.306 C 
BRANCH  10  11
HETATM   11  O2  UNL     1       7.484  22.114  17.672  1.00  0.00    -0.368 OA
ATOM     12  H2  UNL     1       7.220  21.959  18.571  1.00  0.00     0.212 HD
ENDBRANCH  10  11
BRANCH  10  13
HETATM   13  O3  UNL     1       7.043  24.364  17.977  1.00  0.00    -0.294 OA
BRANCH  13  14
HETATM   14  C6  UNL     1       7.267  24.402  19.347  1.00  0.00     0.195 C 
BRANCH  14  15
HETATM   15  C7  UNL     1       6.069  24.783  20.179  1.00  0.00     0.106 C 
BRANCH  15  16
HETATM   16  C8  UNL     1       5.234  25.827  19.528  1.00  0.00     0.014 C 
HETATM   17  C9  UNL     1       3.899  25.351  19.095  1.00  0.00     0.092 C 
HETATM   18  S1  UNL     1       3.190  26.796  18.201  1.00  0.00    -0.097 SA
HETATM   19  S2  UNL     1       4.257  28.268  19.384  1.00  0.00    -0.097 SA
HETATM   20  C10 UNL     1       5.068  27.004  20.459  1.00  0.00     0.092 C 
ENDBRANCH  15  16
ENDBRANCH  14  15
BRANCH  14  21
HETATM   21  N3  UNL     1       8.303  24.154  19.835  1.00  0.00    -0.377 NA
BRANCH  21  22
HETATM   22  C11 UNL     1       9.496  23.878  20.359  1.00  0.00     0.205 A 
HETATM   23  C12 UNL     1      10.448  22.910  20.013  1.00  0.00     0.230 A 
HETATM   24  O5  UNL     1      11.454  23.026  20.808  1.00  0.00    -0.259 OA
HETATM   25  C13 UNL     1      11.275  23.994  21.673  1.00  0.00     0.223 A 
HETATM   26  C14 UNL     1      10.054  24.581  21.452  1.00  0.00     0.171 A 
BRANCH  23  27
HETATM   27  O4  UNL     1      10.281  22.018  18.993  1.00  0.00    -0.338 OA
ATOM     28  H4  UNL     1      10.896  21.321  18.800  1.00  0.00     0.220 HD
ENDBRANCH  23  27
BRANCH  25  29
HETATM   29  O6  UNL     1      12.218  24.334  22.654  1.00  0.00    -0.338 OA
ATOM     30  H6  UNL     1      12.198  25.153  23.135  1.00  0.00     0.220 HD
ENDBRANCH  25  29
BRANCH  26  31
HETATM   31  O7  UNL     1       9.463  25.641  22.138  1.00  0.00    -0.354 OA
ATOM     32  H7  UNL     1       8.935  26.332  21.755  1.00  0.00     0.218 HD
ENDBRANCH  26  31
ENDBRANCH  21  22
ENDBRANCH  14  21
ENDBRANCH  13  14
ENDBRANCH  10  13
ENDBRANCH   5  10
BRANCH   1  33
HETATM   33  C2  UNL     1       3.952  24.646  14.261  1.00  0.00     0.253 C 
HETATM   34  N1  UNL     1       4.075  24.115  12.978  1.00  0.00    -0.363 N 
HETATM   35  C1  UNL     1       2.997  24.139  12.026  1.00  0.00     0.149 C 
ATOM     36  H1  UNL     1       4.962  23.694  12.705  1.00  0.00     0.161 HD
HETATM   37  O1  UNL     1       2.849  25.166  14.589  1.00  0.00    -0.271 OA
ENDBRANCH   1  33
BRANCH   9  38
HETATM   38  O10 UNL     1       5.372  26.767  14.305  1.00  0.00    -0.326 OA
BRANCH  38  39
HETATM   39  C17 UNL     1       5.602  28.102  14.526  1.00  0.00     0.291 C 
BRANCH  39  40
HETATM   40  O11 UNL     1       6.953  28.329  14.469  1.00  0.00    -0.368 OA
ATOM     41  H11 UNL     1       7.119  29.235  14.704  1.00  0.00     0.212 HD
ENDBRANCH  39  40
BRANCH  39  42
HETATM   42  C18 UNL     1       4.778  29.046  13.715  1.00  0.00     0.211 C 
BRANCH  42  43
HETATM   43  O12 UNL     1       5.033  28.975  12.354  1.00  0.00    -0.388 OA
ATOM     44  H12 UNL     1       5.543  29.706  12.025  1.00  0.00     0.210 HD
ENDBRANCH  42  43
BRANCH  42  45
HETATM   45  C19 UNL     1       3.300  28.995  13.983  1.00  0.00     0.244 C 
BRANCH  45  46
HETATM   46  O13 UNL     1       2.935  27.992  14.850  1.00  0.00    -0.383 OA
ATOM     47  H13 UNL     1       2.419  27.308  14.440  1.00  0.00     0.210 HD
ENDBRANCH  45  46
BRANCH  45  48
HETATM   48  C20 UNL     1       2.651  28.732  12.671  1.00  0.00     0.262 C 
HETATM   49  O14 UNL     1       2.540  27.548  12.254  1.00  0.00    -0.270 OA
HETATM   50  N4  UNL     1       2.147  29.797  11.874  1.00  0.00    -0.252 N 
ATOM     51  H4  UNL     1       2.242  30.755  12.211  1.00  0.00     0.181 HD
BRANCH  50  52
HETATM   52  S3  UNL     1       1.380  29.516  10.351  1.00  0.00     0.229 S 
HETATM   53  C21 UNL     1       0.739  30.987   9.654  1.00  0.00     0.186 C 
HETATM   54  O15 UNL     1       2.390  28.921   9.385  1.00  0.00    -0.206 OA
HETATM   55  O16 UNL     1       0.294  28.493  10.547  1.00  0.00    -0.206 OA
ENDBRANCH  50  52
ENDBRANCH  45  48
ENDBRANCH  42  45
ENDBRANCH  39  42
ENDBRANCH  38  39
ENDBRANCH   9  38
TORSDOF 21
ENDMDL
MODEL 5
REMARK VINA RESULT: -8.046122085      1.169      1.567
REMARK  21 active torsions:
REMARK  status: ('A' for Active; 'I' for Inactive)
REMARK       I    between atoms: N1_2  and  C2_4 
REMARK    1  A    between atoms: C2_4  and  C3_6 
REMARK    2  A    between atoms: C4_10  and  C5_11 
REMARK    3  A    between atoms: C5_11  and  O2_12 
REMARK    4  A    between atoms: C5_11  and  O3_14 
REMARK    5  A    between atoms: O3_14  and  C6_15 
REMARK    6  A    between atoms: C6_15  and  C7_16 
REMARK    7  A    between atoms: C6_15  and  N3_22 
REMARK    8  A    between atoms: C7_16  and  C8_17 
REMARK    9  A    between atoms: N3_22  and  C11_23 
REMARK   10  A    between atoms: C12_24  and  O4_25 
REMARK   11  A    between atoms: C13_28  and  O6_29 
REMARK   12  A    between atoms: C14_31  and  O7_32 
REMARK   13  A    between atoms: C16_37  and  O10_38 
REMARK   14  A    between atoms: O10_38  and  C17_39 
REMARK   15  A    between atoms: C17_39  and  O11_40 
REMARK   16  A    between atoms: C17_39  and  C18_42 
REMARK   17  A    between atoms: C18_42  and  O12_43 
REMARK   18  A    between atoms: C18_42  and  C19_45 
REMARK   19  A    between atoms: C19_45  and  O13_46 
REMARK   20  A    between atoms: C19_45  and  C20_48 
REMARK       I    between atoms: C20_48  and  N4_50 
REMARK   21  A    between atoms: N4_50  and  S3_52 
ROOT
HETATM    1  C3  UNL     1       8.630  23.705  19.220  1.00  0.00     0.333 C 
HETATM    2  N2  UNL     1       8.342  22.325  19.577  1.00  0.00    -0.039 N 
ATOM      3  H21 UNL     1       7.342  22.138  19.496  1.00  0.00     0.279 HD
ATOM      4  H22 UNL     1       8.465  22.184  20.580  1.00  0.00     0.279 HD
HETATM    5  C4  UNL     1       9.096  21.348  18.837  1.00  0.00     0.340 C 
HETATM    6  C15 UNL     1       8.927  21.565  17.362  1.00  0.00     0.297 C 
HETATM    7  O8  UNL     1       9.361  20.691  16.596  1.00  0.00    -0.263 OA
HETATM    8  O9  UNL     1       8.295  22.740  17.015  1.00  0.00    -0.285 OA
HETATM    9  C16 UNL     1       8.668  23.931  17.751  1.00  0.00     0.312 C 
ENDROOT
BRANCH   5  10
HETATM   10  C5  UNL     1      10.529  21.463  19.206  1.00  0.00     0.306 C 
BRANCH  10  11
HETATM   11  O2  UNL     1      11.306  21.416  18.032  1.00  0.00    -0.368 OA
ATOM     12  H2  UNL     1      11.334  22.284  17.647  1.00  0.00     0.212 HD
ENDBRANCH  10  11
BRANCH  10  13
HETATM   13  O3  UNL     1      10.899  22.526  20.020  1.00  0.00    -0.294 OA
BRANCH  13  14
HETATM   14  C6  UNL     1      11.707  22.488  21.149  1.00  0.00     0.195 C 
BRANCH  14  15
HETATM   15  C7  UNL     1      11.425  23.560  22.172  1.00  0.00     0.106 C 
BRANCH  15  16
HETATM   16  C8  UNL     1      10.198  23.279  22.964  1.00  0.00     0.014 C 
HETATM   17  C9  UNL     1      10.445  22.519  24.212  1.00  0.00     0.092 C 
HETATM   18  S1  UNL     1       8.755  22.195  24.867  1.00  0.00    -0.097 SA
HETATM   19  S2  UNL     1       7.898  24.001  24.023  1.00  0.00    -0.097 SA
HETATM   20  C10 UNL     1       9.496  24.574  23.298  1.00  0.00     0.092 C 
ENDBRANCH  15  16
ENDBRANCH  14  15
BRANCH  14  21
HETATM   21  N3  UNL     1      12.547  21.688  21.311  1.00  0.00    -0.377 NA
BRANCH  21  22
HETATM   22  C11 UNL     1      13.485  20.766  21.522  1.00  0.00     0.205 A 
HETATM   23  C12 UNL     1      14.068  19.834  20.652  1.00  0.00     0.230 A 
HETATM   24  O5  UNL     1      14.937  19.151  21.311  1.00  0.00    -0.259 OA
HETATM   25  C13 UNL     1      15.003  19.535  22.563  1.00  0.00     0.223 A 
HETATM   26  C14 UNL     1      14.110  20.555  22.773  1.00  0.00     0.171 A 
BRANCH  23  27
HETATM   27  O4  UNL     1      13.728  19.717  19.336  1.00  0.00    -0.338 OA
ATOM     28  H4  UNL     1      12.999  20.178  18.939  1.00  0.00     0.220 HD
ENDBRANCH  23  27
BRANCH  25  29
HETATM   29  O6  UNL     1      15.870  18.955  23.501  1.00  0.00    -0.338 OA
ATOM     30  H6  UNL     1      16.807  19.113  23.512  1.00  0.00     0.220 HD
ENDBRANCH  25  29
BRANCH  26  31
HETATM   31  O7  UNL     1      13.851  21.253  23.951  1.00  0.00    -0.354 OA
ATOM     32  H7  UNL     1      14.449  21.840  24.399  1.00  0.00     0.218 HD
ENDBRANCH  26  31
ENDBRANCH  21  22
ENDBRANCH  14  21
ENDBRANCH  13  14
ENDBRANCH  10  13
ENDBRANCH   5  10
BRANCH   1  33
HETATM   33  C2  UNL     1       7.523  24.488  19.884  1.00  0.00     0.253 C 
HETATM   34  N1  UNL     1       7.640  25.779  20.394  1.00  0.00    -0.363 N 
HETATM   35  C1  UNL     1       6.542  26.467  21.018  1.00  0.00     0.149 C 
ATOM     36  H1  UNL     1       8.540  26.255  20.323  1.00  0.00     0.161 HD
HETATM   37  O1  UNL     1       6.405  23.909  19.978  1.00  0.00    -0.271 OA
ENDBRANCH   1  33
BRANCH   9  38
HETATM   38  O10 UNL     1       7.749  24.876  17.371  1.00  0.00    -0.326 OA
BRANCH  38  39
HETATM   39  C17 UNL     1       6.880  24.523  16.368  1.00  0.00     0.291 C 
BRANCH  39  40
HETATM   40  O11 UNL     1       5.717  24.071  16.934  1.00  0.00    -0.368 OA
ATOM     41  H11 UNL     1       5.676  24.379  17.832  1.00  0.00     0.212 HD
ENDBRANCH  39  40
BRANCH  39  42
HETATM   42  C18 UNL     1       6.694  25.534  15.286  1.00  0.00     0.211 C 
BRANCH  42  43
HETATM   43  O12 UNL     1       7.718  26.466  15.216  1.00  0.00    -0.388 OA
ATOM     44  H12 UNL     1       7.620  27.185  15.829  1.00  0.00     0.210 HD
ENDBRANCH  42  43
BRANCH  42  45
HETATM   45  C19 UNL     1       6.397  24.966  13.926  1.00  0.00     0.244 C 
BRANCH  45  46
HETATM   46  O13 UNL     1       6.913  25.717  12.896  1.00  0.00    -0.383 OA
ATOM     47  H13 UNL     1       7.730  25.374  12.551  1.00  0.00     0.210 HD
ENDBRANCH  45  46
BRANCH  45  48
HETATM   48  C20 UNL     1       4.915  24.959  13.796  1.00  0.00     0.262 C 
HETATM   49  O14 UNL     1       4.263  23.932  14.122  1.00  0.00    -0.270 OA
HETATM   50  N4  UNL     1       4.215  26.098  13.309  1.00  0.00    -0.252 N 
ATOM     51  H4  UNL     1       4.745  26.928  13.041  1.00  0.00     0.181 HD
BRANCH  50  52
HETATM   52  S3  UNL     1       2.493  26.118  13.159  1.00  0.00     0.229 S 
HETATM   53  C21 UNL     1       1.696  25.872  14.696  1.00  0.00     0.186 C 
HETATM   54  O15 UNL     1       2.057  27.458  12.593  1.00  0.00    -0.206 OA
HETATM   55  O16 UNL     1       2.091  25.062  12.166  1.00  0.00    -0.206 OA
ENDBRANCH  50  52
ENDBRANCH  45  48
ENDBRANCH  42  45
ENDBRANCH  39  42
ENDBRANCH  38  39
ENDBRANCH   9  38
TORSDOF 21
ENDMDL
