MODEL 1
REMARK VINA RESULT: -6.788258590      0.000      0.000
REMARK  7 active torsions:
REMARK  status: ('A' for Active; 'I' for Inactive)
REMARK    1  A    between atoms: C2_2  and  O1_3 
REMARK    2  A    between atoms: C2_2  and  C3_5 
REMARK    3  A    between atoms: C3_5  and  S1_6 
REMARK    4  A    between atoms: S1_6  and  S2_7 
REMARK    5  A    between atoms: S2_7  and  C4_8 
REMARK    6  A    between atoms: C5_9  and  N1_10 
REMARK    7  A    between atoms: C7_12  and  C8_13 
ROOT
HETATM    1  N1  UNL     1     -26.843  21.893 -21.322  1.00  0.00    -0.277 N 
HETATM    2  C6  UNL     1     -27.174  21.268 -22.464  1.00  0.00     0.130 A 
HETATM    3  C7  UNL     1     -26.607  21.936 -23.528  1.00  0.00     0.018 A 
HETATM    4  C12 UNL     1     -25.914  23.000 -22.980  1.00  0.00     0.106 A 
HETATM    5 BR1  UNL     1     -24.920  24.284 -24.009  1.00  0.00    -0.029 Br
HETATM    6  N3  UNL     1     -26.078  22.939 -21.658  1.00  0.00    -0.287 N 
ATOM      7  H3  UNL     1     -25.675  23.599 -20.993  1.00  0.00     0.188 HD
ENDROOT
BRANCH   1   8
HETATM    8  C5  UNL     1     -27.218  21.596 -19.978  1.00  0.00     0.123 C 
HETATM    9  C4  UNL     1     -28.309  20.910 -19.745  1.00  0.00     0.076 C 
BRANCH   9  10
HETATM   10  S2  UNL     1     -28.708  20.577 -18.017  1.00  0.00    -0.068 SA
BRANCH  10  11
HETATM   11  S1  UNL     1     -29.154  22.357 -16.955  1.00  0.00    -0.091 SA
BRANCH  11  12
HETATM   12  C3  UNL     1     -27.686  23.365 -16.653  1.00  0.00     0.117 C 
BRANCH  12  13
HETATM   13  C2  UNL     1     -28.031  24.586 -15.816  1.00  0.00     0.124 C 
HETATM   14  C1  UNL     1     -27.132  25.705 -16.275  1.00  0.00     0.040 C 
BRANCH  13  15
HETATM   15  O1  UNL     1     -27.885  24.238 -14.494  1.00  0.00    -0.395 OA
ATOM     16  H1  UNL     1     -28.154  23.351 -14.285  1.00  0.00     0.210 HD
ENDBRANCH  13  15
ENDBRANCH  12  13
ENDBRANCH  11  12
ENDBRANCH  10  11
ENDBRANCH   9  10
ENDBRANCH   1   8
BRANCH   3  17
HETATM   17  C8  UNL     1     -26.702  21.592 -24.962  1.00  0.00     0.040 C 
HETATM   18  C9  UNL     1     -27.633  22.077 -25.729  1.00  0.00     0.079 C 
HETATM   19  S3  UNL     1     -28.987  23.208 -25.357  1.00  0.00    -0.024 SA
HETATM   20  C11 UNL     1     -27.829  21.808 -27.145  1.00  0.00     0.266 C 
HETATM   21  C10 UNL     1     -30.041  22.585 -26.705  1.00  0.00     0.291 C 
HETATM   22  O2  UNL     1     -31.283  22.611 -26.764  1.00  0.00    -0.260 OA
HETATM   23  N2  UNL     1     -29.101  22.082 -27.640  1.00  0.00    -0.283 N 
ATOM     24  H2  UNL     1     -29.343  21.929 -28.619  1.00  0.00     0.172 HD
HETATM   25  O3  UNL     1     -26.872  21.345 -27.872  1.00  0.00    -0.267 OA
ENDBRANCH   3  17
TORSDOF 7
ENDMDL
MODEL 2
REMARK VINA RESULT: -6.736357409      3.856      7.748
REMARK  7 active torsions:
REMARK  status: ('A' for Active; 'I' for Inactive)
REMARK    1  A    between atoms: C2_2  and  O1_3 
REMARK    2  A    between atoms: C2_2  and  C3_5 
REMARK    3  A    between atoms: C3_5  and  S1_6 
REMARK    4  A    between atoms: S1_6  and  S2_7 
REMARK    5  A    between atoms: S2_7  and  C4_8 
REMARK    6  A    between atoms: C5_9  and  N1_10 
REMARK    7  A    between atoms: C7_12  and  C8_13 
ROOT
HETATM    1  N1  UNL     1     -28.501  21.017 -23.113  1.00  0.00    -0.277 N 
HETATM    2  C6  UNL     1     -28.105  20.839 -21.842  1.00  0.00     0.130 A 
HETATM    3  C7  UNL     1     -29.015  20.035 -21.191  1.00  0.00     0.018 A 
HETATM    4  C12 UNL     1     -29.987  19.730 -22.127  1.00  0.00     0.106 A 
HETATM    5 BR1  UNL     1     -31.521  18.628 -21.770  1.00  0.00    -0.029 Br
HETATM    6  N3  UNL     1     -29.643  20.335 -23.264  1.00  0.00    -0.287 N 
ATOM      7  H3  UNL     1     -30.177  20.285 -24.132  1.00  0.00     0.188 HD
ENDROOT
BRANCH   1   8
HETATM    8  C5  UNL     1     -27.907  21.792 -24.152  1.00  0.00     0.123 C 
HETATM    9  C4  UNL     1     -27.011  21.247 -24.938  1.00  0.00     0.076 C 
BRANCH   9  10
HETATM   10  S2  UNL     1     -26.311  22.298 -26.227  1.00  0.00    -0.068 SA
BRANCH  10  11
HETATM   11  S1  UNL     1     -24.779  23.555 -25.475  1.00  0.00    -0.091 SA
BRANCH  11  12
HETATM   12  C3  UNL     1     -25.026  23.975 -23.735  1.00  0.00     0.117 C 
BRANCH  12  13
HETATM   13  C2  UNL     1     -24.410  22.919 -22.831  1.00  0.00     0.124 C 
HETATM   14  C1  UNL     1     -25.003  23.113 -21.459  1.00  0.00     0.040 C 
BRANCH  13  15
HETATM   15  O1  UNL     1     -23.044  23.066 -22.892  1.00  0.00    -0.395 OA
ATOM     16  H1  UNL     1     -22.571  22.277 -23.132  1.00  0.00     0.210 HD
ENDBRANCH  13  15
ENDBRANCH  12  13
ENDBRANCH  11  12
ENDBRANCH  10  11
ENDBRANCH   9  10
ENDBRANCH   1   8
BRANCH   3  17
HETATM   17  C8  UNL     1     -28.971  19.575 -19.787  1.00  0.00     0.040 C 
HETATM   18  C9  UNL     1     -29.254  20.362 -18.793  1.00  0.00     0.079 C 
HETATM   19  S3  UNL     1     -29.742  22.097 -18.773  1.00  0.00    -0.024 SA
HETATM   20  C11 UNL     1     -29.239  20.025 -17.377  1.00  0.00     0.266 C 
HETATM   21  C10 UNL     1     -29.093  22.389 -17.098  1.00  0.00     0.291 C 
HETATM   22  O2  UNL     1     -28.699  23.467 -16.619  1.00  0.00    -0.260 OA
HETATM   23  N2  UNL     1     -29.154  21.104 -16.502  1.00  0.00    -0.283 N 
ATOM     24  H2  UNL     1     -29.136  20.977 -15.490  1.00  0.00     0.172 HD
HETATM   25  O3  UNL     1     -29.299  18.799 -16.986  1.00  0.00    -0.267 OA
ENDBRANCH   3  17
TORSDOF 7
ENDMDL
MODEL 3
REMARK VINA RESULT: -6.697889596      1.313      2.049
REMARK  7 active torsions:
REMARK  status: ('A' for Active; 'I' for Inactive)
REMARK    1  A    between atoms: C2_2  and  O1_3 
REMARK    2  A    between atoms: C2_2  and  C3_5 
REMARK    3  A    between atoms: C3_5  and  S1_6 
REMARK    4  A    between atoms: S1_6  and  S2_7 
REMARK    5  A    between atoms: S2_7  and  C4_8 
REMARK    6  A    between atoms: C5_9  and  N1_10 
REMARK    7  A    between atoms: C7_12  and  C8_13 
ROOT
HETATM    1  N1  UNL     1     -27.672  22.796 -20.924  1.00  0.00    -0.277 N 
HETATM    2  C6  UNL     1     -28.621  22.938 -21.864  1.00  0.00     0.130 A 
HETATM    3  C7  UNL     1     -28.049  23.428 -23.018  1.00  0.00     0.018 A 
HETATM    4  C12 UNL     1     -26.703  23.579 -22.737  1.00  0.00     0.106 A 
HETATM    5 BR1  UNL     1     -25.406  24.238 -23.994  1.00  0.00    -0.029 Br
HETATM    6  N3  UNL     1     -26.517  23.189 -21.476  1.00  0.00    -0.287 N 
ATOM      7  H3  UNL     1     -25.617  23.190 -20.996  1.00  0.00     0.188 HD
ENDROOT
BRANCH   1   8
HETATM    8  C5  UNL     1     -27.786  22.358 -19.572  1.00  0.00     0.123 C 
HETATM    9  C4  UNL     1     -28.642  21.415 -19.265  1.00  0.00     0.076 C 
BRANCH   9  10
HETATM   10  S2  UNL     1     -28.721  20.920 -17.531  1.00  0.00    -0.068 SA
BRANCH  10  11
HETATM   11  S1  UNL     1     -29.156  22.562 -16.263  1.00  0.00    -0.091 SA
BRANCH  11  12
HETATM   12  C3  UNL     1     -27.678  23.502 -15.821  1.00  0.00     0.117 C 
BRANCH  12  13
HETATM   13  C2  UNL     1     -27.775  24.932 -16.327  1.00  0.00     0.124 C 
HETATM   14  C1  UNL     1     -26.531  25.200 -17.134  1.00  0.00     0.040 C 
BRANCH  13  15
HETATM   15  O1  UNL     1     -27.938  25.750 -15.234  1.00  0.00    -0.395 OA
ATOM     16  H1  UNL     1     -27.788  25.327 -14.396  1.00  0.00     0.210 HD
ENDBRANCH  13  15
ENDBRANCH  12  13
ENDBRANCH  11  12
ENDBRANCH  10  11
ENDBRANCH   9  10
ENDBRANCH   1   8
BRANCH   3  17
HETATM   17  C8  UNL     1     -28.719  23.726 -24.301  1.00  0.00     0.040 C 
HETATM   18  C9  UNL     1     -28.645  22.923 -25.321  1.00  0.00     0.079 C 
HETATM   19  S3  UNL     1     -27.793  21.346 -25.513  1.00  0.00    -0.024 SA
HETATM   20  C11 UNL     1     -29.253  23.112 -26.629  1.00  0.00     0.266 C 
HETATM   21  C10 UNL     1     -27.614  21.521 -27.316  1.00  0.00     0.291 C 
HETATM   22  O2  UNL     1     -26.742  21.010 -28.040  1.00  0.00    -0.260 OA
HETATM   23  N2  UNL     1     -28.698  22.366 -27.665  1.00  0.00    -0.283 N 
ATOM     24  H2  UNL     1     -29.050  22.425 -28.620  1.00  0.00     0.172 HD
HETATM   25  O3  UNL     1     -30.239  23.925 -26.792  1.00  0.00    -0.267 OA
ENDBRANCH   3  17
TORSDOF 7
ENDMDL
MODEL 4
REMARK VINA RESULT: -6.688273325      3.969      8.259
REMARK  7 active torsions:
REMARK  status: ('A' for Active; 'I' for Inactive)
REMARK    1  A    between atoms: C2_2  and  O1_3 
REMARK    2  A    between atoms: C2_2  and  C3_5 
REMARK    3  A    between atoms: C3_5  and  S1_6 
REMARK    4  A    between atoms: S1_6  and  S2_7 
REMARK    5  A    between atoms: S2_7  and  C4_8 
REMARK    6  A    between atoms: C5_9  and  N1_10 
REMARK    7  A    between atoms: C7_12  and  C8_13 
ROOT
HETATM    1  N1  UNL     1     -25.966  22.960 -19.439  1.00  0.00    -0.277 N 
HETATM    2  C6  UNL     1     -26.672  21.853 -19.157  1.00  0.00     0.130 A 
HETATM    3  C7  UNL     1     -27.408  22.063 -18.010  1.00  0.00     0.018 A 
HETATM    4  C12 UNL     1     -27.116  23.354 -17.606  1.00  0.00     0.106 A 
HETATM    5 BR1  UNL     1     -27.866  24.191 -16.046  1.00  0.00    -0.029 Br
HETATM    6  N3  UNL     1     -26.252  23.857 -18.487  1.00  0.00    -0.287 N 
ATOM      7  H3  UNL     1     -25.861  24.798 -18.442  1.00  0.00     0.188 HD
ENDROOT
BRANCH   1   8
HETATM    8  C5  UNL     1     -25.043  23.207 -20.497  1.00  0.00     0.123 C 
HETATM    9  C4  UNL     1     -25.354  22.866 -21.723  1.00  0.00     0.076 C 
BRANCH   9  10
HETATM   10  S2  UNL     1     -24.129  23.215 -23.002  1.00  0.00    -0.068 SA
BRANCH  10  11
HETATM   11  S1  UNL     1     -25.015  24.053 -24.735  1.00  0.00    -0.091 SA
BRANCH  11  12
HETATM   12  C3  UNL     1     -24.230  23.479 -26.257  1.00  0.00     0.117 C 
BRANCH  12  13
HETATM   13  C2  UNL     1     -25.095  22.440 -26.953  1.00  0.00     0.124 C 
HETATM   14  C1  UNL     1     -26.125  21.981 -25.953  1.00  0.00     0.040 C 
BRANCH  13  15
HETATM   15  O1  UNL     1     -24.261  21.448 -27.414  1.00  0.00    -0.395 OA
ATOM     16  H1  UNL     1     -24.664  20.845 -28.028  1.00  0.00     0.210 HD
ENDBRANCH  13  15
ENDBRANCH  12  13
ENDBRANCH  11  12
ENDBRANCH  10  11
ENDBRANCH   9  10
ENDBRANCH   1   8
BRANCH   3  17
HETATM   17  C8  UNL     1     -28.331  21.121 -17.345  1.00  0.00     0.040 C 
HETATM   18  C9  UNL     1     -28.896  20.140 -17.984  1.00  0.00     0.079 C 
HETATM   19  S3  UNL     1     -28.774  19.642 -19.712  1.00  0.00    -0.024 SA
HETATM   20  C11 UNL     1     -29.822  19.158 -17.440  1.00  0.00     0.266 C 
HETATM   21  C10 UNL     1     -30.415  18.853 -19.729  1.00  0.00     0.291 C 
HETATM   22  O2  UNL     1     -31.160  18.685 -20.711  1.00  0.00    -0.260 OA
HETATM   23  N2  UNL     1     -30.611  18.492 -18.372  1.00  0.00    -0.283 N 
ATOM     24  H2  UNL     1     -31.292  17.784 -18.096  1.00  0.00     0.172 HD
HETATM   25  O3  UNL     1     -29.888  18.940 -16.172  1.00  0.00    -0.267 OA
ENDBRANCH   3  17
TORSDOF 7
ENDMDL
MODEL 5
REMARK VINA RESULT: -6.645343265      3.176      8.594
REMARK  7 active torsions:
REMARK  status: ('A' for Active; 'I' for Inactive)
REMARK    1  A    between atoms: C2_2  and  O1_3 
REMARK    2  A    between atoms: C2_2  and  C3_5 
REMARK    3  A    between atoms: C3_5  and  S1_6 
REMARK    4  A    between atoms: S1_6  and  S2_7 
REMARK    5  A    between atoms: S2_7  and  C4_8 
REMARK    6  A    between atoms: C5_9  and  N1_10 
REMARK    7  A    between atoms: C7_12  and  C8_13 
ROOT
HETATM    1  N1  UNL     1     -26.900  21.484 -22.300  1.00  0.00    -0.277 N 
HETATM    2  C6  UNL     1     -26.892  21.119 -21.007  1.00  0.00     0.130 A 
HETATM    3  C7  UNL     1     -28.099  20.530 -20.694  1.00  0.00     0.018 A 
HETATM    4  C12 UNL     1     -28.844  20.553 -21.859  1.00  0.00     0.106 A 
HETATM    5 BR1  UNL     1     -30.630  19.859 -22.012  1.00  0.00    -0.029 Br
HETATM    6  N3  UNL     1     -28.092  21.130 -22.797  1.00  0.00    -0.287 N 
ATOM      7  H3  UNL     1     -28.384  21.281 -23.763  1.00  0.00     0.188 HD
ENDROOT
BRANCH   1   8
HETATM    8  C5  UNL     1     -25.899  22.153 -23.064  1.00  0.00     0.123 C 
HETATM    9  C4  UNL     1     -25.873  23.463 -23.094  1.00  0.00     0.076 C 
BRANCH   9  10
HETATM   10  S2  UNL     1     -24.573  24.228 -24.085  1.00  0.00    -0.068 SA
BRANCH  10  11
HETATM   11  S1  UNL     1     -24.567  23.500 -26.076  1.00  0.00    -0.091 SA
BRANCH  11  12
HETATM   12  C3  UNL     1     -26.105  22.654 -26.504  1.00  0.00     0.117 C 
BRANCH  12  13
HETATM   13  C2  UNL     1     -25.821  21.369 -27.266  1.00  0.00     0.124 C 
HETATM   14  C1  UNL     1     -26.523  20.256 -26.532  1.00  0.00     0.040 C 
BRANCH  13  15
HETATM   15  O1  UNL     1     -24.455  21.230 -27.351  1.00  0.00    -0.395 OA
ATOM     16  H1  UNL     1     -24.164  20.492 -27.874  1.00  0.00     0.210 HD
ENDBRANCH  13  15
ENDBRANCH  12  13
ENDBRANCH  11  12
ENDBRANCH  10  11
ENDBRANCH   9  10
ENDBRANCH   1   8
BRANCH   3  17
HETATM   17  C8  UNL     1     -28.520  19.974 -19.391  1.00  0.00     0.040 C 
HETATM   18  C9  UNL     1     -28.910  20.732 -18.411  1.00  0.00     0.079 C 
HETATM   19  S3  UNL     1     -29.056  22.525 -18.301  1.00  0.00    -0.024 SA
HETATM   20  C11 UNL     1     -29.340  20.301 -17.089  1.00  0.00     0.266 C 
HETATM   21  C10 UNL     1     -28.840  22.556 -16.493  1.00  0.00     0.291 C 
HETATM   22  O2  UNL     1     -28.397  23.491 -15.802  1.00  0.00    -0.260 OA
HETATM   23  N2  UNL     1     -29.296  21.274 -16.095  1.00  0.00    -0.283 N 
ATOM     24  H2  UNL     1     -29.575  21.076 -15.133  1.00  0.00     0.172 HD
HETATM   25  O3  UNL     1     -29.728  19.091 -16.878  1.00  0.00    -0.267 OA
ENDBRANCH   3  17
TORSDOF 7
ENDMDL
