MODEL 1
REMARK VINA RESULT: -6.252977577      0.000      0.000
REMARK  5 active torsions:
REMARK  status: ('A' for Active; 'I' for Inactive)
REMARK       I    between atoms: C1_4  and  N3_6 
REMARK    1  A    between atoms: C3_9  and  C4_10 
REMARK       I    between atoms: C4_10  and  N4_12 
REMARK    2  A    between atoms: N4_12  and  C5_14 
REMARK    3  A    between atoms: C5_14  and  C6_15 
REMARK    4  A    between atoms: N7_25  and  C9_26 
REMARK    5  A    between atoms: C9_26  and  O5_27 
ROOT
HETATM    1  N1  UNL     1      21.233  35.752  39.356  1.00  0.00    -0.373 N 
ATOM      2  H11 UNL     1      21.518  35.477  38.417  1.00  0.00     0.158 HD
ATOM      3  H12 UNL     1      21.660  35.369  40.200  1.00  0.00     0.158 HD
HETATM    4  C1  UNL     1      20.241  36.594  39.483  1.00  0.00     0.197 C 
HETATM    5  N2  UNL     1      19.854  36.968  40.757  1.00  0.00    -0.063 NA
HETATM    6  N3  UNL     1      19.657  37.119  38.330  1.00  0.00    -0.233 N 
HETATM    7  C2  UNL     1      19.958  38.430  38.029  1.00  0.00     0.273 A 
HETATM    8  O1  UNL     1      20.671  39.042  38.849  1.00  0.00    -0.266 OA
HETATM    9  C3  UNL     1      19.484  39.044  36.904  1.00  0.00     0.120 A 
HETATM   10  C7  UNL     1      18.675  38.264  36.063  1.00  0.00     0.065 A 
HETATM   11  S1  UNL     1      18.096  39.044  34.568  1.00  0.00    -0.049 SA
HETATM   12  C8  UNL     1      18.376  36.972  36.373  1.00  0.00     0.114 A 
HETATM   13  N5  UNL     1      17.591  36.058  35.839  1.00  0.00    -0.281 N 
ATOM     14  H5  UNL     1      17.075  36.183  34.968  1.00  0.00     0.188 HD
HETATM   15  N6  UNL     1      17.558  34.995  36.548  1.00  0.00    -0.236 N 
ATOM     16  H6  UNL     1      17.017  34.161  36.321  1.00  0.00     0.208 HD
HETATM   17  N7  UNL     1      18.343  35.133  37.644  1.00  0.00    -0.236 N 
HETATM   18  C10 UNL     1      18.870  36.372  37.537  1.00  0.00     0.167 A 
ENDROOT
BRANCH   9  19
HETATM   19  C4  UNL     1      19.462  40.533  36.722  1.00  0.00     0.259 C 
HETATM   20  O2  UNL     1      18.331  41.077  36.614  1.00  0.00    -0.267 OA
HETATM   21  N4  UNL     1      20.655  41.284  36.731  1.00  0.00    -0.347 N 
ATOM     22  H4  UNL     1      21.572  40.838  36.696  1.00  0.00     0.163 HD
BRANCH  21  23
HETATM   23  C5  UNL     1      20.504  42.748  36.794  1.00  0.00     0.236 C 
BRANCH  23  24
HETATM   24  C6  UNL     1      21.784  43.396  36.518  1.00  0.00     0.191 C 
HETATM   25  O3  UNL     1      22.133  44.509  36.944  1.00  0.00    -0.647 OA
HETATM   26  O4  UNL     1      22.678  42.665  35.654  1.00  0.00    -0.647 OA
ENDBRANCH  23  24
ENDBRANCH  21  23
ENDBRANCH   9  19
BRANCH  17  27
HETATM   27  C9  UNL     1      18.460  34.187  38.693  1.00  0.00     0.316 C 
BRANCH  27  28
HETATM   28  O5  UNL     1      19.424  33.166  38.327  1.00  0.00    -0.380 OA
ATOM     29  H5  UNL     1      19.179  32.337  38.721  1.00  0.00     0.211 HD
ENDBRANCH  27  28
ENDBRANCH  17  27
TORSDOF 5
ENDMDL
MODEL 2
REMARK VINA RESULT: -6.176309872      2.284      3.482
REMARK  5 active torsions:
REMARK  status: ('A' for Active; 'I' for Inactive)
REMARK       I    between atoms: C1_4  and  N3_6 
REMARK    1  A    between atoms: C3_9  and  C4_10 
REMARK       I    between atoms: C4_10  and  N4_12 
REMARK    2  A    between atoms: N4_12  and  C5_14 
REMARK    3  A    between atoms: C5_14  and  C6_15 
REMARK    4  A    between atoms: N7_25  and  C9_26 
REMARK    5  A    between atoms: C9_26  and  O5_27 
ROOT
HETATM    1  N1  UNL     1      21.282  36.860  39.609  1.00  0.00    -0.373 N 
ATOM      2  H11 UNL     1      21.764  36.769  38.716  1.00  0.00     0.158 HD
ATOM      3  H12 UNL     1      21.744  36.709  40.506  1.00  0.00     0.158 HD
HETATM    4  C1  UNL     1      20.003  37.129  39.600  1.00  0.00     0.197 C 
HETATM    5  N2  UNL     1      19.348  37.253  40.812  1.00  0.00    -0.063 NA
HETATM    6  N3  UNL     1      19.371  37.336  38.374  1.00  0.00    -0.233 N 
HETATM    7  C2  UNL     1      19.048  38.638  38.059  1.00  0.00     0.273 A 
HETATM    8  O1  UNL     1      19.293  39.500  38.926  1.00  0.00    -0.266 OA
HETATM    9  C3  UNL     1      18.467  38.975  36.869  1.00  0.00     0.120 A 
HETATM   10  C7  UNL     1      18.220  37.919  35.977  1.00  0.00     0.065 A 
HETATM   11  S1  UNL     1      17.510  38.359  34.401  1.00  0.00    -0.049 SA
HETATM   12  C8  UNL     1      18.536  36.634  36.300  1.00  0.00     0.114 A 
HETATM   13  N5  UNL     1      18.339  35.467  35.720  1.00  0.00    -0.281 N 
ATOM     14  H5  UNL     1      17.924  35.348  34.796  1.00  0.00     0.188 HD
HETATM   15  N6  UNL     1      18.734  34.503  36.460  1.00  0.00    -0.236 N 
ATOM     16  H6  UNL     1      18.679  33.516  36.208  1.00  0.00     0.208 HD
HETATM   17  N7  UNL     1      19.235  34.977  37.627  1.00  0.00    -0.236 N 
HETATM   18  C10 UNL     1      19.123  36.320  37.531  1.00  0.00     0.167 A 
ENDROOT
BRANCH   9  19
HETATM   19  C4  UNL     1      17.765  40.279  36.631  1.00  0.00     0.259 C 
HETATM   20  O2  UNL     1      18.461  41.226  36.180  1.00  0.00    -0.267 OA
HETATM   21  N4  UNL     1      16.378  40.408  36.849  1.00  0.00    -0.347 N 
ATOM     22  H4  UNL     1      15.838  39.685  37.326  1.00  0.00     0.163 HD
BRANCH  21  23
HETATM   23  C5  UNL     1      15.751  41.644  36.352  1.00  0.00     0.236 C 
BRANCH  23  24
HETATM   24  C6  UNL     1      14.581  41.322  35.539  1.00  0.00     0.191 C 
HETATM   25  O3  UNL     1      14.450  41.582  34.332  1.00  0.00    -0.647 OA
HETATM   26  O4  UNL     1      13.499  40.673  36.237  1.00  0.00    -0.647 OA
ENDBRANCH  23  24
ENDBRANCH  21  23
ENDBRANCH   9  19
BRANCH  17  27
HETATM   27  C9  UNL     1      19.669  34.181  38.716  1.00  0.00     0.316 C 
BRANCH  27  28
HETATM   28  O5  UNL     1      19.351  32.787  38.462  1.00  0.00    -0.380 OA
ATOM     29  H5  UNL     1      19.827  32.234  39.070  1.00  0.00     0.211 HD
ENDBRANCH  27  28
ENDBRANCH  17  27
TORSDOF 5
ENDMDL
MODEL 3
REMARK VINA RESULT: -5.891505022      3.094      4.915
REMARK  5 active torsions:
REMARK  status: ('A' for Active; 'I' for Inactive)
REMARK       I    between atoms: C1_4  and  N3_6 
REMARK    1  A    between atoms: C3_9  and  C4_10 
REMARK       I    between atoms: C4_10  and  N4_12 
REMARK    2  A    between atoms: N4_12  and  C5_14 
REMARK    3  A    between atoms: C5_14  and  C6_15 
REMARK    4  A    between atoms: N7_25  and  C9_26 
REMARK    5  A    between atoms: C9_26  and  O5_27 
ROOT
HETATM    1  N1  UNL     1      17.625  34.405  37.968  1.00  0.00    -0.373 N 
ATOM      2  H11 UNL     1      17.395  34.851  38.856  1.00  0.00     0.158 HD
ATOM      3  H12 UNL     1      17.493  33.407  37.800  1.00  0.00     0.158 HD
HETATM    4  C1  UNL     1      18.159  35.135  37.025  1.00  0.00     0.197 C 
HETATM    5  N2  UNL     1      18.470  34.530  35.822  1.00  0.00    -0.063 NA
HETATM    6  N3  UNL     1      18.339  36.499  37.255  1.00  0.00    -0.233 N 
HETATM    7  C2  UNL     1      17.471  37.352  36.611  1.00  0.00     0.273 A 
HETATM    8  O1  UNL     1      16.649  36.830  35.832  1.00  0.00    -0.266 OA
HETATM    9  C3  UNL     1      17.517  38.707  36.789  1.00  0.00     0.120 A 
HETATM   10  C7  UNL     1      18.496  39.185  37.674  1.00  0.00     0.065 A 
HETATM   11  S1  UNL     1      18.527  40.946  37.951  1.00  0.00    -0.049 SA
HETATM   12  C8  UNL     1      19.355  38.334  38.301  1.00  0.00     0.114 A 
HETATM   13  N5  UNL     1      20.402  38.499  39.084  1.00  0.00    -0.281 N 
ATOM     14  H5  UNL     1      20.723  39.404  39.429  1.00  0.00     0.188 HD
HETATM   15  N6  UNL     1      20.964  37.385  39.359  1.00  0.00    -0.236 N 
ATOM     16  H6  UNL     1      21.788  37.279  39.950  1.00  0.00     0.208 HD
HETATM   17  N7  UNL     1      20.310  36.364  38.752  1.00  0.00    -0.236 N 
HETATM   18  C10 UNL     1      19.289  36.952  38.091  1.00  0.00     0.167 A 
ENDROOT
BRANCH   9  19
HETATM   19  C4  UNL     1      16.872  39.687  35.854  1.00  0.00     0.259 C 
HETATM   20  O2  UNL     1      17.458  39.901  34.760  1.00  0.00    -0.267 OA
HETATM   21  N4  UNL     1      15.636  40.288  36.171  1.00  0.00    -0.347 N 
ATOM     22  H4  UNL     1      15.222  40.211  37.100  1.00  0.00     0.163 HD
BRANCH  21  23
HETATM   23  C5  UNL     1      14.976  41.034  35.086  1.00  0.00     0.236 C 
BRANCH  23  24
HETATM   24  C6  UNL     1      13.526  40.992  35.258  1.00  0.00     0.191 C 
HETATM   25  O3  UNL     1      12.693  40.963  34.338  1.00  0.00    -0.647 OA
HETATM   26  O4  UNL     1      13.061  41.015  36.623  1.00  0.00    -0.647 OA
ENDBRANCH  23  24
ENDBRANCH  21  23
ENDBRANCH   9  19
BRANCH  17  27
HETATM   27  C9  UNL     1      20.720  35.008  38.762  1.00  0.00     0.316 C 
BRANCH  27  28
HETATM   28  O5  UNL     1      19.718  34.196  39.427  1.00  0.00    -0.380 OA
ATOM     29  H5  UNL     1      20.095  33.786  40.196  1.00  0.00     0.211 HD
ENDBRANCH  27  28
ENDBRANCH  17  27
TORSDOF 5
ENDMDL
MODEL 4
REMARK VINA RESULT: -5.630398547      2.109      3.098
REMARK  5 active torsions:
REMARK  status: ('A' for Active; 'I' for Inactive)
REMARK       I    between atoms: C1_4  and  N3_6 
REMARK    1  A    between atoms: C3_9  and  C4_10 
REMARK       I    between atoms: C4_10  and  N4_12 
REMARK    2  A    between atoms: N4_12  and  C5_14 
REMARK    3  A    between atoms: C5_14  and  C6_15 
REMARK    4  A    between atoms: N7_25  and  C9_26 
REMARK    5  A    between atoms: C9_26  and  O5_27 
ROOT
HETATM    1  N1  UNL     1      21.312  36.369  39.464  1.00  0.00    -0.373 N 
ATOM      2  H11 UNL     1      21.782  36.163  38.583  1.00  0.00     0.158 HD
ATOM      3  H12 UNL     1      21.747  36.210  40.373  1.00  0.00     0.158 HD
HETATM    4  C1  UNL     1      20.080  36.804  39.424  1.00  0.00     0.197 C 
HETATM    5  N2  UNL     1      19.443  37.082  40.620  1.00  0.00    -0.063 NA
HETATM    6  N3  UNL     1      19.486  37.021  38.182  1.00  0.00    -0.233 N 
HETATM    7  C2  UNL     1      19.340  38.334  37.789  1.00  0.00     0.273 A 
HETATM    8  O1  UNL     1      19.693  39.204  38.609  1.00  0.00    -0.266 OA
HETATM    9  C3  UNL     1      18.813  38.675  36.575  1.00  0.00     0.120 A 
HETATM   10  C7  UNL     1      18.432  37.611  35.742  1.00  0.00     0.065 A 
HETATM   11  S1  UNL     1      17.792  38.049  34.136  1.00  0.00    -0.049 SA
HETATM   12  C8  UNL     1      18.573  36.317  36.141  1.00  0.00     0.114 A 
HETATM   13  N5  UNL     1      18.226  35.154  35.626  1.00  0.00    -0.281 N 
ATOM     14  H5  UNL     1      17.802  35.038  34.706  1.00  0.00     0.188 HD
HETATM   15  N6  UNL     1      18.487  34.191  36.424  1.00  0.00    -0.236 N 
ATOM     16  H6  UNL     1      18.303  33.207  36.228  1.00  0.00     0.208 HD
HETATM   17  N7  UNL     1      19.042  34.661  37.568  1.00  0.00    -0.236 N 
HETATM   18  C10 UNL     1      19.109  35.999  37.394  1.00  0.00     0.167 A 
ENDROOT
BRANCH   9  19
HETATM   19  C4  UNL     1      18.290  40.044  36.256  1.00  0.00     0.259 C 
HETATM   20  O2  UNL     1      19.145  40.951  36.072  1.00  0.00    -0.267 OA
HETATM   21  N4  UNL     1      16.907  40.279  36.111  1.00  0.00    -0.347 N 
ATOM     22  H4  UNL     1      16.212  39.581  36.377  1.00  0.00     0.163 HD
BRANCH  21  23
HETATM   23  C5  UNL     1      16.523  41.588  35.557  1.00  0.00     0.236 C 
BRANCH  23  24
HETATM   24  C6  UNL     1      15.577  41.409  34.458  1.00  0.00     0.191 C 
HETATM   25  O3  UNL     1      14.342  41.495  34.550  1.00  0.00    -0.647 OA
HETATM   26  O4  UNL     1      16.162  41.078  33.182  1.00  0.00    -0.647 OA
ENDBRANCH  23  24
ENDBRANCH  21  23
ENDBRANCH   9  19
BRANCH  17  27
HETATM   27  C9  UNL     1      19.362  33.879  38.705  1.00  0.00     0.316 C 
BRANCH  27  28
HETATM   28  O5  UNL     1      19.319  32.470  38.360  1.00  0.00    -0.380 OA
ATOM     29  H5  UNL     1      18.574  32.058  38.782  1.00  0.00     0.211 HD
ENDBRANCH  27  28
ENDBRANCH  17  27
TORSDOF 5
ENDMDL
MODEL 5
REMARK VINA RESULT: -5.286157506      3.278      4.317
REMARK  5 active torsions:
REMARK  status: ('A' for Active; 'I' for Inactive)
REMARK       I    between atoms: C1_4  and  N3_6 
REMARK    1  A    between atoms: C3_9  and  C4_10 
REMARK       I    between atoms: C4_10  and  N4_12 
REMARK    2  A    between atoms: N4_12  and  C5_14 
REMARK    3  A    between atoms: C5_14  and  C6_15 
REMARK    4  A    between atoms: N7_25  and  C9_26 
REMARK    5  A    between atoms: C9_26  and  O5_27 
ROOT
HETATM    1  N1  UNL     1      17.900  34.367  38.007  1.00  0.00    -0.373 N 
ATOM      2  H11 UNL     1      17.680  34.791  38.908  1.00  0.00     0.158 HD
ATOM      3  H12 UNL     1      17.866  33.360  37.846  1.00  0.00     0.158 HD
HETATM    4  C1  UNL     1      18.295  35.145  37.034  1.00  0.00     0.197 C 
HETATM    5  N2  UNL     1      18.594  34.570  35.813  1.00  0.00    -0.063 NA
HETATM    6  N3  UNL     1      18.341  36.521  37.254  1.00  0.00    -0.233 N 
HETATM    7  C2  UNL     1      17.348  37.273  36.665  1.00  0.00     0.273 A 
HETATM    8  O1  UNL     1      16.540  36.661  35.939  1.00  0.00    -0.266 OA
HETATM    9  C3  UNL     1      17.259  38.626  36.842  1.00  0.00     0.120 A 
HETATM   10  C7  UNL     1      18.234  39.211  37.665  1.00  0.00     0.065 A 
HETATM   11  S1  UNL     1      18.092  40.967  37.942  1.00  0.00    -0.049 SA
HETATM   12  C8  UNL     1      19.216  38.461  38.237  1.00  0.00     0.114 A 
HETATM   13  N5  UNL     1      20.285  38.742  38.955  1.00  0.00    -0.281 N 
ATOM     14  H5  UNL     1      20.528  39.678  39.280  1.00  0.00     0.188 HD
HETATM   15  N6  UNL     1      20.980  37.695  39.192  1.00  0.00    -0.236 N 
ATOM     16  H6  UNL     1      21.845  37.682  39.732  1.00  0.00     0.208 HD
HETATM   17  N7  UNL     1      20.403  36.607  38.626  1.00  0.00    -0.236 N 
HETATM   18  C10 UNL     1      19.286  37.079  38.030  1.00  0.00     0.167 A 
ENDROOT
BRANCH   9  19
HETATM   19  C4  UNL     1      16.456  39.526  35.950  1.00  0.00     0.259 C 
HETATM   20  O2  UNL     1      15.249  39.707  36.261  1.00  0.00    -0.267 OA
HETATM   21  N4  UNL     1      17.051  40.179  34.851  1.00  0.00    -0.347 N 
ATOM     22  H4  UNL     1      17.989  39.941  34.527  1.00  0.00     0.163 HD
BRANCH  21  23
HETATM   23  C5  UNL     1      16.244  41.223  34.197  1.00  0.00     0.236 C 
BRANCH  23  24
HETATM   24  C6  UNL     1      16.657  41.378  32.805  1.00  0.00     0.191 C 
HETATM   25  O3  UNL     1      17.445  40.633  32.201  1.00  0.00    -0.647 OA
HETATM   26  O4  UNL     1      16.104  42.518  32.116  1.00  0.00    -0.647 OA
ENDBRANCH  23  24
ENDBRANCH  21  23
ENDBRANCH   9  19
BRANCH  17  27
HETATM   27  C9  UNL     1      20.956  35.303  38.609  1.00  0.00     0.316 C 
BRANCH  27  28
HETATM   28  O5  UNL     1      20.106  34.398  39.361  1.00  0.00    -0.380 OA
ATOM     29  H5  UNL     1      19.204  34.691  39.313  1.00  0.00     0.211 HD
ENDBRANCH  27  28
ENDBRANCH  17  27
TORSDOF 5
ENDMDL
