MODEL 1
REMARK VINA RESULT: -5.536805984      0.000      0.000
REMARK  3 active torsions:
REMARK  status: ('A' for Active; 'I' for Inactive)
REMARK    1  A    between atoms: C2_2  and  O1_3 
REMARK    2  A    between atoms: O1_3  and  N1_4 
REMARK       I    between atoms: N1_4  and  C3_6 
REMARK    3  A    between atoms: C3_6  and  C4_8 
ROOT
HETATM    1  C4  UNL     1      58.031 -13.479 -26.411  1.00  0.00     0.162 A 
HETATM    2  N2  UNL     1      58.052 -12.329 -27.075  1.00  0.00    -0.288 N 
ATOM      3  H2  UNL     1      58.081 -11.448 -26.561  1.00  0.00     0.188 HD
HETATM    4  N3  UNL     1      58.037 -12.317 -28.336  1.00  0.00    -0.287 N 
ATOM      5  H3  UNL     1      58.053 -11.430 -28.839  1.00  0.00     0.188 HD
HETATM    6  C5  UNL     1      58.000 -13.462 -29.010  1.00  0.00     0.138 A 
HETATM    7 BR1  UNL     1      57.973 -13.626 -30.909  1.00  0.00    -0.021 Br
HETATM    8  S1  UNL     1      57.986 -14.591 -27.735  1.00  0.00    -0.039 SA
ENDROOT
BRANCH   1   9
HETATM    9  C3  UNL     1      58.038 -13.733 -24.975  1.00  0.00     0.300 C 
HETATM   10  N1  UNL     1      58.141 -15.053 -24.507  1.00  0.00    -0.229 N 
ATOM     11  H1  UNL     1      58.208 -15.827 -25.168  1.00  0.00     0.198 HD
HETATM   12  O2  UNL     1      57.954 -12.793 -24.157  1.00  0.00    -0.263 OA
BRANCH  10  13
HETATM   13  O1  UNL     1      58.151 -15.290 -23.191  1.00  0.00    -0.278 OA
BRANCH  13  14
HETATM   14  C2  UNL     1      58.547 -16.554 -22.818  1.00  0.00     0.197 C 
HETATM   15  C1  UNL     1      57.413 -17.128 -21.964  1.00  0.00     0.036 C 
ENDBRANCH  13  14
ENDBRANCH  10  13
ENDBRANCH   1   9
TORSDOF 3
ENDMDL
MODEL 2
REMARK VINA RESULT: -5.504337842      3.029      3.342
REMARK  3 active torsions:
REMARK  status: ('A' for Active; 'I' for Inactive)
REMARK    1  A    between atoms: C2_2  and  O1_3 
REMARK    2  A    between atoms: O1_3  and  N1_4 
REMARK       I    between atoms: N1_4  and  C3_6 
REMARK    3  A    between atoms: C3_6  and  C4_8 
ROOT
HETATM    1  C4  UNL     1      57.585 -12.971 -27.953  1.00  0.00     0.162 A 
HETATM    2  N2  UNL     1      58.135 -13.456 -29.060  1.00  0.00    -0.288 N 
ATOM      3  H2  UNL     1      59.150 -13.529 -29.131  1.00  0.00     0.188 HD
HETATM    4  N3  UNL     1      57.412 -13.828 -30.025  1.00  0.00    -0.287 N 
ATOM      5  H3  UNL     1      57.842 -14.200 -30.872  1.00  0.00     0.188 HD
HETATM    6  C5  UNL     1      56.089 -13.736 -29.936  1.00  0.00     0.138 A 
HETATM    7 BR1  UNL     1      54.852 -14.250 -31.293  1.00  0.00    -0.021 Br
HETATM    8  S1  UNL     1      55.911 -13.077 -28.376  1.00  0.00    -0.039 SA
ENDROOT
BRANCH   1   9
HETATM    9  C3  UNL     1      58.213 -12.484 -26.729  1.00  0.00     0.300 C 
HETATM   10  N1  UNL     1      57.521 -11.575 -25.912  1.00  0.00    -0.229 N 
ATOM     11  H1  UNL     1      56.587 -11.258 -26.174  1.00  0.00     0.198 HD
HETATM   12  O2  UNL     1      59.356 -12.863 -26.401  1.00  0.00    -0.263 OA
BRANCH  10  13
HETATM   13  O1  UNL     1      58.092 -11.128 -24.789  1.00  0.00    -0.278 OA
BRANCH  13  14
HETATM   14  C2  UNL     1      57.470 -11.500 -23.618  1.00  0.00     0.197 C 
HETATM   15  C1  UNL     1      56.495 -12.622 -23.984  1.00  0.00     0.036 C 
ENDBRANCH  13  14
ENDBRANCH  10  13
ENDBRANCH   1   9
TORSDOF 3
ENDMDL
MODEL 3
REMARK VINA RESULT: -5.331015512      4.403      5.956
REMARK  3 active torsions:
REMARK  status: ('A' for Active; 'I' for Inactive)
REMARK    1  A    between atoms: C2_2  and  O1_3 
REMARK    2  A    between atoms: O1_3  and  N1_4 
REMARK       I    between atoms: N1_4  and  C3_6 
REMARK    3  A    between atoms: C3_6  and  C4_8 
ROOT
HETATM    1  C4  UNL     1      57.739 -13.018 -27.928  1.00  0.00     0.162 A 
HETATM    2  N2  UNL     1      58.839 -12.902 -27.194  1.00  0.00    -0.288 N 
ATOM      3  H2  UNL     1      59.750 -13.084 -27.615  1.00  0.00     0.188 HD
HETATM    4  N3  UNL     1      58.767 -12.569 -25.979  1.00  0.00    -0.287 N 
ATOM      5  H3  UNL     1      59.617 -12.482 -25.422  1.00  0.00     0.188 HD
HETATM    6  C5  UNL     1      57.582 -12.330 -25.427  1.00  0.00     0.138 A 
HETATM    7 BR1  UNL     1      57.292 -11.819 -23.613  1.00  0.00    -0.021 Br
HETATM    8  S1  UNL     1      56.543 -12.609 -26.747  1.00  0.00    -0.039 SA
ENDROOT
BRANCH   1   9
HETATM    9  C3  UNL     1      57.581 -13.388 -29.331  1.00  0.00     0.300 C 
HETATM   10  N1  UNL     1      56.491 -14.185 -29.717  1.00  0.00    -0.229 N 
ATOM     11  H1  UNL     1      55.817 -14.503 -29.021  1.00  0.00     0.198 HD
HETATM   12  O2  UNL     1      58.403 -13.006 -30.190  1.00  0.00    -0.263 OA
BRANCH  10  13
HETATM   13  O1  UNL     1      56.342 -14.524 -31.001  1.00  0.00    -0.278 OA
BRANCH  13  14
HETATM   14  C2  UNL     1      55.137 -14.179 -31.570  1.00  0.00     0.197 C 
HETATM   15  C1  UNL     1      54.183 -13.876 -30.412  1.00  0.00     0.036 C 
ENDBRANCH  13  14
ENDBRANCH  10  13
ENDBRANCH   1   9
TORSDOF 3
ENDMDL
MODEL 4
REMARK VINA RESULT: -5.286777840      4.511      6.280
REMARK  3 active torsions:
REMARK  status: ('A' for Active; 'I' for Inactive)
REMARK    1  A    between atoms: C2_2  and  O1_3 
REMARK    2  A    between atoms: O1_3  and  N1_4 
REMARK       I    between atoms: N1_4  and  C3_6 
REMARK    3  A    between atoms: C3_6  and  C4_8 
ROOT
HETATM    1  C4  UNL     1      57.271 -13.023 -28.331  1.00  0.00     0.162 A 
HETATM    2  N2  UNL     1      56.279 -12.287 -27.842  1.00  0.00    -0.288 N 
ATOM      3  H2  UNL     1      55.532 -11.970 -28.460  1.00  0.00     0.188 HD
HETATM    4  N3  UNL     1      56.252 -11.978 -26.619  1.00  0.00    -0.287 N 
ATOM      5  H3  UNL     1      55.488 -11.412 -26.252  1.00  0.00     0.188 HD
HETATM    6  C5  UNL     1      57.223 -12.390 -25.810  1.00  0.00     0.138 A 
HETATM    7 BR1  UNL     1      57.340 -12.015 -23.944  1.00  0.00    -0.021 Br
HETATM    8  S1  UNL     1      58.205 -13.262 -26.894  1.00  0.00    -0.039 SA
ENDROOT
BRANCH   1   9
HETATM    9  C3  UNL     1      57.508 -13.494 -29.691  1.00  0.00     0.300 C 
HETATM   10  N1  UNL     1      58.681 -13.109 -30.360  1.00  0.00    -0.229 N 
ATOM     11  H1  UNL     1      59.360 -12.505 -29.898  1.00  0.00     0.198 HD
HETATM   12  O2  UNL     1      56.682 -14.232 -30.267  1.00  0.00    -0.263 OA
BRANCH  10  13
HETATM   13  O1  UNL     1      58.904 -13.541 -31.606  1.00  0.00    -0.278 OA
BRANCH  13  14
HETATM   14  C2  UNL     1      59.842 -14.539 -31.730  1.00  0.00     0.197 C 
HETATM   15  C1  UNL     1      61.095 -13.884 -32.318  1.00  0.00     0.036 C 
ENDBRANCH  13  14
ENDBRANCH  10  13
ENDBRANCH   1   9
TORSDOF 3
ENDMDL
MODEL 5
REMARK VINA RESULT: -5.069036890      3.454      5.571
REMARK  3 active torsions:
REMARK  status: ('A' for Active; 'I' for Inactive)
REMARK    1  A    between atoms: C2_2  and  O1_3 
REMARK    2  A    between atoms: O1_3  and  N1_4 
REMARK       I    between atoms: N1_4  and  C3_6 
REMARK    3  A    between atoms: C3_6  and  C4_8 
ROOT
HETATM    1  C4  UNL     1      58.283 -13.679 -25.711  1.00  0.00     0.162 A 
HETATM    2  N2  UNL     1      57.807 -13.302 -24.530  1.00  0.00    -0.288 N 
ATOM      3  H2  UNL     1      57.502 -12.339 -24.392  1.00  0.00     0.188 HD
HETATM    4  N3  UNL     1      57.727 -14.126 -23.578  1.00  0.00    -0.287 N 
ATOM      5  H3  UNL     1      57.361 -13.829 -22.674  1.00  0.00     0.188 HD
HETATM    6  C5  UNL     1      58.122 -15.383 -23.755  1.00  0.00     0.138 A 
HETATM    7 BR1  UNL     1      58.072 -16.754 -22.430  1.00  0.00    -0.021 Br
HETATM    8  S1  UNL     1      58.627 -15.342 -25.380  1.00  0.00    -0.039 SA
ENDROOT
BRANCH   1   9
HETATM    9  C3  UNL     1      58.468 -12.911 -26.937  1.00  0.00     0.300 C 
HETATM   10  N1  UNL     1      58.242 -13.526 -28.179  1.00  0.00    -0.229 N 
ATOM     11  H1  UNL     1      57.952 -14.503 -28.222  1.00  0.00     0.198 HD
HETATM   12  O2  UNL     1      58.825 -11.715 -26.896  1.00  0.00    -0.263 OA
BRANCH  10  13
HETATM   13  O1  UNL     1      58.407 -12.824 -29.305  1.00  0.00    -0.278 OA
BRANCH  13  14
HETATM   14  C2  UNL     1      57.998 -13.450 -30.460  1.00  0.00     0.197 C 
HETATM   15  C1  UNL     1      56.634 -14.074 -30.154  1.00  0.00     0.036 C 
ENDBRANCH  13  14
ENDBRANCH  10  13
ENDBRANCH   1   9
TORSDOF 3
ENDMDL
