MODEL 1
REMARK VINA RESULT: -8.420805235      0.000      0.000
REMARK  2 active torsions:
REMARK  status: ('A' for Active; 'I' for Inactive)
REMARK    1  A    between atoms: C4_4  and  N1_5 
REMARK    2  A    between atoms: N1_5  and  N2_7 
ROOT
HETATM    1  N1  UNL     1       2.780  20.434  13.149  1.00  0.00    -0.279 N 
ATOM      2  H1  UNL     1       3.058  20.609  12.183  1.00  0.00     0.189 HD
ENDROOT
BRANCH   1   3
HETATM    3  C4  UNL     1       2.415  21.541  13.936  1.00  0.00     0.165 A 
HETATM    4  C3  UNL     1       2.995  22.788  13.929  1.00  0.00     0.069 A 
HETATM    5  C2  UNL     1       2.326  23.570  14.857  1.00  0.00     0.006 A 
HETATM    6  C1  UNL     1       2.581  24.980  15.210  1.00  0.00     0.054 C 
HETATM    7  C10 UNL     1       1.362  22.742  15.386  1.00  0.00     0.237 A 
HETATM    8  O3  UNL     1       1.449  21.550  14.816  1.00  0.00    -0.265 OA
HETATM    9  F1  UNL     1       0.456  23.056  16.337  1.00  0.00    -0.177 F 
ENDBRANCH   1   3
BRANCH   1  10
HETATM   10  N2  UNL     1       2.786  19.110  13.600  1.00  0.00    -0.299 N 
HETATM   11  C5  UNL     1       3.809  18.567  14.156  1.00  0.00     0.080 C 
HETATM   12  C6  UNL     1       3.857  17.165  14.649  1.00  0.00     0.071 C 
HETATM   13  C9  UNL     1       5.127  19.117  14.452  1.00  0.00     0.241 C 
HETATM   14  C7  UNL     1       5.288  16.777  14.272  1.00  0.00     0.093 C 
HETATM   15  C8  UNL     1       6.039  17.991  14.672  1.00  0.00     0.201 C 
HETATM   16  O1  UNL     1       7.200  18.118  15.112  1.00  0.00    -0.289 OA
HETATM   17  O2  UNL     1       5.388  20.347  14.499  1.00  0.00    -0.282 OA
ATOM     18  H2  UNL     1       1.942  18.550  13.481  1.00  0.00     0.186 HD
ENDBRANCH   1  10
TORSDOF 2
ENDMDL
MODEL 2
REMARK VINA RESULT: -7.428496269      4.709      6.448
REMARK  2 active torsions:
REMARK  status: ('A' for Active; 'I' for Inactive)
REMARK    1  A    between atoms: C4_4  and  N1_5 
REMARK    2  A    between atoms: N1_5  and  N2_7 
ROOT
HETATM    1  N1  UNL     1       1.401  17.015  12.669  1.00  0.00    -0.279 N 
ATOM      2  H1  UNL     1       0.863  17.799  13.040  1.00  0.00     0.189 HD
ENDROOT
BRANCH   1   3
HETATM    3  C4  UNL     1       0.863  16.309  11.578  1.00  0.00     0.165 A 
HETATM    4  C3  UNL     1       1.549  15.513  10.690  1.00  0.00     0.069 A 
HETATM    5  C2  UNL     1       0.633  15.014   9.778  1.00  0.00     0.006 A 
HETATM    6  C1  UNL     1       0.886  14.114   8.635  1.00  0.00     0.054 C 
HETATM    7  C10 UNL     1      -0.577  15.542  10.167  1.00  0.00     0.237 A 
HETATM    8  O3  UNL     1      -0.398  16.304  11.236  1.00  0.00    -0.265 OA
HETATM    9  F1  UNL     1      -1.776  15.342   9.579  1.00  0.00    -0.177 F 
ENDBRANCH   1   3
BRANCH   1  10
HETATM   10  N2  UNL     1       2.623  16.716  13.281  1.00  0.00    -0.299 N 
HETATM   11  C5  UNL     1       3.338  17.599  13.882  1.00  0.00     0.080 C 
HETATM   12  C6  UNL     1       4.640  17.322  14.543  1.00  0.00     0.071 C 
HETATM   13  C9  UNL     1       3.106  19.025  14.082  1.00  0.00     0.241 C 
HETATM   14  C7  UNL     1       5.416  18.593  14.191  1.00  0.00     0.093 C 
HETATM   15  C8  UNL     1       4.392  19.640  14.424  1.00  0.00     0.201 C 
HETATM   16  O1  UNL     1       4.512  20.816  14.823  1.00  0.00    -0.289 OA
HETATM   17  O2  UNL     1       1.984  19.584  13.972  1.00  0.00    -0.282 OA
ATOM     18  H2  UNL     1       2.962  15.755  13.248  1.00  0.00     0.186 HD
ENDBRANCH   1  10
TORSDOF 2
ENDMDL
MODEL 3
REMARK VINA RESULT: -7.170759126      5.050      6.621
REMARK  2 active torsions:
REMARK  status: ('A' for Active; 'I' for Inactive)
REMARK    1  A    between atoms: C4_4  and  N1_5 
REMARK    2  A    between atoms: N1_5  and  N2_7 
ROOT
HETATM    1  N1  UNL     1       1.479  17.015  12.548  1.00  0.00    -0.279 N 
ATOM      2  H1  UNL     1       0.925  17.818  12.846  1.00  0.00     0.189 HD
ENDROOT
BRANCH   1   3
HETATM    3  C4  UNL     1       1.000  16.254  11.465  1.00  0.00     0.165 A 
HETATM    4  C3  UNL     1      -0.290  16.212  10.991  1.00  0.00     0.069 A 
HETATM    5  C2  UNL     1      -0.316  15.337   9.918  1.00  0.00     0.006 A 
HETATM    6  C1  UNL     1      -1.472  14.960   9.080  1.00  0.00     0.054 C 
HETATM    7  C10 UNL     1       0.979  14.887   9.798  1.00  0.00     0.237 A 
HETATM    8  O3  UNL     1       1.727  15.453  10.732  1.00  0.00    -0.265 OA
HETATM    9  F1  UNL     1       1.451  14.009   8.886  1.00  0.00    -0.177 F 
ENDBRANCH   1   3
BRANCH   1  10
HETATM   10  N2  UNL     1       2.663  16.745  13.242  1.00  0.00    -0.299 N 
HETATM   11  C5  UNL     1       3.330  17.649  13.865  1.00  0.00     0.080 C 
HETATM   12  C6  UNL     1       4.590  17.404  14.613  1.00  0.00     0.071 C 
HETATM   13  C9  UNL     1       3.071  19.077  14.016  1.00  0.00     0.241 C 
HETATM   14  C7  UNL     1       5.374  18.675  14.280  1.00  0.00     0.093 C 
HETATM   15  C8  UNL     1       4.327  19.715  14.423  1.00  0.00     0.201 C 
HETATM   16  O1  UNL     1       4.408  20.901  14.800  1.00  0.00    -0.289 OA
HETATM   17  O2  UNL     1       1.953  19.620  13.821  1.00  0.00    -0.282 OA
ATOM     18  H2  UNL     1       3.014  15.787  13.254  1.00  0.00     0.186 HD
ENDBRANCH   1  10
TORSDOF 2
ENDMDL
MODEL 4
REMARK VINA RESULT: -7.092742987      2.405      2.817
REMARK  2 active torsions:
REMARK  status: ('A' for Active; 'I' for Inactive)
REMARK    1  A    between atoms: C4_4  and  N1_5 
REMARK    2  A    between atoms: N1_5  and  N2_7 
ROOT
HETATM    1  N1  UNL     1       3.646  21.069  15.513  1.00  0.00    -0.279 N 
ATOM      2  H1  UNL     1       3.178  20.885  16.400  1.00  0.00     0.189 HD
ENDROOT
BRANCH   1   3
HETATM    3  C4  UNL     1       3.390  22.298  14.879  1.00  0.00     0.165 A 
HETATM    4  C3  UNL     1       3.443  22.559  13.529  1.00  0.00     0.069 A 
HETATM    5  C2  UNL     1       3.120  23.895  13.346  1.00  0.00     0.006 A 
HETATM    6  C1  UNL     1       3.042  24.644  12.077  1.00  0.00     0.054 C 
HETATM    7  C10 UNL     1       2.887  24.379  14.613  1.00  0.00     0.237 A 
HETATM    8  O3  UNL     1       3.058  23.403  15.492  1.00  0.00    -0.265 OA
HETATM    9  F1  UNL     1       2.539  25.640  14.948  1.00  0.00    -0.177 F 
ENDBRANCH   1   3
BRANCH   1  10
HETATM   10  N2  UNL     1       4.499  20.081  15.008  1.00  0.00    -0.299 N 
HETATM   11  C5  UNL     1       4.077  19.071  14.336  1.00  0.00     0.080 C 
HETATM   12  C6  UNL     1       4.949  18.001  13.783  1.00  0.00     0.071 C 
HETATM   13  C9  UNL     1       2.723  18.697  13.942  1.00  0.00     0.241 C 
HETATM   14  C7  UNL     1       4.069  16.770  14.008  1.00  0.00     0.093 C 
HETATM   15  C8  UNL     1       2.740  17.274  13.590  1.00  0.00     0.201 C 
HETATM   16  O1  UNL     1       1.782  16.685  13.049  1.00  0.00    -0.289 OA
HETATM   17  O2  UNL     1       1.746  19.490  13.922  1.00  0.00    -0.282 OA
ATOM     18  H2  UNL     1       5.501  20.167  15.181  1.00  0.00     0.186 HD
ENDBRANCH   1  10
TORSDOF 2
ENDMDL
MODEL 5
REMARK VINA RESULT: -7.017025128      4.490      6.217
REMARK  2 active torsions:
REMARK  status: ('A' for Active; 'I' for Inactive)
REMARK    1  A    between atoms: C4_4  and  N1_5 
REMARK    2  A    between atoms: N1_5  and  N2_7 
ROOT
HETATM    1  N1  UNL     1       1.686  16.883  13.180  1.00  0.00    -0.279 N 
ATOM      2  H1  UNL     1       1.945  16.275  13.957  1.00  0.00     0.189 HD
ENDROOT
BRANCH   1   3
HETATM    3  C4  UNL     1       1.144  16.282  12.029  1.00  0.00     0.165 A 
HETATM    4  C3  UNL     1       1.839  15.715  10.987  1.00  0.00     0.069 A 
HETATM    5  C2  UNL     1       0.913  15.245  10.070  1.00  0.00     0.006 A 
HETATM    6  C1  UNL     1       1.171  14.559   8.788  1.00  0.00     0.054 C 
HETATM    7  C10 UNL     1      -0.312  15.558  10.613  1.00  0.00     0.237 A 
HETATM    8  O3  UNL     1      -0.133  16.172  11.772  1.00  0.00    -0.265 OA
HETATM    9  F1  UNL     1      -1.526  15.299  10.079  1.00  0.00    -0.177 F 
ENDBRANCH   1   3
BRANCH   1  10
HETATM   10  N2  UNL     1       1.894  18.258  13.331  1.00  0.00    -0.299 N 
HETATM   11  C5  UNL     1       3.036  18.763  13.636  1.00  0.00     0.080 C 
HETATM   12  C6  UNL     1       3.298  20.216  13.805  1.00  0.00     0.071 C 
HETATM   13  C9  UNL     1       4.318  18.114  13.888  1.00  0.00     0.241 C 
HETATM   14  C7  UNL     1       4.275  20.196  14.983  1.00  0.00     0.093 C 
HETATM   15  C8  UNL     1       5.163  19.068  14.612  1.00  0.00     0.201 C 
HETATM   16  O1  UNL     1       6.378  18.888  14.829  1.00  0.00    -0.289 OA
HETATM   17  O2  UNL     1       4.603  16.943  13.528  1.00  0.00    -0.282 OA
ATOM     18  H2  UNL     1       1.105  18.889  13.192  1.00  0.00     0.186 HD
ENDBRANCH   1  10
TORSDOF 2
ENDMDL
