MODEL 1
REMARK VINA RESULT: -5.815710179      0.000      0.000
REMARK  10 active torsions:
REMARK  status: ('A' for Active; 'I' for Inactive)
REMARK    1  A    between atoms: N1_1  and  C1_5 
REMARK    2  A    between atoms: C1_5  and  C2_6 
REMARK       I    between atoms: C2_6  and  N2_8 
REMARK    3  A    between atoms: N2_8  and  C3_10 
REMARK    4  A    between atoms: C5_12  and  O2_13 
REMARK    5  A    between atoms: C5_12  and  C6_15 
REMARK    6  A    between atoms: C7_18  and  O5_19 
REMARK    7  A    between atoms: C8_21  and  O6_22 
REMARK    8  A    between atoms: C9_24  and  C10_25 
REMARK    9  A    between atoms: C10_25  and  N3_26 
REMARK   10  A    between atoms: C10_25  and  O7_30 
ROOT
HETATM    1  C3  UNL     1       0.422 -27.484 -18.073  1.00  0.00     0.021 C 
HETATM    2  C4  UNL     1       0.767 -27.489 -19.340  1.00  0.00     0.050 C 
HETATM    3  C5  UNL     1       1.355 -26.184 -19.735  1.00  0.00     0.200 C 
HETATM    4  C7  UNL     1       1.785 -25.643 -18.393  1.00  0.00     0.145 C 
HETATM    5  C8  UNL     1       1.906 -24.134 -18.412  1.00  0.00     0.209 C 
HETATM    6  C9  UNL     1       2.646 -23.728 -17.185  1.00  0.00     0.097 C 
HETATM    7  N4  UNL     1       2.758 -24.375 -16.080  1.00  0.00    -0.268 N 
ATOM      8  H4  UNL     1       3.319 -23.905 -15.369  1.00  0.00     0.194 HD
HETATM    9  O8  UNL     1       2.257 -25.581 -15.700  1.00  0.00    -0.280 OA
HETATM   10  C11 UNL     1       1.059 -26.183 -16.053  1.00  0.00     0.215 C 
HETATM   11  C12 UNL     1       0.740 -26.163 -17.509  1.00  0.00     0.103 C 
ENDROOT
BRANCH   1  12
HETATM   12  N2  UNL     1      -0.167 -28.584 -17.392  1.00  0.00    -0.329 N 
HETATM   13  C2  UNL     1       0.597 -29.635 -16.815  1.00  0.00     0.247 C 
HETATM   14  O1  UNL     1       1.862 -29.544 -16.940  1.00  0.00    -0.271 OA
ATOM     15  H2  UNL     1      -1.184 -28.622 -17.313  1.00  0.00     0.168 HD
BRANCH  13  16
HETATM   16  C1  UNL     1      -0.016 -30.770 -16.111  1.00  0.00     0.332 C 
BRANCH  16  17
HETATM   17  N1  UNL     1      -1.403 -30.462 -15.834  1.00  0.00    -0.071 N 
ATOM     18  H13 UNL     1      -1.783 -29.770 -16.479  1.00  0.00     0.274 HD
ATOM     19  H12 UNL     1      -2.026 -31.235 -16.069  1.00  0.00     0.274 HD
ATOM     20  H11 UNL     1      -1.492 -30.175 -14.859  1.00  0.00     0.274 HD
ENDBRANCH  16  17
ENDBRANCH  13  16
ENDBRANCH   1  12
BRANCH   3  21
HETATM   21  O2  UNL     1       2.498 -26.396 -20.544  1.00  0.00    -0.372 OA
ATOM     22  H2  UNL     1       3.238 -26.638 -19.999  1.00  0.00     0.211 HD
ENDBRANCH   3  21
BRANCH   3  23
HETATM   23  C6  UNL     1       0.356 -25.391 -20.441  1.00  0.00     0.216 C 
HETATM   24  O3  UNL     1       0.637 -24.740 -21.507  1.00  0.00    -0.645 OA
HETATM   25  O4  UNL     1      -0.949 -25.285 -20.017  1.00  0.00    -0.645 OA
ENDBRANCH   3  23
BRANCH   4  26
HETATM   26  O5  UNL     1       3.055 -26.181 -18.178  1.00  0.00    -0.382 OA
ATOM     27  H5  UNL     1       3.345 -25.804 -17.355  1.00  0.00     0.210 HD
ENDBRANCH   4  26
BRANCH   5  28
HETATM   28  O6  UNL     1       2.662 -23.830 -19.550  1.00  0.00    -0.386 OA
ATOM     29  H6  UNL     1       2.286 -23.031 -19.901  1.00  0.00     0.210 HD
ENDBRANCH   5  28
BRANCH   6  30
HETATM   30  C10 UNL     1       3.353 -22.432 -17.190  1.00  0.00     0.367 C 
BRANCH  30  31
HETATM   31  N3  UNL     1       4.599 -22.459 -17.914  1.00  0.00    -0.048 N 
ATOM     32  H33 UNL     1       5.384 -22.279 -17.287  1.00  0.00     0.277 HD
ATOM     33  H32 UNL     1       4.828 -23.410 -18.202  1.00  0.00     0.277 HD
ATOM     34  H31 UNL     1       4.621 -21.824 -18.712  1.00  0.00     0.277 HD
ENDBRANCH  30  31
BRANCH  30  35
HETATM   35  O7  UNL     1       3.593 -22.036 -15.882  1.00  0.00    -0.365 OA
ATOM     36  H7  UNL     1       2.840 -21.553 -15.559  1.00  0.00     0.212 HD
ENDBRANCH  30  35
ENDBRANCH   6  30
TORSDOF 10
ENDMDL
MODEL 2
REMARK VINA RESULT: -5.587246329      4.891      7.827
REMARK  10 active torsions:
REMARK  status: ('A' for Active; 'I' for Inactive)
REMARK    1  A    between atoms: N1_1  and  C1_5 
REMARK    2  A    between atoms: C1_5  and  C2_6 
REMARK       I    between atoms: C2_6  and  N2_8 
REMARK    3  A    between atoms: N2_8  and  C3_10 
REMARK    4  A    between atoms: C5_12  and  O2_13 
REMARK    5  A    between atoms: C5_12  and  C6_15 
REMARK    6  A    between atoms: C7_18  and  O5_19 
REMARK    7  A    between atoms: C8_21  and  O6_22 
REMARK    8  A    between atoms: C9_24  and  C10_25 
REMARK    9  A    between atoms: C10_25  and  N3_26 
REMARK   10  A    between atoms: C10_25  and  O7_30 
ROOT
HETATM    1  C3  UNL     1      -0.837 -26.409 -21.381  1.00  0.00     0.021 C 
HETATM    2  C4  UNL     1      -0.193 -26.883 -22.422  1.00  0.00     0.050 C 
HETATM    3  C5  UNL     1      -1.080 -27.738 -23.252  1.00  0.00     0.200 C 
HETATM    4  C7  UNL     1      -2.441 -27.240 -22.827  1.00  0.00     0.145 C 
HETATM    5  C8  UNL     1      -3.517 -28.274 -23.078  1.00  0.00     0.209 C 
HETATM    6  C9  UNL     1      -4.834 -27.589 -22.954  1.00  0.00     0.097 C 
HETATM    7  N4  UNL     1      -5.107 -26.512 -22.309  1.00  0.00    -0.268 N 
ATOM      8  H4  UNL     1      -6.083 -26.221 -22.363  1.00  0.00     0.194 HD
HETATM    9  O8  UNL     1      -4.312 -25.695 -21.566  1.00  0.00    -0.280 OA
HETATM   10  C11 UNL     1      -3.217 -26.015 -20.779  1.00  0.00     0.215 C 
HETATM   11  C12 UNL     1      -2.217 -26.919 -21.415  1.00  0.00     0.103 C 
ENDROOT
BRANCH   1  12
HETATM   12  N2  UNL     1      -0.266 -25.557 -20.396  1.00  0.00    -0.329 N 
HETATM   13  C2  UNL     1       0.395 -26.048 -19.238  1.00  0.00     0.247 C 
HETATM   14  O1  UNL     1       0.453 -27.316 -19.119  1.00  0.00    -0.271 OA
ATOM     15  H2  UNL     1      -0.334 -24.547 -20.527  1.00  0.00     0.168 HD
BRANCH  13  16
HETATM   16  C1  UNL     1       0.984 -25.164 -18.223  1.00  0.00     0.332 C 
BRANCH  16  17
HETATM   17  N1  UNL     1       1.293 -23.887 -18.830  1.00  0.00    -0.071 N 
ATOM     18  H13 UNL     1       1.054 -23.860 -19.821  1.00  0.00     0.274 HD
ATOM     19  H12 UNL     1       0.669 -23.145 -18.512  1.00  0.00     0.274 HD
ATOM     20  H11 UNL     1       2.275 -23.667 -18.662  1.00  0.00     0.274 HD
ENDBRANCH  16  17
ENDBRANCH  13  16
ENDBRANCH   1  12
BRANCH   3  21
HETATM   21  O2  UNL     1      -0.882 -27.447 -24.624  1.00  0.00    -0.372 OA
ATOM     22  H2  UNL     1      -1.479 -27.964 -25.153  1.00  0.00     0.211 HD
ENDBRANCH   3  21
BRANCH   3  23
HETATM   23  C6  UNL     1      -0.809 -29.142 -22.970  1.00  0.00     0.216 C 
HETATM   24  O3  UNL     1      -0.744 -30.019 -23.900  1.00  0.00    -0.645 OA
HETATM   25  O4  UNL     1      -0.604 -29.622 -21.696  1.00  0.00    -0.645 OA
ENDBRANCH   3  23
BRANCH   4  26
HETATM   26  O5  UNL     1      -2.693 -26.137 -23.644  1.00  0.00    -0.382 OA
ATOM     27  H5  UNL     1      -3.039 -26.503 -24.450  1.00  0.00     0.210 HD
ENDBRANCH   4  26
BRANCH   5  28
HETATM   28  O6  UNL     1      -3.325 -28.707 -24.395  1.00  0.00    -0.386 OA
ATOM     29  H6  UNL     1      -4.074 -29.254 -24.597  1.00  0.00     0.210 HD
ENDBRANCH   5  28
BRANCH   6  30
HETATM   30  C10 UNL     1      -5.999 -28.183 -23.640  1.00  0.00     0.367 C 
BRANCH  30  31
HETATM   31  N3  UNL     1      -5.937 -29.618 -23.743  1.00  0.00    -0.048 N 
ATOM     32  H33 UNL     1      -5.828 -29.905 -24.716  1.00  0.00     0.277 HD
ATOM     33  H32 UNL     1      -5.057 -29.969 -23.364  1.00  0.00     0.277 HD
ATOM     34  H31 UNL     1      -6.731 -30.094 -23.314  1.00  0.00     0.277 HD
ENDBRANCH  30  31
BRANCH  30  35
HETATM   35  O7  UNL     1      -6.109 -27.637 -24.911  1.00  0.00    -0.365 OA
ATOM     36  H7  UNL     1      -5.856 -28.288 -25.554  1.00  0.00     0.212 HD
ENDBRANCH  30  35
ENDBRANCH   6  30
TORSDOF 10
ENDMDL
MODEL 3
REMARK VINA RESULT: -5.499065043      4.507      7.556
REMARK  10 active torsions:
REMARK  status: ('A' for Active; 'I' for Inactive)
REMARK    1  A    between atoms: N1_1  and  C1_5 
REMARK    2  A    between atoms: C1_5  and  C2_6 
REMARK       I    between atoms: C2_6  and  N2_8 
REMARK    3  A    between atoms: N2_8  and  C3_10 
REMARK    4  A    between atoms: C5_12  and  O2_13 
REMARK    5  A    between atoms: C5_12  and  C6_15 
REMARK    6  A    between atoms: C7_18  and  O5_19 
REMARK    7  A    between atoms: C8_21  and  O6_22 
REMARK    8  A    between atoms: C9_24  and  C10_25 
REMARK    9  A    between atoms: C10_25  and  N3_26 
REMARK   10  A    between atoms: C10_25  and  O7_30 
ROOT
HETATM    1  C3  UNL     1      -0.285 -27.136 -20.510  1.00  0.00     0.021 C 
HETATM    2  C4  UNL     1       0.432 -27.949 -21.250  1.00  0.00     0.050 C 
HETATM    3  C5  UNL     1      -0.430 -28.722 -22.179  1.00  0.00     0.200 C 
HETATM    4  C7  UNL     1      -1.657 -27.844 -22.233  1.00  0.00     0.145 C 
HETATM    5  C8  UNL     1      -2.886 -28.625 -22.645  1.00  0.00     0.209 C 
HETATM    6  C9  UNL     1      -3.947 -27.641 -22.996  1.00  0.00     0.097 C 
HETATM    7  N4  UNL     1      -4.054 -26.422 -22.604  1.00  0.00    -0.268 N 
ATOM      8  H4  UNL     1      -4.866 -25.927 -22.975  1.00  0.00     0.194 HD
HETATM    9  O8  UNL     1      -3.267 -25.680 -21.779  1.00  0.00    -0.280 OA
HETATM   10  C11 UNL     1      -2.531 -26.081 -20.676  1.00  0.00     0.215 C 
HETATM   11  C12 UNL     1      -1.701 -27.304 -20.872  1.00  0.00     0.103 C 
ENDROOT
BRANCH   1  12
HETATM   12  N2  UNL     1       0.246 -26.259 -19.524  1.00  0.00    -0.329 N 
HETATM   13  C2  UNL     1       0.761 -24.971 -19.833  1.00  0.00     0.247 C 
HETATM   14  O1  UNL     1       0.725 -24.630 -21.061  1.00  0.00    -0.271 OA
ATOM     15  H2  UNL     1       0.258 -26.569 -18.552  1.00  0.00     0.168 HD
BRANCH  13  16
HETATM   16  C1  UNL     1       1.308 -24.068 -18.811  1.00  0.00     0.332 C 
BRANCH  16  17
HETATM   17  N1  UNL     1       2.641 -23.661 -19.205  1.00  0.00    -0.071 N 
ATOM     18  H13 UNL     1       3.176 -23.279 -18.425  1.00  0.00     0.274 HD
ATOM     19  H12 UNL     1       3.243 -24.457 -19.415  1.00  0.00     0.274 HD
ATOM     20  H11 UNL     1       2.573 -23.008 -19.985  1.00  0.00     0.274 HD
ENDBRANCH  16  17
ENDBRANCH  13  16
ENDBRANCH   1  12
BRANCH   3  21
HETATM   21  O2  UNL     1       0.168 -28.772 -23.462  1.00  0.00    -0.372 OA
ATOM     22  H2  UNL     1       0.542 -29.632 -23.611  1.00  0.00     0.211 HD
ENDBRANCH   3  21
BRANCH   3  23
HETATM   23  C6  UNL     1      -0.641 -30.063 -21.648  1.00  0.00     0.216 C 
HETATM   24  O3  UNL     1      -0.553 -31.105 -22.387  1.00  0.00    -0.645 OA
HETATM   25  O4  UNL     1      -0.947 -30.304 -20.328  1.00  0.00    -0.645 OA
ENDBRANCH   3  23
BRANCH   4  26
HETATM   26  O5  UNL     1      -1.383 -26.902 -23.226  1.00  0.00    -0.382 OA
ATOM     27  H5  UNL     1      -2.088 -26.268 -23.165  1.00  0.00     0.210 HD
ENDBRANCH   4  26
BRANCH   5  28
HETATM   28  O6  UNL     1      -2.510 -29.350 -23.782  1.00  0.00    -0.386 OA
ATOM     29  H6  UNL     1      -3.292 -29.808 -24.065  1.00  0.00     0.210 HD
ENDBRANCH   5  28
BRANCH   6  30
HETATM   30  C10 UNL     1      -5.029 -28.072 -23.903  1.00  0.00     0.367 C 
BRANCH  30  31
HETATM   31  N3  UNL     1      -4.733 -27.856 -25.296  1.00  0.00    -0.048 N 
ATOM     32  H33 UNL     1      -4.695 -28.743 -25.798  1.00  0.00     0.277 HD
ATOM     33  H32 UNL     1      -5.527 -27.427 -25.771  1.00  0.00     0.277 HD
ATOM     34  H31 UNL     1      -3.883 -27.315 -25.454  1.00  0.00     0.277 HD
ENDBRANCH  30  31
BRANCH  30  35
HETATM   35  O7  UNL     1      -6.197 -27.399 -23.574  1.00  0.00    -0.365 OA
ATOM     36  H7  UNL     1      -6.610 -27.831 -22.835  1.00  0.00     0.212 HD
ENDBRANCH  30  35
ENDBRANCH   6  30
TORSDOF 10
ENDMDL
MODEL 4
REMARK VINA RESULT: -5.393037821      2.297      4.707
REMARK  10 active torsions:
REMARK  status: ('A' for Active; 'I' for Inactive)
REMARK    1  A    between atoms: N1_1  and  C1_5 
REMARK    2  A    between atoms: C1_5  and  C2_6 
REMARK       I    between atoms: C2_6  and  N2_8 
REMARK    3  A    between atoms: N2_8  and  C3_10 
REMARK    4  A    between atoms: C5_12  and  O2_13 
REMARK    5  A    between atoms: C5_12  and  C6_15 
REMARK    6  A    between atoms: C7_18  and  O5_19 
REMARK    7  A    between atoms: C8_21  and  O6_22 
REMARK    8  A    between atoms: C9_24  and  C10_25 
REMARK    9  A    between atoms: C10_25  and  N3_26 
REMARK   10  A    between atoms: C10_25  and  O7_30 
ROOT
HETATM    1  C3  UNL     1       2.496 -25.797 -16.612  1.00  0.00     0.021 C 
HETATM    2  C4  UNL     1       2.330 -24.511 -16.819  1.00  0.00     0.050 C 
HETATM    3  C5  UNL     1       1.780 -24.258 -18.175  1.00  0.00     0.200 C 
HETATM    4  C7  UNL     1       1.159 -25.598 -18.490  1.00  0.00     0.145 C 
HETATM    5  C8  UNL     1       1.016 -25.811 -19.981  1.00  0.00     0.209 C 
HETATM    6  C9  UNL     1       0.108 -26.973 -20.183  1.00  0.00     0.097 C 
HETATM    7  N4  UNL     1      -0.145 -27.930 -19.364  1.00  0.00    -0.268 N 
ATOM      8  H4  UNL     1      -0.806 -28.624 -19.713  1.00  0.00     0.194 HD
HETATM    9  O8  UNL     1       0.320 -28.173 -18.108  1.00  0.00    -0.280 OA
HETATM   10  C11 UNL     1       1.565 -27.896 -17.566  1.00  0.00     0.215 C 
HETATM   11  C12 UNL     1       2.081 -26.521 -17.824  1.00  0.00     0.103 C 
ENDROOT
BRANCH   1  12
HETATM   12  N2  UNL     1       3.004 -26.363 -15.411  1.00  0.00    -0.329 N 
HETATM   13  C2  UNL     1       2.199 -26.590 -14.263  1.00  0.00     0.247 C 
HETATM   14  O1  UNL     1       0.973 -26.254 -14.360  1.00  0.00    -0.271 OA
ATOM     15  H2  UNL     1       3.992 -26.618 -15.372  1.00  0.00     0.168 HD
BRANCH  13  16
HETATM   16  C1  UNL     1       2.728 -27.176 -13.023  1.00  0.00     0.332 C 
BRANCH  16  17
HETATM   17  N1  UNL     1       4.170 -27.259 -13.116  1.00  0.00    -0.071 N 
ATOM     18  H13 UNL     1       4.628 -27.072 -12.224  1.00  0.00     0.274 HD
ATOM     19  H12 UNL     1       4.496 -28.216 -13.247  1.00  0.00     0.274 HD
ATOM     20  H11 UNL     1       4.492 -26.634 -13.856  1.00  0.00     0.274 HD
ENDBRANCH  16  17
ENDBRANCH  13  16
ENDBRANCH   1  12
BRANCH   3  21
HETATM   21  O2  UNL     1       0.763 -23.275 -18.106  1.00  0.00    -0.372 OA
ATOM     22  H2  UNL     1       1.057 -22.541 -17.579  1.00  0.00     0.211 HD
ENDBRANCH   3  21
BRANCH   3  23
HETATM   23  C6  UNL     1       2.853 -23.838 -19.068  1.00  0.00     0.216 C 
HETATM   24  O3  UNL     1       2.773 -22.769 -19.767  1.00  0.00    -0.645 OA
HETATM   25  O4  UNL     1       4.019 -24.553 -19.222  1.00  0.00    -0.645 OA
ENDBRANCH   3  23
BRANCH   4  26
HETATM   26  O5  UNL     1      -0.119 -25.544 -17.931  1.00  0.00    -0.382 OA
ATOM     27  H5  UNL     1      -0.483 -26.411 -18.066  1.00  0.00     0.210 HD
ENDBRANCH   4  26
BRANCH   5  28
HETATM   28  O6  UNL     1       0.419 -24.645 -20.474  1.00  0.00    -0.386 OA
ATOM     29  H6  UNL     1      -0.394 -24.924 -20.877  1.00  0.00     0.210 HD
ENDBRANCH   5  28
BRANCH   6  30
HETATM   30  C10 UNL     1      -0.614 -27.083 -21.466  1.00  0.00     0.367 C 
BRANCH  30  31
HETATM   31  N3  UNL     1       0.218 -26.844 -22.618  1.00  0.00    -0.048 N 
ATOM     32  H33 UNL     1       0.433 -27.720 -23.095  1.00  0.00     0.277 HD
ATOM     33  H32 UNL     1      -0.311 -26.376 -23.354  1.00  0.00     0.277 HD
ATOM     34  H31 UNL     1       1.073 -26.330 -22.405  1.00  0.00     0.277 HD
ENDBRANCH  30  31
BRANCH  30  35
HETATM   35  O7  UNL     1      -1.673 -26.186 -21.474  1.00  0.00    -0.365 OA
ATOM     36  H7  UNL     1      -2.428 -26.596 -21.880  1.00  0.00     0.212 HD
ENDBRANCH  30  35
ENDBRANCH   6  30
TORSDOF 10
ENDMDL
MODEL 5
REMARK VINA RESULT: -5.378751394      2.599      6.066
REMARK  10 active torsions:
REMARK  status: ('A' for Active; 'I' for Inactive)
REMARK    1  A    between atoms: N1_1  and  C1_5 
REMARK    2  A    between atoms: C1_5  and  C2_6 
REMARK       I    between atoms: C2_6  and  N2_8 
REMARK    3  A    between atoms: N2_8  and  C3_10 
REMARK    4  A    between atoms: C5_12  and  O2_13 
REMARK    5  A    between atoms: C5_12  and  C6_15 
REMARK    6  A    between atoms: C7_18  and  O5_19 
REMARK    7  A    between atoms: C8_21  and  O6_22 
REMARK    8  A    between atoms: C9_24  and  C10_25 
REMARK    9  A    between atoms: C10_25  and  N3_26 
REMARK   10  A    between atoms: C10_25  and  O7_30 
ROOT
HETATM    1  C3  UNL     1       4.372 -25.016 -17.553  1.00  0.00     0.021 C 
HETATM    2  C4  UNL     1       4.637 -26.299 -17.634  1.00  0.00     0.050 C 
HETATM    3  C5  UNL     1       3.439 -27.063 -18.068  1.00  0.00     0.200 C 
HETATM    4  C7  UNL     1       2.631 -25.976 -18.736  1.00  0.00     0.145 C 
HETATM    5  C8  UNL     1       1.158 -26.322 -18.780  1.00  0.00     0.209 C 
HETATM    6  C9  UNL     1       0.505 -25.383 -19.733  1.00  0.00     0.097 C 
HETATM    7  N4  UNL     1       0.909 -24.219 -20.097  1.00  0.00    -0.268 N 
ATOM      8  H4  UNL     1       0.300 -23.749 -20.767  1.00  0.00     0.194 HD
HETATM    9  O8  UNL     1       2.013 -23.508 -19.740  1.00  0.00    -0.280 OA
HETATM   10  C11 UNL     1       2.679 -23.476 -18.525  1.00  0.00     0.215 C 
HETATM   11  C12 UNL     1       2.962 -24.807 -17.917  1.00  0.00     0.103 C 
ENDROOT
BRANCH   1  12
HETATM   12  N2  UNL     1       5.310 -24.020 -17.166  1.00  0.00    -0.329 N 
HETATM   13  C2  UNL     1       6.136 -23.333 -18.097  1.00  0.00     0.247 C 
HETATM   14  O1  UNL     1       5.994 -23.658 -19.322  1.00  0.00    -0.271 OA
ATOM     15  H2  UNL     1       5.395 -23.788 -16.176  1.00  0.00     0.168 HD
BRANCH  13  16
HETATM   16  C1  UNL     1       7.104 -22.304 -17.694  1.00  0.00     0.332 C 
BRANCH  16  17
HETATM   17  N1  UNL     1       7.293 -21.377 -18.789  1.00  0.00    -0.071 N 
ATOM     18  H13 UNL     1       8.224 -21.447 -19.201  1.00  0.00     0.274 HD
ATOM     19  H12 UNL     1       6.751 -21.635 -19.614  1.00  0.00     0.274 HD
ATOM     20  H11 UNL     1       7.083 -20.432 -18.466  1.00  0.00     0.274 HD
ENDBRANCH  16  17
ENDBRANCH  13  16
ENDBRANCH   1  12
BRANCH   3  21
HETATM   21  O2  UNL     1       3.809 -28.031 -19.032  1.00  0.00    -0.372 OA
ATOM     22  H2  UNL     1       3.072 -28.601 -19.217  1.00  0.00     0.211 HD
ENDBRANCH   3  21
BRANCH   3  23
HETATM   23  C6  UNL     1       2.813 -27.689 -16.910  1.00  0.00     0.216 C 
HETATM   24  O3  UNL     1       2.348 -28.882 -16.955  1.00  0.00    -0.645 OA
HETATM   25  O4  UNL     1       2.678 -27.053 -15.698  1.00  0.00    -0.645 OA
ENDBRANCH   3  23
BRANCH   4  26
HETATM   26  O5  UNL     1       3.108 -25.925 -20.046  1.00  0.00    -0.382 OA
ATOM     27  H5  UNL     1       3.267 -25.004 -20.214  1.00  0.00     0.210 HD
ENDBRANCH   4  26
BRANCH   5  28
HETATM   28  O6  UNL     1       1.092 -27.630 -19.274  1.00  0.00    -0.386 OA
ATOM     29  H6  UNL     1       0.280 -27.990 -18.938  1.00  0.00     0.210 HD
ENDBRANCH   5  28
BRANCH   6  30
HETATM   30  C10 UNL     1      -0.765 -25.796 -20.363  1.00  0.00     0.367 C 
BRANCH  30  31
HETATM   31  N3  UNL     1      -0.586 -26.609 -21.539  1.00  0.00    -0.048 N 
ATOM     32  H33 UNL     1       0.001 -26.130 -22.222  1.00  0.00     0.277 HD
ATOM     33  H32 UNL     1       0.009 -27.412 -21.336  1.00  0.00     0.277 HD
ATOM     34  H31 UNL     1      -1.464 -26.909 -21.965  1.00  0.00     0.277 HD
ENDBRANCH  30  31
BRANCH  30  35
HETATM   35  O7  UNL     1      -1.500 -24.667 -20.695  1.00  0.00    -0.365 OA
ATOM     36  H7  UNL     1      -2.158 -24.900 -21.340  1.00  0.00     0.212 HD
ENDBRANCH  30  35
ENDBRANCH   6  30
TORSDOF 10
ENDMDL
