MODEL 1
REMARK VINA RESULT: -8.329922308      0.000      0.000
REMARK  11 active torsions:
REMARK  status: ('A' for Active; 'I' for Inactive)
REMARK       I    between atoms: N1_2  and  C2_3 
REMARK    1  A    between atoms: N1_2  and  C24_30 
REMARK    2  A    between atoms: C2_3  and  C3_5 
REMARK    3  A    between atoms: C3_5  and  C4_6 
REMARK    4  A    between atoms: C4_6  and  C5_7 
REMARK    5  A    between atoms: C5_7  and  C6_8 
REMARK    6  A    between atoms: C6_8  and  C7_9 
REMARK    7  A    between atoms: C8_10  and  C9_11 
REMARK    8  A    between atoms: C12_14  and  C13_15 
REMARK    9  A    between atoms: C13_15  and  C14_16 
REMARK   10  A    between atoms: C20_22  and  C21_23 
REMARK   11  A    between atoms: C21_23  and  C22_24 
ROOT
HETATM    1  C9  UNL     1      44.811   5.124   9.687  1.00  0.00     0.087 A 
HETATM    2  C10 UNL     1      44.956   6.164  10.578  1.00  0.00     0.041 A 
HETATM    3  C11 UNL     1      44.876   7.316   9.832  1.00  0.00     0.028 A 
HETATM    4  C12 UNL     1      44.684   7.006   8.504  1.00  0.00     0.011 A 
HETATM    5  N2  UNL     1      44.653   5.660   8.470  1.00  0.00    -0.353 N 
ATOM      6  H2  UNL     1      44.523   5.114   7.619  1.00  0.00     0.166 HD
ENDROOT
BRANCH   1   7
HETATM    7  C8  UNL     1      44.836   3.741  10.071  1.00  0.00    -0.049 C 
HETATM    8  C7  UNL     1      44.855   2.577  10.372  1.00  0.00    -0.100 C 
BRANCH   8   9
HETATM    9  C6  UNL     1      44.853   1.113  10.746  1.00  0.00     0.094 C 
BRANCH   9  10
HETATM   10  C5  UNL     1      43.475   0.673  11.033  1.00  0.00     0.012 C 
BRANCH  10  11
HETATM   11  C4  UNL     1      42.707   1.457  12.020  1.00  0.00     0.010 C 
BRANCH  11  12
HETATM   12  C3  UNL     1      41.482   2.162  11.573  1.00  0.00     0.103 C 
BRANCH  12  13
HETATM   13  C2  UNL     1      41.075   1.888  10.204  1.00  0.00     0.219 C 
HETATM   14  N1  UNL     1      40.191   0.854   9.863  1.00  0.00    -0.350 N 
HETATM   15  C1  UNL     1      39.863   0.655   8.448  1.00  0.00     0.153 C 
HETATM   16  O1  UNL     1      41.542   2.631   9.268  1.00  0.00    -0.273 OA
BRANCH  14  17
HETATM   17  C24 UNL     1      39.594   0.010  10.840  1.00  0.00     0.113 C 
HETATM   18  C25 UNL     1      40.006  -1.458  10.640  1.00  0.00     0.054 C 
HETATM   19  C26 UNL     1      38.809  -2.169  11.233  1.00  0.00     0.234 C 
HETATM   20  N3  UNL     1      37.680  -1.419  10.737  1.00  0.00    -0.073 N 
HETATM   21  C27 UNL     1      38.105  -0.067  10.558  1.00  0.00     0.257 C 
ATOM     22  H32 UNL     1      37.274  -1.823   9.894  1.00  0.00     0.277 HD
ATOM     23  H31 UNL     1      36.857  -1.500  11.334  1.00  0.00     0.277 HD
ENDBRANCH  14  17
ENDBRANCH  12  13
ENDBRANCH  11  12
ENDBRANCH  10  11
ENDBRANCH   9  10
ENDBRANCH   8   9
ENDBRANCH   1   7
BRANCH   4  24
HETATM   24  C13 UNL     1      44.550   7.931   7.347  1.00  0.00     0.067 C 
BRANCH  24  25
HETATM   25  C14 UNL     1      43.257   8.640   7.279  1.00  0.00    -0.031 C 
HETATM   26  C15 UNL     1      43.134   9.742   8.280  1.00  0.00     0.016 C 
HETATM   27  C16 UNL     1      42.854   9.077   5.883  1.00  0.00    -0.005 C 
HETATM   28  C17 UNL     1      41.431   9.537   6.146  1.00  0.00     0.006 C 
HETATM   29  C23 UNL     1      42.761   7.728   5.203  1.00  0.00     0.011 C 
HETATM   30  C18 UNL     1      40.959   8.790   7.396  1.00  0.00     0.006 C 
HETATM   31  C19 UNL     1      42.051   7.704   7.481  1.00  0.00    -0.001 C 
HETATM   32  C20 UNL     1      41.957   6.942   6.217  1.00  0.00     0.001 C 
BRANCH  32  33
HETATM   33  C21 UNL     1      42.239   5.488   6.258  1.00  0.00     0.118 C 
BRANCH  33  34
HETATM   34  C22 UNL     1      41.440   4.802   5.210  1.00  0.00     0.172 C 
HETATM   35  O2  UNL     1      40.407   5.365   4.771  1.00  0.00    -0.648 OA
HETATM   36  O3  UNL     1      41.767   3.563   4.681  1.00  0.00    -0.648 OA
ENDBRANCH  33  34
ENDBRANCH  32  33
ENDBRANCH  24  25
ENDBRANCH   4  24
TORSDOF 11
ENDMDL
MODEL 2
REMARK VINA RESULT: -8.221451747      2.873      4.242
REMARK  11 active torsions:
REMARK  status: ('A' for Active; 'I' for Inactive)
REMARK       I    between atoms: N1_2  and  C2_3 
REMARK    1  A    between atoms: N1_2  and  C24_30 
REMARK    2  A    between atoms: C2_3  and  C3_5 
REMARK    3  A    between atoms: C3_5  and  C4_6 
REMARK    4  A    between atoms: C4_6  and  C5_7 
REMARK    5  A    between atoms: C5_7  and  C6_8 
REMARK    6  A    between atoms: C6_8  and  C7_9 
REMARK    7  A    between atoms: C8_10  and  C9_11 
REMARK    8  A    between atoms: C12_14  and  C13_15 
REMARK    9  A    between atoms: C13_15  and  C14_16 
REMARK   10  A    between atoms: C20_22  and  C21_23 
REMARK   11  A    between atoms: C21_23  and  C22_24 
ROOT
HETATM    1  C9  UNL     1      45.126   4.778   9.659  1.00  0.00     0.087 A 
HETATM    2  C10 UNL     1      44.090   5.658   9.880  1.00  0.00     0.041 A 
HETATM    3  C11 UNL     1      44.539   6.887   9.458  1.00  0.00     0.028 A 
HETATM    4  C12 UNL     1      45.828   6.781   8.982  1.00  0.00     0.011 A 
HETATM    5  N2  UNL     1      46.137   5.478   9.128  1.00  0.00    -0.353 N 
ATOM      6  H2  UNL     1      47.034   5.073   8.864  1.00  0.00     0.166 HD
ENDROOT
BRANCH   1   7
HETATM    7  C8  UNL     1      45.059   3.379   9.968  1.00  0.00    -0.049 C 
HETATM    8  C7  UNL     1      44.985   2.204  10.216  1.00  0.00    -0.100 C 
BRANCH   8   9
HETATM    9  C6  UNL     1      44.871   0.733  10.543  1.00  0.00     0.094 C 
BRANCH   9  10
HETATM   10  C5  UNL     1      43.526   0.442  11.070  1.00  0.00     0.012 C 
BRANCH  10  11
HETATM   11  C4  UNL     1      42.925   1.436  11.980  1.00  0.00     0.010 C 
BRANCH  11  12
HETATM   12  C3  UNL     1      41.624   2.045  11.613  1.00  0.00     0.103 C 
BRANCH  12  13
HETATM   13  C2  UNL     1      41.195   1.809  10.244  1.00  0.00     0.219 C 
HETATM   14  N1  UNL     1      40.280   0.806   9.892  1.00  0.00    -0.350 N 
HETATM   15  C1  UNL     1      39.932   0.644   8.477  1.00  0.00     0.153 C 
HETATM   16  O1  UNL     1      41.671   2.560   9.318  1.00  0.00    -0.273 OA
BRANCH  14  17
HETATM   17  C24 UNL     1      39.674  -0.042  10.859  1.00  0.00     0.113 C 
HETATM   18  C25 UNL     1      39.977  -1.523  10.576  1.00  0.00     0.054 C 
HETATM   19  C26 UNL     1      38.763  -2.182  11.193  1.00  0.00     0.234 C 
HETATM   20  N3  UNL     1      37.666  -1.339  10.785  1.00  0.00    -0.073 N 
HETATM   21  C27 UNL     1      38.171  -0.010  10.644  1.00  0.00     0.257 C 
ATOM     22  H32 UNL     1      37.197  -1.677   9.945  1.00  0.00     0.277 HD
ATOM     23  H31 UNL     1      36.866  -1.395  11.416  1.00  0.00     0.277 HD
ENDBRANCH  14  17
ENDBRANCH  12  13
ENDBRANCH  11  12
ENDBRANCH  10  11
ENDBRANCH   9  10
ENDBRANCH   8   9
ENDBRANCH   1   7
BRANCH   4  24
HETATM   24  C13 UNL     1      46.705   7.851   8.437  1.00  0.00     0.067 C 
BRANCH  24  25
HETATM   25  C14 UNL     1      47.261   8.762   9.457  1.00  0.00    -0.031 C 
HETATM   26  C15 UNL     1      48.114   8.068  10.468  1.00  0.00     0.016 C 
HETATM   27  C16 UNL     1      47.925  10.005   8.893  1.00  0.00    -0.005 C 
HETATM   28  C17 UNL     1      48.156  10.790  10.171  1.00  0.00     0.006 C 
HETATM   29  C23 UNL     1      46.741  10.640   8.195  1.00  0.00     0.011 C 
HETATM   30  C18 UNL     1      47.121  10.288  11.181  1.00  0.00     0.006 C 
HETATM   31  C19 UNL     1      46.172   9.530  10.229  1.00  0.00    -0.001 C 
HETATM   32  C20 UNL     1      45.678  10.540   9.269  1.00  0.00     0.001 C 
BRANCH  32  33
HETATM   33  C21 UNL     1      44.289  10.409   8.773  1.00  0.00     0.118 C 
BRANCH  33  34
HETATM   34  C22 UNL     1      43.500  11.593   9.200  1.00  0.00     0.172 C 
HETATM   35  O2  UNL     1      43.766  12.133  10.301  1.00  0.00    -0.648 OA
HETATM   36  O3  UNL     1      42.473  12.146   8.449  1.00  0.00    -0.648 OA
ENDBRANCH  33  34
ENDBRANCH  32  33
ENDBRANCH  24  25
ENDBRANCH   4  24
TORSDOF 11
ENDMDL
MODEL 3
REMARK VINA RESULT: -8.193761638      4.217      6.580
REMARK  11 active torsions:
REMARK  status: ('A' for Active; 'I' for Inactive)
REMARK       I    between atoms: N1_2  and  C2_3 
REMARK    1  A    between atoms: N1_2  and  C24_30 
REMARK    2  A    between atoms: C2_3  and  C3_5 
REMARK    3  A    between atoms: C3_5  and  C4_6 
REMARK    4  A    between atoms: C4_6  and  C5_7 
REMARK    5  A    between atoms: C5_7  and  C6_8 
REMARK    6  A    between atoms: C6_8  and  C7_9 
REMARK    7  A    between atoms: C8_10  and  C9_11 
REMARK    8  A    between atoms: C12_14  and  C13_15 
REMARK    9  A    between atoms: C13_15  and  C14_16 
REMARK   10  A    between atoms: C20_22  and  C21_23 
REMARK   11  A    between atoms: C21_23  and  C22_24 
ROOT
HETATM    1  C9  UNL     1      45.903   4.348  10.348  1.00  0.00     0.087 A 
HETATM    2  C10 UNL     1      45.273   5.357   9.653  1.00  0.00     0.041 A 
HETATM    3  C11 UNL     1      45.995   6.499   9.904  1.00  0.00     0.028 A 
HETATM    4  C12 UNL     1      47.055   6.214  10.737  1.00  0.00     0.011 A 
HETATM    5  N2  UNL     1      46.952   4.893  10.977  1.00  0.00    -0.353 N 
ATOM      6  H2  UNL     1      47.597   4.369  11.568  1.00  0.00     0.166 HD
ENDROOT
BRANCH   1   7
HETATM    7  C8  UNL     1      45.455   2.984  10.347  1.00  0.00    -0.049 C 
HETATM    8  C7  UNL     1      45.075   1.844  10.367  1.00  0.00    -0.100 C 
BRANCH   8   9
HETATM    9  C6  UNL     1      44.620   0.403  10.406  1.00  0.00     0.094 C 
BRANCH   9  10
HETATM   10  C5  UNL     1      43.347   0.303  11.143  1.00  0.00     0.012 C 
BRANCH  10  11
HETATM   11  C4  UNL     1      42.916   1.484  11.914  1.00  0.00     0.010 C 
BRANCH  11  12
HETATM   12  C3  UNL     1      41.605   2.101  11.602  1.00  0.00     0.103 C 
BRANCH  12  13
HETATM   13  C2  UNL     1      41.140   1.909  10.238  1.00  0.00     0.219 C 
HETATM   14  N1  UNL     1      40.168   0.961   9.889  1.00  0.00    -0.350 N 
HETATM   15  C1  UNL     1      39.787   0.839   8.478  1.00  0.00     0.153 C 
HETATM   16  O1  UNL     1      41.639   2.647   9.314  1.00  0.00    -0.273 OA
BRANCH  14  17
HETATM   17  C24 UNL     1      39.533   0.132  10.855  1.00  0.00     0.113 C 
HETATM   18  C25 UNL     1      39.915  -1.345  10.664  1.00  0.00     0.054 C 
HETATM   19  C26 UNL     1      38.691  -2.028  11.233  1.00  0.00     0.234 C 
HETATM   20  N3  UNL     1      37.589  -1.253  10.715  1.00  0.00    -0.073 N 
HETATM   21  C27 UNL     1      38.049   0.088  10.543  1.00  0.00     0.257 C 
ATOM     22  H32 UNL     1      37.191  -1.649   9.864  1.00  0.00     0.277 HD
ATOM     23  H31 UNL     1      36.753  -1.315  11.295  1.00  0.00     0.277 HD
ENDBRANCH  14  17
ENDBRANCH  12  13
ENDBRANCH  11  12
ENDBRANCH  10  11
ENDBRANCH   9  10
ENDBRANCH   8   9
ENDBRANCH   1   7
BRANCH   4  24
HETATM   24  C13 UNL     1      48.086   7.141  11.274  1.00  0.00     0.067 C 
BRANCH  24  25
HETATM   25  C14 UNL     1      47.548   8.237  12.105  1.00  0.00    -0.031 C 
HETATM   26  C15 UNL     1      47.004   9.373  11.303  1.00  0.00     0.016 C 
HETATM   27  C16 UNL     1      46.595   7.788  13.196  1.00  0.00    -0.005 C 
HETATM   28  C17 UNL     1      46.437   9.086  13.966  1.00  0.00     0.006 C 
HETATM   29  C23 UNL     1      47.522   6.907  14.007  1.00  0.00     0.011 C 
HETATM   30  C18 UNL     1      47.692   9.915  13.680  1.00  0.00     0.006 C 
HETATM   31  C19 UNL     1      48.595   8.822  13.072  1.00  0.00    -0.001 C 
HETATM   32  C20 UNL     1      48.743   7.793  14.124  1.00  0.00     0.001 C 
BRANCH  32  33
HETATM   33  C21 UNL     1      50.037   7.079  14.221  1.00  0.00     0.118 C 
BRANCH  33  34
HETATM   34  C22 UNL     1      50.354   6.827  15.651  1.00  0.00     0.172 C 
HETATM   35  O2  UNL     1      50.256   7.774  16.469  1.00  0.00    -0.648 OA
HETATM   36  O3  UNL     1      50.757   5.595  16.145  1.00  0.00    -0.648 OA
ENDBRANCH  33  34
ENDBRANCH  32  33
ENDBRANCH  24  25
ENDBRANCH   4  24
TORSDOF 11
ENDMDL
MODEL 4
REMARK VINA RESULT: -8.175274257      2.373      7.429
REMARK  11 active torsions:
REMARK  status: ('A' for Active; 'I' for Inactive)
REMARK       I    between atoms: N1_2  and  C2_3 
REMARK    1  A    between atoms: N1_2  and  C24_30 
REMARK    2  A    between atoms: C2_3  and  C3_5 
REMARK    3  A    between atoms: C3_5  and  C4_6 
REMARK    4  A    between atoms: C4_6  and  C5_7 
REMARK    5  A    between atoms: C5_7  and  C6_8 
REMARK    6  A    between atoms: C6_8  and  C7_9 
REMARK    7  A    between atoms: C8_10  and  C9_11 
REMARK    8  A    between atoms: C12_14  and  C13_15 
REMARK    9  A    between atoms: C13_15  and  C14_16 
REMARK   10  A    between atoms: C20_22  and  C21_23 
REMARK   11  A    between atoms: C21_23  and  C22_24 
ROOT
HETATM    1  C9  UNL     1      43.769   1.716  10.459  1.00  0.00     0.087 A 
HETATM    2  C10 UNL     1      43.603   1.089  11.674  1.00  0.00     0.041 A 
HETATM    3  C11 UNL     1      42.873  -0.047  11.419  1.00  0.00     0.028 A 
HETATM    4  C12 UNL     1      42.586  -0.131  10.074  1.00  0.00     0.011 A 
HETATM    5  N2  UNL     1      43.153   0.965   9.536  1.00  0.00    -0.353 N 
ATOM      6  H2  UNL     1      43.118   1.197   8.544  1.00  0.00     0.166 HD
ENDROOT
BRANCH   1   7
HETATM    7  C8  UNL     1      44.484   2.949  10.292  1.00  0.00    -0.049 C 
HETATM    8  C7  UNL     1      45.068   3.989  10.142  1.00  0.00    -0.100 C 
BRANCH   8   9
HETATM    9  C6  UNL     1      45.806   5.291   9.927  1.00  0.00     0.094 C 
BRANCH   9  10
HETATM   10  C5  UNL     1      44.844   6.407   9.883  1.00  0.00     0.012 C 
BRANCH  10  11
HETATM   11  C4  UNL     1      44.386   6.853   8.553  1.00  0.00     0.010 C 
BRANCH  11  12
HETATM   12  C3  UNL     1      42.929   6.971   8.304  1.00  0.00     0.103 C 
BRANCH  12  13
HETATM   13  C2  UNL     1      42.118   5.899   8.857  1.00  0.00     0.219 C 
HETATM   14  N1  UNL     1      41.728   4.775   8.115  1.00  0.00    -0.350 N 
HETATM   15  C1  UNL     1      40.893   3.762   8.767  1.00  0.00     0.153 C 
HETATM   16  O1  UNL     1      41.748   5.985  10.083  1.00  0.00    -0.273 OA
BRANCH  14  17
HETATM   17  C24 UNL     1      42.127   4.581   6.763  1.00  0.00     0.113 C 
HETATM   18  C25 UNL     1      41.157   5.267   5.787  1.00  0.00     0.054 C 
HETATM   19  C26 UNL     1      41.328   4.395   4.562  1.00  0.00     0.234 C 
HETATM   20  N3  UNL     1      41.358   3.053   5.092  1.00  0.00    -0.073 N 
HETATM   21  C27 UNL     1      41.910   3.122   6.408  1.00  0.00     0.257 C 
ATOM     22  H32 UNL     1      40.447   2.597   5.067  1.00  0.00     0.277 HD
ATOM     23  H31 UNL     1      41.853   2.399   4.487  1.00  0.00     0.277 HD
ENDBRANCH  14  17
ENDBRANCH  12  13
ENDBRANCH  11  12
ENDBRANCH  10  11
ENDBRANCH   9  10
ENDBRANCH   8   9
ENDBRANCH   1   7
BRANCH   4  24
HETATM   24  C13 UNL     1      41.815  -1.181   9.356  1.00  0.00     0.067 C 
BRANCH  24  25
HETATM   25  C14 UNL     1      40.429  -1.354   9.833  1.00  0.00    -0.031 C 
HETATM   26  C15 UNL     1      40.321  -2.244  11.027  1.00  0.00     0.016 C 
HETATM   27  C16 UNL     1      39.658  -0.058  10.004  1.00  0.00    -0.005 C 
HETATM   28  C17 UNL     1      38.266  -0.606  10.261  1.00  0.00     0.006 C 
HETATM   29  C23 UNL     1      39.675   0.446   8.576  1.00  0.00     0.011 C 
HETATM   30  C18 UNL     1      38.224  -1.999   9.627  1.00  0.00     0.006 C 
HETATM   31  C19 UNL     1      39.493  -1.926   8.752  1.00  0.00    -0.001 C 
HETATM   32  C20 UNL     1      39.272  -0.801   7.818  1.00  0.00     0.001 C 
BRANCH  32  33
HETATM   33  C21 UNL     1      39.823  -0.915   6.448  1.00  0.00     0.118 C 
BRANCH  33  34
HETATM   34  C22 UNL     1      38.905  -0.245   5.491  1.00  0.00     0.172 C 
HETATM   35  O2  UNL     1      37.855  -0.838   5.143  1.00  0.00    -0.648 OA
HETATM   36  O3  UNL     1      39.139   1.011   4.951  1.00  0.00    -0.648 OA
ENDBRANCH  33  34
ENDBRANCH  32  33
ENDBRANCH  24  25
ENDBRANCH   4  24
TORSDOF 11
ENDMDL
MODEL 5
REMARK VINA RESULT: -8.155710126      3.109      4.882
REMARK  11 active torsions:
REMARK  status: ('A' for Active; 'I' for Inactive)
REMARK       I    between atoms: N1_2  and  C2_3 
REMARK    1  A    between atoms: N1_2  and  C24_30 
REMARK    2  A    between atoms: C2_3  and  C3_5 
REMARK    3  A    between atoms: C3_5  and  C4_6 
REMARK    4  A    between atoms: C4_6  and  C5_7 
REMARK    5  A    between atoms: C5_7  and  C6_8 
REMARK    6  A    between atoms: C6_8  and  C7_9 
REMARK    7  A    between atoms: C8_10  and  C9_11 
REMARK    8  A    between atoms: C12_14  and  C13_15 
REMARK    9  A    between atoms: C13_15  and  C14_16 
REMARK   10  A    between atoms: C20_22  and  C21_23 
REMARK   11  A    between atoms: C21_23  and  C22_24 
ROOT
HETATM    1  C9  UNL     1      45.207   4.689   9.690  1.00  0.00     0.087 A 
HETATM    2  C10 UNL     1      44.164   5.549   9.953  1.00  0.00     0.041 A 
HETATM    3  C11 UNL     1      44.579   6.790   9.534  1.00  0.00     0.028 A 
HETATM    4  C12 UNL     1      45.855   6.711   9.020  1.00  0.00     0.011 A 
HETATM    5  N2  UNL     1      46.190   5.413   9.139  1.00  0.00    -0.353 N 
ATOM      6  H2  UNL     1      47.086   5.026   8.845  1.00  0.00     0.166 HD
ENDROOT
BRANCH   1   7
HETATM    7  C8  UNL     1      45.172   3.285   9.984  1.00  0.00    -0.049 C 
HETATM    8  C7  UNL     1      45.128   2.106  10.216  1.00  0.00    -0.100 C 
BRANCH   8   9
HETATM    9  C6  UNL     1      45.049   0.627  10.518  1.00  0.00     0.094 C 
BRANCH   9  10
HETATM   10  C5  UNL     1      43.672   0.270  10.904  1.00  0.00     0.012 C 
BRANCH  10  11
HETATM   11  C4  UNL     1      43.029   1.087  11.950  1.00  0.00     0.010 C 
BRANCH  11  12
HETATM   12  C3  UNL     1      42.027   2.104  11.548  1.00  0.00     0.103 C 
BRANCH  12  13
HETATM   13  C2  UNL     1      40.865   1.583  10.846  1.00  0.00     0.219 C 
HETATM   14  N1  UNL     1      40.757   1.576   9.448  1.00  0.00    -0.350 N 
HETATM   15  C1  UNL     1      39.531   1.043   8.845  1.00  0.00     0.153 C 
HETATM   16  O1  UNL     1      39.899   1.102  11.540  1.00  0.00    -0.273 OA
BRANCH  14  17
HETATM   17  C24 UNL     1      41.797   2.051   8.603  1.00  0.00     0.113 C 
HETATM   18  C25 UNL     1      41.457   3.430   8.014  1.00  0.00     0.054 C 
HETATM   19  C26 UNL     1      42.247   3.388   6.724  1.00  0.00     0.234 C 
HETATM   20  N3  UNL     1      42.021   2.054   6.222  1.00  0.00    -0.073 N 
HETATM   21  C27 UNL     1      41.817   1.198   7.347  1.00  0.00     0.257 C 
ATOM     22  H32 UNL     1      41.260   2.009   5.545  1.00  0.00     0.277 HD
ATOM     23  H31 UNL     1      42.767   1.730   5.606  1.00  0.00     0.277 HD
ENDBRANCH  14  17
ENDBRANCH  12  13
ENDBRANCH  11  12
ENDBRANCH  10  11
ENDBRANCH   9  10
ENDBRANCH   8   9
ENDBRANCH   1   7
BRANCH   4  24
HETATM   24  C13 UNL     1      46.698   7.803   8.463  1.00  0.00     0.067 C 
BRANCH  24  25
HETATM   25  C14 UNL     1      47.240   8.732   9.475  1.00  0.00    -0.031 C 
HETATM   26  C15 UNL     1      48.073   8.055  10.513  1.00  0.00     0.016 C 
HETATM   27  C16 UNL     1      47.917   9.962   8.899  1.00  0.00    -0.005 C 
HETATM   28  C17 UNL     1      48.129  10.770  10.165  1.00  0.00     0.006 C 
HETATM   29  C23 UNL     1      46.747  10.587   8.169  1.00  0.00     0.011 C 
HETATM   30  C18 UNL     1      47.075  10.290  11.167  1.00  0.00     0.006 C 
HETATM   31  C19 UNL     1      46.140   9.518  10.213  1.00  0.00    -0.001 C 
HETATM   32  C20 UNL     1      45.666  10.511   9.225  1.00  0.00     0.001 C 
BRANCH  32  33
HETATM   33  C21 UNL     1      44.285  10.374   8.709  1.00  0.00     0.118 C 
BRANCH  33  34
HETATM   34  C22 UNL     1      43.484  11.554   9.126  1.00  0.00     0.172 C 
HETATM   35  O2  UNL     1      43.774  12.133  10.201  1.00  0.00    -0.648 OA
HETATM   36  O3  UNL     1      42.422  12.062   8.393  1.00  0.00    -0.648 OA
ENDBRANCH  33  34
ENDBRANCH  32  33
ENDBRANCH  24  25
ENDBRANCH   4  24
TORSDOF 11
ENDMDL
