MODEL 1
REMARK VINA RESULT: -7.008564433      0.000      0.000
REMARK  4 active torsions:
REMARK  status: ('A' for Active; 'I' for Inactive)
REMARK    1  A    between atoms: N1_4  and  C4_5 
REMARK    2  A    between atoms: C4_5  and  C5_6 
REMARK    3  A    between atoms: C5_6  and  C6_7 
REMARK    4  A    between atoms: C6_7  and  N2_8 
ROOT
HETATM    1  C5  UNL     1    -102.049  39.499  26.125  1.00  0.00     0.042 C 
ENDROOT
BRANCH   1   2
HETATM    2  C4  UNL     1    -102.107  38.386  27.121  1.00  0.00     0.129 C 
BRANCH   2   3
HETATM    3  N1  UNL     1    -100.719  37.993  27.396  1.00  0.00    -0.366 N 
HETATM    4  C3  UNL     1     -99.695  38.680  26.852  1.00  0.00     0.090 A 
HETATM    5  C2  UNL     1     -98.362  38.372  27.059  1.00  0.00     0.017 A 
HETATM    6  C1  UNL     1     -98.082  37.290  27.875  1.00  0.00     0.003 A 
HETATM    7  C10 UNL     1     -99.110  36.577  28.438  1.00  0.00     0.017 A 
HETATM    8  C9  UNL     1    -100.408  36.943  28.187  1.00  0.00     0.090 A 
ENDBRANCH   2   3
ENDBRANCH   1   2
BRANCH   1   9
HETATM    9  C6  UNL     1    -103.449  39.803  25.594  1.00  0.00     0.145 C 
BRANCH   9  10
HETATM   10  N2  UNL     1    -103.331  39.832  24.151  1.00  0.00    -0.312 N 
HETATM   11  C7  UNL     1    -102.222  39.243  23.392  1.00  0.00     0.165 C 
HETATM   12  C8  UNL     1    -102.249  40.122  22.166  1.00  0.00     0.162 C 
HETATM   13  N3  UNL     1    -103.618  40.570  22.092  1.00  0.00    -0.321 N 
HETATM   14  N4  UNL     1    -104.169  40.395  23.190  1.00  0.00    -0.249 N 
ATOM     15  H3  UNL     1    -104.064  40.969  21.266  1.00  0.00     0.181 HD
ATOM     16  H4  UNL     1    -105.143  40.638  23.371  1.00  0.00     0.207 HD
ENDBRANCH   9  10
ENDBRANCH   1   9
TORSDOF 4
ENDMDL
MODEL 2
REMARK VINA RESULT: -6.994708967      0.046      1.254
REMARK  4 active torsions:
REMARK  status: ('A' for Active; 'I' for Inactive)
REMARK    1  A    between atoms: N1_4  and  C4_5 
REMARK    2  A    between atoms: C4_5  and  C5_6 
REMARK    3  A    between atoms: C5_6  and  C6_7 
REMARK    4  A    between atoms: C6_7  and  N2_8 
ROOT
HETATM    1  C5  UNL     1    -102.070  39.539  26.118  1.00  0.00     0.042 C 
ENDROOT
BRANCH   1   2
HETATM    2  C4  UNL     1    -102.088  38.408  27.095  1.00  0.00     0.129 C 
BRANCH   2   3
HETATM    3  N1  UNL     1    -100.688  38.045  27.347  1.00  0.00    -0.366 N 
HETATM    4  C3  UNL     1    -100.386  36.990  28.129  1.00  0.00     0.090 A 
HETATM    5  C2  UNL     1     -99.095  36.585  28.416  1.00  0.00     0.017 A 
HETATM    6  C1  UNL     1     -98.063  37.319  27.861  1.00  0.00     0.003 A 
HETATM    7  C10 UNL     1     -98.348  38.398  27.061  1.00  0.00     0.017 A 
HETATM    8  C9  UNL     1     -99.655  38.739  26.820  1.00  0.00     0.090 A 
ENDBRANCH   2   3
ENDBRANCH   1   2
BRANCH   1   9
HETATM    9  C6  UNL     1    -103.474  39.782  25.569  1.00  0.00     0.145 C 
BRANCH   9  10
HETATM   10  N2  UNL     1    -103.340  39.820  24.128  1.00  0.00    -0.312 N 
HETATM   11  C7  UNL     1    -102.221  39.235  23.378  1.00  0.00     0.165 C 
HETATM   12  C8  UNL     1    -102.234  40.121  22.157  1.00  0.00     0.162 C 
HETATM   13  N3  UNL     1    -103.602  40.570  22.070  1.00  0.00    -0.321 N 
HETATM   14  N4  UNL     1    -104.166  40.389  23.160  1.00  0.00    -0.249 N 
ATOM     15  H3  UNL     1    -104.037  40.975  21.242  1.00  0.00     0.181 HD
ATOM     16  H4  UNL     1    -105.142  40.631  23.331  1.00  0.00     0.207 HD
ENDBRANCH   9  10
ENDBRANCH   1   9
TORSDOF 4
ENDMDL
MODEL 3
REMARK VINA RESULT: -6.813591001      0.982      1.099
REMARK  4 active torsions:
REMARK  status: ('A' for Active; 'I' for Inactive)
REMARK    1  A    between atoms: N1_4  and  C4_5 
REMARK    2  A    between atoms: C4_5  and  C5_6 
REMARK    3  A    between atoms: C5_6  and  C6_7 
REMARK    4  A    between atoms: C6_7  and  N2_8 
ROOT
HETATM    1  C5  UNL     1    -102.192  39.189  26.424  1.00  0.00     0.042 C 
ENDROOT
BRANCH   1   2
HETATM    2  C4  UNL     1    -102.074  38.081  27.420  1.00  0.00     0.129 C 
BRANCH   2   3
HETATM    3  N1  UNL     1    -100.641  37.796  27.568  1.00  0.00    -0.366 N 
HETATM    4  C3  UNL     1     -99.724  38.591  26.983  1.00  0.00     0.090 A 
HETATM    5  C2  UNL     1     -98.358  38.389  27.072  1.00  0.00     0.017 A 
HETATM    6  C1  UNL     1     -97.925  37.301  27.808  1.00  0.00     0.003 A 
HETATM    7  C10 UNL     1     -98.843  36.478  28.411  1.00  0.00     0.017 A 
HETATM    8  C9  UNL     1    -100.183  36.742  28.279  1.00  0.00     0.090 A 
ENDBRANCH   2   3
ENDBRANCH   1   2
BRANCH   1   9
HETATM    9  C6  UNL     1    -103.328  38.899  25.445  1.00  0.00     0.145 C 
BRANCH   9  10
HETATM   10  N2  UNL     1    -102.966  39.555  24.206  1.00  0.00    -0.312 N 
HETATM   11  C7  UNL     1    -103.807  40.530  23.501  1.00  0.00     0.165 C 
HETATM   12  C8  UNL     1    -103.317  40.325  22.089  1.00  0.00     0.162 C 
HETATM   13  N3  UNL     1    -101.970  39.838  22.258  1.00  0.00    -0.321 N 
HETATM   14  N4  UNL     1    -101.821  39.431  23.421  1.00  0.00    -0.249 N 
ATOM     15  H3  UNL     1    -101.252  39.830  21.535  1.00  0.00     0.181 HD
ATOM     16  H4  UNL     1    -100.944  39.042  23.769  1.00  0.00     0.207 HD
ENDBRANCH   9  10
ENDBRANCH   1   9
TORSDOF 4
ENDMDL
MODEL 4
REMARK VINA RESULT: -6.630406453      1.484      2.474
REMARK  4 active torsions:
REMARK  status: ('A' for Active; 'I' for Inactive)
REMARK    1  A    between atoms: N1_4  and  C4_5 
REMARK    2  A    between atoms: C4_5  and  C5_6 
REMARK    3  A    between atoms: C5_6  and  C6_7 
REMARK    4  A    between atoms: C6_7  and  N2_8 
ROOT
HETATM    1  C5  UNL     1    -100.823  38.995  24.847  1.00  0.00     0.042 C 
ENDROOT
BRANCH   1   2
HETATM    2  C4  UNL     1    -100.593  39.575  26.205  1.00  0.00     0.129 C 
BRANCH   2   3
HETATM    3  N1  UNL     1     -99.958  38.525  27.012  1.00  0.00    -0.366 N 
HETATM    4  C3  UNL     1     -98.626  38.333  26.956  1.00  0.00     0.090 A 
HETATM    5  C2  UNL     1     -97.954  37.364  27.680  1.00  0.00     0.017 A 
HETATM    6  C1  UNL     1     -98.711  36.553  28.506  1.00  0.00     0.003 A 
HETATM    7  C10 UNL     1    -100.070  36.731  28.578  1.00  0.00     0.017 A 
HETATM    8  C9  UNL     1    -100.666  37.714  27.829  1.00  0.00     0.090 A 
ENDBRANCH   2   3
ENDBRANCH   1   2
BRANCH   1   9
HETATM    9  C6  UNL     1    -101.994  39.699  24.165  1.00  0.00     0.145 C 
BRANCH   9  10
HETATM   10  N2  UNL     1    -103.193  39.161  24.773  1.00  0.00    -0.312 N 
HETATM   11  C7  UNL     1    -104.556  39.624  24.485  1.00  0.00     0.165 C 
HETATM   12  C8  UNL     1    -105.232  39.272  25.787  1.00  0.00     0.162 C 
HETATM   13  N3  UNL     1    -104.446  38.177  26.299  1.00  0.00    -0.321 N 
HETATM   14  N4  UNL     1    -103.347  38.152  25.723  1.00  0.00    -0.249 N 
ATOM     15  H3  UNL     1    -104.746  37.525  27.024  1.00  0.00     0.181 HD
ATOM     16  H4  UNL     1    -102.627  37.458  25.924  1.00  0.00     0.207 HD
ENDBRANCH   9  10
ENDBRANCH   1   9
TORSDOF 4
ENDMDL
MODEL 5
REMARK VINA RESULT: -6.619599858      1.488      2.693
REMARK  4 active torsions:
REMARK  status: ('A' for Active; 'I' for Inactive)
REMARK    1  A    between atoms: N1_4  and  C4_5 
REMARK    2  A    between atoms: C4_5  and  C5_6 
REMARK    3  A    between atoms: C5_6  and  C6_7 
REMARK    4  A    between atoms: C6_7  and  N2_8 
ROOT
HETATM    1  C5  UNL     1    -100.840  39.003  24.838  1.00  0.00     0.042 C 
ENDROOT
BRANCH   1   2
HETATM    2  C4  UNL     1    -100.610  39.577  26.199  1.00  0.00     0.129 C 
BRANCH   2   3
HETATM    3  N1  UNL     1     -99.934  38.538  26.986  1.00  0.00    -0.366 N 
HETATM    4  C3  UNL     1    -100.640  37.733  27.803  1.00  0.00     0.090 A 
HETATM    5  C2  UNL     1    -100.078  36.735  28.579  1.00  0.00     0.017 A 
HETATM    6  C1  UNL     1     -98.708  36.568  28.500  1.00  0.00     0.003 A 
HETATM    7  C10 UNL     1     -97.969  37.377  27.674  1.00  0.00     0.017 A 
HETATM    8  C9  UNL     1     -98.597  38.347  26.934  1.00  0.00     0.090 A 
ENDBRANCH   2   3
ENDBRANCH   1   2
BRANCH   1   9
HETATM    9  C6  UNL     1    -102.020  39.701  24.165  1.00  0.00     0.145 C 
BRANCH   9  10
HETATM   10  N2  UNL     1    -103.211  39.154  24.779  1.00  0.00    -0.312 N 
HETATM   11  C7  UNL     1    -104.580  39.602  24.493  1.00  0.00     0.165 C 
HETATM   12  C8  UNL     1    -105.248  39.250  25.799  1.00  0.00     0.162 C 
HETATM   13  N3  UNL     1    -104.449  38.166  26.314  1.00  0.00    -0.321 N 
HETATM   14  N4  UNL     1    -103.353  38.148  25.734  1.00  0.00    -0.249 N 
ATOM     15  H3  UNL     1    -104.741  37.514  27.043  1.00  0.00     0.181 HD
ATOM     16  H4  UNL     1    -102.625  37.463  25.936  1.00  0.00     0.207 HD
ENDBRANCH   9  10
ENDBRANCH   1   9
TORSDOF 4
ENDMDL
