MODEL 1
REMARK VINA RESULT: -8.293238060      0.000      0.000
REMARK  6 active torsions:
REMARK  status: ('A' for Active; 'I' for Inactive)
REMARK    1  A    between atoms: C2_2  and  C3_3 
REMARK    2  A    between atoms: C5_12  and  C6_13 
REMARK    3  A    between atoms: C10_20  and  C11_21 
REMARK    4  A    between atoms: C14_28  and  O1_29 
REMARK    5  A    between atoms: O1_29  and  C15_30 
REMARK    6  A    between atoms: C15_30  and  C16_31 
ROOT
HETATM    1  C6  UNL     1      23.528  24.570 -15.870  1.00  0.00     0.078 A 
HETATM    2  N4  UNL     1      23.483  24.112 -14.609  1.00  0.00    -0.329 N 
ATOM      3  H4  UNL     1      23.924  24.540 -13.796  1.00  0.00     0.168 HD
HETATM    4  C7  UNL     1      22.739  22.971 -14.614  1.00  0.00     0.201 A 
HETATM    5  F1  UNL     1      22.475  22.228 -13.516  1.00  0.00    -0.185 F 
HETATM    6  C8  UNL     1      22.298  22.680 -15.871  1.00  0.00     0.050 A 
HETATM    7  C9  UNL     1      21.511  21.654 -16.406  1.00  0.00     0.032 A 
HETATM    8  C10 UNL     1      21.202  21.611 -17.740  1.00  0.00    -0.005 A 
HETATM    9  C19 UNL     1      21.711  22.633 -18.513  1.00  0.00     0.101 A 
HETATM   10  N7  UNL     1      22.465  23.604 -17.974  1.00  0.00    -0.362 N 
ATOM     11  H7  UNL     1      22.812  24.330 -18.601  1.00  0.00     0.165 HD
HETATM   12  C20 UNL     1      22.798  23.697 -16.680  1.00  0.00     0.075 A 
ENDROOT
BRANCH   8  13
HETATM   13  C11 UNL     1      20.394  20.593 -18.394  1.00  0.00     0.029 A 
HETATM   14  C12 UNL     1      19.083  20.875 -18.702  1.00  0.00     0.035 A 
HETATM   15  C13 UNL     1      18.305  19.925 -19.319  1.00  0.00     0.108 A 
HETATM   16  N5  UNL     1      18.833  18.725 -19.618  1.00  0.00    -0.310 N 
HETATM   17  N6  UNL     1      20.091  18.465 -19.320  1.00  0.00    -0.280 N 
ATOM     18  H5  UNL     1      18.260  18.015 -20.076  1.00  0.00     0.186 HD
HETATM   19  C14 UNL     1      20.893  19.351 -18.719  1.00  0.00     0.168 A 
ATOM     20  H6  UNL     1      20.469  17.549 -19.558  1.00  0.00     0.189 HD
BRANCH  19  21
HETATM   21  O1  UNL     1      22.217  19.100 -18.395  1.00  0.00    -0.334 OA
BRANCH  21  22
HETATM   22  C15 UNL     1      22.636  18.422 -17.233  1.00  0.00     0.185 C 
BRANCH  22  23
HETATM   23  C16 UNL     1      24.108  18.492 -16.998  1.00  0.00     0.047 A 
HETATM   24  C17 UNL     1      24.654  17.737 -15.802  1.00  0.00     0.047 A 
HETATM   25  C18 UNL     1      24.869  17.200 -17.182  1.00  0.00     0.176 A 
HETATM   26  F2  UNL     1      26.153  17.240 -17.683  1.00  0.00    -0.249 F 
ENDBRANCH  22  23
ENDBRANCH  21  22
ENDBRANCH  19  21
ENDBRANCH   8  13
BRANCH   1  27
HETATM   27  C5  UNL     1      24.169  25.825 -16.345  1.00  0.00     0.062 A 
HETATM   28  C3  UNL     1      25.303  25.906 -17.156  1.00  0.00     0.042 A 
HETATM   29  N1  UNL     1      25.482  27.241 -17.366  1.00  0.00    -0.302 N 
HETATM   30  N2  UNL     1      24.597  27.962 -16.780  1.00  0.00    -0.285 N 
ATOM     31  H1  UNL     1      26.241  27.626 -17.929  1.00  0.00     0.186 HD
HETATM   32  C4  UNL     1      23.756  27.122 -16.131  1.00  0.00     0.128 A 
ATOM     33  H2  UNL     1      24.537  28.980 -16.800  1.00  0.00     0.188 HD
HETATM   34  N3  UNL     1      22.748  27.556 -15.470  1.00  0.00    -0.384 N 
ATOM     35  H32 UNL     1      22.442  28.517 -15.312  1.00  0.00     0.157 HD
ATOM     36  H31 UNL     1      22.114  26.924 -14.981  1.00  0.00     0.157 HD
BRANCH  28  37
HETATM   37  C2  UNL     1      26.167  24.851 -17.697  1.00  0.00     0.055 C 
HETATM   38  C1  UNL     1      25.804  24.436 -19.117  1.00  0.00     0.011 C 
ENDBRANCH  28  37
ENDBRANCH   1  27
TORSDOF 6
ENDMDL
MODEL 2
REMARK VINA RESULT: -8.137610620      2.510      4.541
REMARK  6 active torsions:
REMARK  status: ('A' for Active; 'I' for Inactive)
REMARK    1  A    between atoms: C2_2  and  C3_3 
REMARK    2  A    between atoms: C5_12  and  C6_13 
REMARK    3  A    between atoms: C10_20  and  C11_21 
REMARK    4  A    between atoms: C14_28  and  O1_29 
REMARK    5  A    between atoms: O1_29  and  C15_30 
REMARK    6  A    between atoms: C15_30  and  C16_31 
ROOT
HETATM    1  C6  UNL     1      23.453  24.421 -15.879  1.00  0.00     0.078 A 
HETATM    2  N4  UNL     1      23.408  23.959 -14.620  1.00  0.00    -0.329 N 
ATOM      3  H4  UNL     1      23.863  24.377 -13.809  1.00  0.00     0.168 HD
HETATM    4  C7  UNL     1      22.645  22.831 -14.624  1.00  0.00     0.201 A 
HETATM    5  F1  UNL     1      22.377  22.088 -13.527  1.00  0.00    -0.185 F 
HETATM    6  C8  UNL     1      22.190  22.552 -15.879  1.00  0.00     0.050 A 
HETATM    7  C9  UNL     1      21.382  21.541 -16.412  1.00  0.00     0.032 A 
HETATM    8  C10 UNL     1      21.064  21.508 -17.743  1.00  0.00    -0.005 A 
HETATM    9  C19 UNL     1      21.584  22.524 -18.517  1.00  0.00     0.101 A 
HETATM   10  N7  UNL     1      22.358  23.480 -17.979  1.00  0.00    -0.362 N 
ATOM     11  H7  UNL     1      22.713  24.203 -18.606  1.00  0.00     0.165 HD
HETATM   12  C20 UNL     1      22.702  23.563 -16.687  1.00  0.00     0.075 A 
ENDROOT
BRANCH   8  13
HETATM   13  C11 UNL     1      20.233  20.506 -18.395  1.00  0.00     0.029 A 
HETATM   14  C12 UNL     1      20.828  19.377 -18.911  1.00  0.00     0.035 A 
HETATM   15  C13 UNL     1      20.059  18.421 -19.529  1.00  0.00     0.108 A 
HETATM   16  N5  UNL     1      18.730  18.596 -19.626  1.00  0.00    -0.310 N 
HETATM   17  N6  UNL     1      18.170  19.682 -19.127  1.00  0.00    -0.280 N 
ATOM     18  H5  UNL     1      18.154  17.890 -20.085  1.00  0.00     0.186 HD
HETATM   19  C14 UNL     1      18.868  20.644 -18.516  1.00  0.00     0.168 A 
ATOM     20  H6  UNL     1      17.159  19.791 -19.211  1.00  0.00     0.189 HD
BRANCH  19  21
HETATM   21  O1  UNL     1      18.302  21.793 -17.986  1.00  0.00    -0.334 OA
BRANCH  21  22
HETATM   22  C15 UNL     1      17.921  22.915 -18.748  1.00  0.00     0.185 C 
BRANCH  22  23
HETATM   23  C16 UNL     1      16.635  23.529 -18.305  1.00  0.00     0.047 A 
HETATM   24  C17 UNL     1      16.229  24.835 -18.962  1.00  0.00     0.047 A 
HETATM   25  C18 UNL     1      15.529  23.565 -19.334  1.00  0.00     0.176 A 
HETATM   26  F2  UNL     1      14.222  23.420 -18.924  1.00  0.00    -0.249 F 
ENDBRANCH  22  23
ENDBRANCH  21  22
ENDBRANCH  19  21
ENDBRANCH   8  13
BRANCH   1  27
HETATM   27  C5  UNL     1      24.111  25.667 -16.355  1.00  0.00     0.062 A 
HETATM   28  C3  UNL     1      25.267  25.732 -17.135  1.00  0.00     0.042 A 
HETATM   29  N1  UNL     1      25.457  27.063 -17.359  1.00  0.00    -0.302 N 
HETATM   30  N2  UNL     1      24.558  27.796 -16.809  1.00  0.00    -0.285 N 
ATOM     31  H1  UNL     1      26.233  27.438 -17.906  1.00  0.00     0.186 HD
HETATM   32  C4  UNL     1      23.696  26.968 -16.172  1.00  0.00     0.128 A 
ATOM     33  H2  UNL     1      24.502  28.813 -16.846  1.00  0.00     0.188 HD
HETATM   34  N3  UNL     1      22.672  27.415 -15.546  1.00  0.00    -0.384 N 
ATOM     35  H32 UNL     1      22.365  28.379 -15.411  1.00  0.00     0.157 HD
ATOM     36  H31 UNL     1      22.022  26.792 -15.066  1.00  0.00     0.157 HD
BRANCH  28  37
HETATM   37  C2  UNL     1      26.142  24.667 -17.636  1.00  0.00     0.055 C 
HETATM   38  C1  UNL     1      25.786  24.196 -19.040  1.00  0.00     0.011 C 
ENDBRANCH  28  37
ENDBRANCH   1  27
TORSDOF 6
ENDMDL
MODEL 3
REMARK VINA RESULT: -8.093975139      2.306      3.943
REMARK  6 active torsions:
REMARK  status: ('A' for Active; 'I' for Inactive)
REMARK    1  A    between atoms: C2_2  and  C3_3 
REMARK    2  A    between atoms: C5_12  and  C6_13 
REMARK    3  A    between atoms: C10_20  and  C11_21 
REMARK    4  A    between atoms: C14_28  and  O1_29 
REMARK    5  A    between atoms: O1_29  and  C15_30 
REMARK    6  A    between atoms: C15_30  and  C16_31 
ROOT
HETATM    1  C6  UNL     1      23.462  24.449 -15.890  1.00  0.00     0.078 A 
HETATM    2  N4  UNL     1      23.420  23.984 -14.632  1.00  0.00    -0.329 N 
ATOM      3  H4  UNL     1      23.886  24.393 -13.822  1.00  0.00     0.168 HD
HETATM    4  C7  UNL     1      22.642  22.866 -14.634  1.00  0.00     0.201 A 
HETATM    5  F1  UNL     1      22.372  22.124 -13.537  1.00  0.00    -0.185 F 
HETATM    6  C8  UNL     1      22.175  22.597 -15.887  1.00  0.00     0.050 A 
HETATM    7  C9  UNL     1      21.350  21.598 -16.417  1.00  0.00     0.032 A 
HETATM    8  C10 UNL     1      21.022  21.574 -17.746  1.00  0.00    -0.005 A 
HETATM    9  C19 UNL     1      21.550  22.585 -18.520  1.00  0.00     0.101 A 
HETATM   10  N7  UNL     1      22.340  23.529 -17.985  1.00  0.00    -0.362 N 
ATOM     11  H7  UNL     1      22.700  24.249 -18.613  1.00  0.00     0.165 HD
HETATM   12  C20 UNL     1      22.694  23.604 -16.695  1.00  0.00     0.075 A 
ENDROOT
BRANCH   8  13
HETATM   13  C11 UNL     1      20.174  20.584 -18.395  1.00  0.00     0.029 A 
HETATM   14  C12 UNL     1      20.760  19.504 -19.014  1.00  0.00     0.035 A 
HETATM   15  C13 UNL     1      19.974  18.561 -19.632  1.00  0.00     0.108 A 
HETATM   16  N5  UNL     1      18.637  18.701 -19.626  1.00  0.00    -0.310 N 
HETATM   17  N6  UNL     1      18.086  19.740 -19.028  1.00  0.00    -0.280 N 
ATOM     18  H5  UNL     1      18.049  18.004 -20.084  1.00  0.00     0.186 HD
HETATM   19  C14 UNL     1      18.800  20.688 -18.413  1.00  0.00     0.168 A 
ATOM     20  H6  UNL     1      17.069  19.824 -19.036  1.00  0.00     0.189 HD
BRANCH  19  21
HETATM   21  O1  UNL     1      18.243  21.788 -17.781  1.00  0.00    -0.334 OA
BRANCH  21  22
HETATM   22  C15 UNL     1      17.578  22.836 -18.448  1.00  0.00     0.185 C 
BRANCH  22  23
HETATM   23  C16 UNL     1      18.299  24.140 -18.380  1.00  0.00     0.047 A 
HETATM   24  C17 UNL     1      17.596  25.283 -17.673  1.00  0.00     0.047 A 
HETATM   25  C18 UNL     1      18.737  24.583 -17.004  1.00  0.00     0.176 A 
HETATM   26  F2  UNL     1      19.915  25.285 -16.865  1.00  0.00    -0.249 F 
ENDBRANCH  22  23
ENDBRANCH  21  22
ENDBRANCH  19  21
ENDBRANCH   8  13
BRANCH   1  27
HETATM   27  C5  UNL     1      24.133  25.688 -16.367  1.00  0.00     0.062 A 
HETATM   28  C3  UNL     1      25.286  25.739 -17.153  1.00  0.00     0.042 A 
HETATM   29  N1  UNL     1      25.492  27.069 -17.375  1.00  0.00    -0.302 N 
HETATM   30  N2  UNL     1      24.605  27.812 -16.819  1.00  0.00    -0.285 N 
ATOM     31  H1  UNL     1      26.269  27.435 -17.926  1.00  0.00     0.186 HD
HETATM   32  C4  UNL     1      23.736  26.993 -16.178  1.00  0.00     0.128 A 
ATOM     33  H2  UNL     1      24.562  28.830 -16.853  1.00  0.00     0.188 HD
HETATM   34  N3  UNL     1      22.721  27.452 -15.545  1.00  0.00    -0.384 N 
ATOM     35  H32 UNL     1      22.427  28.419 -15.406  1.00  0.00     0.157 HD
ATOM     36  H31 UNL     1      22.067  26.836 -15.063  1.00  0.00     0.157 HD
BRANCH  28  37
HETATM   37  C2  UNL     1      26.144  24.665 -17.662  1.00  0.00     0.055 C 
HETATM   38  C1  UNL     1      25.757  24.183 -19.054  1.00  0.00     0.011 C 
ENDBRANCH  28  37
ENDBRANCH   1  27
TORSDOF 6
ENDMDL
MODEL 4
REMARK VINA RESULT: -7.945836153      5.504      7.763
REMARK  6 active torsions:
REMARK  status: ('A' for Active; 'I' for Inactive)
REMARK    1  A    between atoms: C2_2  and  C3_3 
REMARK    2  A    between atoms: C5_12  and  C6_13 
REMARK    3  A    between atoms: C10_20  and  C11_21 
REMARK    4  A    between atoms: C14_28  and  O1_29 
REMARK    5  A    between atoms: O1_29  and  C15_30 
REMARK    6  A    between atoms: C15_30  and  C16_31 
ROOT
HETATM    1  C6  UNL     1      17.651  25.071 -12.662  1.00  0.00     0.078 A 
HETATM    2  N4  UNL     1      17.490  26.132 -13.469  1.00  0.00    -0.329 N 
ATOM      3  H4  UNL     1      17.051  27.018 -13.219  1.00  0.00     0.168 HD
HETATM    4  C7  UNL     1      18.019  25.809 -14.681  1.00  0.00     0.201 A 
HETATM    5  F1  UNL     1      18.038  26.637 -15.750  1.00  0.00    -0.185 F 
HETATM    6  C8  UNL     1      18.526  24.543 -14.673  1.00  0.00     0.050 A 
HETATM    7  C9  UNL     1      19.170  23.753 -15.632  1.00  0.00     0.032 A 
HETATM    8  C10 UNL     1      19.598  22.485 -15.343  1.00  0.00    -0.005 A 
HETATM    9  C19 UNL     1      19.356  22.041 -14.060  1.00  0.00     0.101 A 
HETATM   10  N7  UNL     1      18.734  22.819 -13.161  1.00  0.00    -0.362 N 
ATOM     11  H7  UNL     1      18.584  22.431 -12.230  1.00  0.00     0.165 HD
HETATM   12  C20 UNL     1      18.294  24.065 -13.386  1.00  0.00     0.075 A 
ENDROOT
BRANCH   8  13
HETATM   13  C11 UNL     1      20.277  21.585 -16.264  1.00  0.00     0.029 A 
HETATM   14  C12 UNL     1      21.598  21.272 -16.042  1.00  0.00     0.035 A 
HETATM   15  C13 UNL     1      22.254  20.424 -16.902  1.00  0.00     0.108 A 
HETATM   16  N5  UNL     1      21.598  19.906 -17.955  1.00  0.00    -0.310 N 
HETATM   17  N6  UNL     1      20.331  20.212 -18.158  1.00  0.00    -0.280 N 
ATOM     18  H5  UNL     1      22.080  19.277 -18.597  1.00  0.00     0.186 HD
HETATM   19  C14 UNL     1      19.643  21.031 -17.355  1.00  0.00     0.168 A 
ATOM     20  H6  UNL     1      19.854  19.805 -18.963  1.00  0.00     0.189 HD
BRANCH  19  21
HETATM   21  O1  UNL     1      18.313  21.367 -17.549  1.00  0.00    -0.334 OA
BRANCH  21  22
HETATM   22  C15 UNL     1      17.831  22.097 -18.654  1.00  0.00     0.185 C 
BRANCH  22  23
HETATM   23  C16 UNL     1      16.789  23.103 -18.297  1.00  0.00     0.047 A 
HETATM   24  C17 UNL     1      16.806  24.417 -19.055  1.00  0.00     0.047 A 
HETATM   25  C18 UNL     1      15.757  23.394 -19.362  1.00  0.00     0.176 A 
HETATM   26  F2  UNL     1      14.463  23.683 -18.986  1.00  0.00    -0.249 F 
ENDBRANCH  22  23
ENDBRANCH  21  22
ENDBRANCH  19  21
ENDBRANCH   8  13
BRANCH   1  27
HETATM   27  C5  UNL     1      17.292  24.977 -11.222  1.00  0.00     0.062 A 
HETATM   28  C3  UNL     1      17.861  25.723 -10.189  1.00  0.00     0.042 A 
HETATM   29  N1  UNL     1      17.187  25.333  -9.070  1.00  0.00    -0.302 N 
HETATM   30  N2  UNL     1      16.288  24.448  -9.311  1.00  0.00    -0.285 N 
ATOM     31  H1  UNL     1      17.376  25.705  -8.139  1.00  0.00     0.186 HD
HETATM   32  C4  UNL     1      16.317  24.195 -10.641  1.00  0.00     0.128 A 
ATOM     33  H2  UNL     1      15.667  24.016  -8.628  1.00  0.00     0.188 HD
HETATM   34  N3  UNL     1      15.510  23.363 -11.186  1.00  0.00    -0.384 N 
ATOM     35  H32 UNL     1      14.788  22.784 -10.755  1.00  0.00     0.157 HD
ATOM     36  H31 UNL     1      15.531  23.172 -12.188  1.00  0.00     0.157 HD
BRANCH  28  37
HETATM   37  C2  UNL     1      18.943  26.714 -10.209  1.00  0.00     0.055 C 
HETATM   38  C1  UNL     1      18.472  28.122 -10.548  1.00  0.00     0.011 C 
ENDBRANCH  28  37
ENDBRANCH   1  27
TORSDOF 6
ENDMDL
MODEL 5
REMARK VINA RESULT: -7.943576971      4.363      8.177
REMARK  6 active torsions:
REMARK  status: ('A' for Active; 'I' for Inactive)
REMARK    1  A    between atoms: C2_2  and  C3_3 
REMARK    2  A    between atoms: C5_12  and  C6_13 
REMARK    3  A    between atoms: C10_20  and  C11_21 
REMARK    4  A    between atoms: C14_28  and  O1_29 
REMARK    5  A    between atoms: O1_29  and  C15_30 
REMARK    6  A    between atoms: C15_30  and  C16_31 
ROOT
HETATM    1  C6  UNL     1      21.469  21.694 -16.027  1.00  0.00     0.078 A 
HETATM    2  N4  UNL     1      22.519  22.515 -16.180  1.00  0.00    -0.329 N 
ATOM      3  H4  UNL     1      23.080  22.625 -17.025  1.00  0.00     0.168 HD
HETATM    4  C7  UNL     1      22.699  23.176 -15.003  1.00  0.00     0.201 A 
HETATM    5  F1  UNL     1      23.669  24.091 -14.783  1.00  0.00    -0.185 F 
HETATM    6  C8  UNL     1      21.772  22.791 -14.079  1.00  0.00     0.050 A 
HETATM    7  C9  UNL     1      21.518  23.160 -12.754  1.00  0.00     0.032 A 
HETATM    8  C10 UNL     1      20.484  22.608 -12.044  1.00  0.00    -0.005 A 
HETATM    9  C19 UNL     1      19.720  21.676 -12.712  1.00  0.00     0.101 A 
HETATM   10  N7  UNL     1      19.988  21.339 -13.983  1.00  0.00    -0.362 N 
ATOM     11  H7  UNL     1      19.385  20.641 -14.420  1.00  0.00     0.165 HD
HETATM   12  C20 UNL     1      20.983  21.844 -14.726  1.00  0.00     0.075 A 
ENDROOT
BRANCH   8  13
HETATM   13  C11 UNL     1      20.134  22.923 -10.667  1.00  0.00     0.029 A 
HETATM   14  C12 UNL     1      21.083  22.764  -9.683  1.00  0.00     0.035 A 
HETATM   15  C13 UNL     1      20.769  23.056  -8.377  1.00  0.00     0.108 A 
HETATM   16  N5  UNL     1      19.536  23.497  -8.071  1.00  0.00    -0.310 N 
HETATM   17  N6  UNL     1      18.635  23.647  -9.023  1.00  0.00    -0.280 N 
ATOM     18  H5  UNL     1      19.297  23.714  -7.103  1.00  0.00     0.186 HD
HETATM   19  C14 UNL     1      18.884  23.378 -10.309  1.00  0.00     0.168 A 
ATOM     20  H6  UNL     1      17.707  23.984  -8.767  1.00  0.00     0.189 HD
BRANCH  19  21
HETATM   21  O1  UNL     1      17.953  23.526 -11.324  1.00  0.00    -0.334 OA
BRANCH  21  22
HETATM   22  C15 UNL     1      17.465  24.767 -11.780  1.00  0.00     0.185 C 
BRANCH  22  23
HETATM   23  C16 UNL     1      17.410  24.878 -13.267  1.00  0.00     0.047 A 
HETATM   24  C17 UNL     1      17.729  26.232 -13.873  1.00  0.00     0.047 A 
HETATM   25  C18 UNL     1      18.730  25.122 -13.962  1.00  0.00     0.176 A 
HETATM   26  F2  UNL     1      18.950  24.568 -15.204  1.00  0.00    -0.249 F 
ENDBRANCH  22  23
ENDBRANCH  21  22
ENDBRANCH  19  21
ENDBRANCH   8  13
BRANCH   1  27
HETATM   27  C5  UNL     1      20.854  20.821 -17.062  1.00  0.00     0.062 A 
HETATM   28  C3  UNL     1      19.613  21.025 -17.668  1.00  0.00     0.042 A 
HETATM   29  N1  UNL     1      19.500  20.010 -18.573  1.00  0.00    -0.302 N 
HETATM   30  N2  UNL     1      20.520  19.231 -18.578  1.00  0.00    -0.285 N 
ATOM     31  H1  UNL     1      18.691  19.885 -19.181  1.00  0.00     0.186 HD
HETATM   32  C4  UNL     1      21.391  19.698 -17.651  1.00  0.00     0.128 A 
ATOM     33  H2  UNL     1      20.651  18.412 -19.170  1.00  0.00     0.188 HD
HETATM   34  N3  UNL     1      22.522  19.132 -17.445  1.00  0.00    -0.384 N 
ATOM     35  H32 UNL     1      22.919  18.300 -17.882  1.00  0.00     0.157 HD
ATOM     36  H31 UNL     1      23.178  19.483 -16.747  1.00  0.00     0.157 HD
BRANCH  28  37
HETATM   37  C2  UNL     1      18.597  22.058 -17.442  1.00  0.00     0.055 C 
HETATM   38  C1  UNL     1      17.868  22.484 -18.709  1.00  0.00     0.011 C 
ENDBRANCH  28  37
ENDBRANCH   1  27
TORSDOF 6
ENDMDL
