MODEL 1
REMARK VINA RESULT: -8.342404801      0.000      0.000
REMARK  16 active torsions:
REMARK  status: ('A' for Active; 'I' for Inactive)
REMARK    1  A    between atoms: C2_2  and  N1_3 
REMARK    2  A    between atoms: C3_4  and  O1_5 
REMARK    3  A    between atoms: C4_7  and  C5_8 
REMARK    4  A    between atoms: C7_10  and  C8_11 
REMARK    5  A    between atoms: C8_11  and  C9_12 
REMARK    6  A    between atoms: C9_12  and  C10_13 
REMARK    7  A    between atoms: C10_13  and  N2_14 
REMARK    8  A    between atoms: N2_14  and  C11_17 
REMARK    9  A    between atoms: C11_17  and  C13_19 
REMARK   10  A    between atoms: C13_19  and  C14_20 
REMARK   11  A    between atoms: C14_20  and  C15_21 
REMARK   12  A    between atoms: C15_21  and  C16_22 
REMARK   13  A    between atoms: C16_22  and  C17_23 
REMARK   14  A    between atoms: C17_23  and  O3_25 
REMARK   15  A    between atoms: O3_25  and  C18_26 
REMARK   16  A    between atoms: N3_41  and  C32_42 
ROOT
HETATM    1  N2  UNL     1      22.950  48.256   0.932  1.00  0.00    -0.068 N 
ATOM      2  H21 UNL     1      22.447  48.993   0.438  1.00  0.00     0.277 HD
ATOM      3  H22 UNL     1      23.902  48.578   0.760  1.00  0.00     0.277 HD
ENDROOT
BRANCH   1   4
HETATM    4  C10 UNL     1      22.708  46.951   0.343  1.00  0.00     0.233 C 
BRANCH   4   5
HETATM    5  C9  UNL     1      21.934  47.020  -0.926  1.00  0.00     0.031 C 
BRANCH   5   6
HETATM    6  C8  UNL     1      20.456  46.875  -0.788  1.00  0.00     0.029 C 
BRANCH   6   7
HETATM    7  C7  UNL     1      19.887  46.071  -1.906  1.00  0.00    -0.019 C 
HETATM    8  C5  UNL     1      19.390  46.517  -3.020  1.00  0.00    -0.046 C 
HETATM    9  C6  UNL     1      19.298  48.008  -3.164  1.00  0.00     0.049 C 
BRANCH   8  10
HETATM   10  C4  UNL     1      18.858  45.662  -4.055  1.00  0.00     0.089 A 
HETATM   11  C3  UNL     1      17.477  45.409  -4.091  1.00  0.00     0.161 A 
HETATM   12  N1  UNL     1      16.921  44.555  -4.999  1.00  0.00    -0.304 N 
HETATM   13  C34 UNL     1      17.696  43.924  -5.897  1.00  0.00     0.185 A 
HETATM   14  N3  UNL     1      19.016  44.125  -5.911  1.00  0.00    -0.290 N 
HETATM   15  S1  UNL     1      16.990  42.913  -6.962  1.00  0.00    -0.040 SA
HETATM   16  C31 UNL     1      19.588  44.984  -4.999  1.00  0.00     0.264 A 
HETATM   17  O4  UNL     1      20.830  45.131  -5.055  1.00  0.00    -0.267 OA
BRANCH  11  18
HETATM   18  O1  UNL     1      16.655  46.044  -3.190  1.00  0.00    -0.345 OA
ATOM     19  H1  UNL     1      16.778  45.878  -2.262  1.00  0.00     0.219 HD
ENDBRANCH  11  18
BRANCH  12  20
HETATM   20  C2  UNL     1      15.484  44.306  -5.022  1.00  0.00     0.129 C 
HETATM   21  C1  UNL     1      14.714  45.469  -5.594  1.00  0.00     0.027 C 
ENDBRANCH  12  20
BRANCH  14  22
HETATM   22  C32 UNL     1      19.880  43.463  -6.866  1.00  0.00     0.130 C 
HETATM   23  C33 UNL     1      20.491  42.198  -6.304  1.00  0.00     0.027 C 
ENDBRANCH  14  22
ENDBRANCH   8  10
ENDBRANCH   6   7
ENDBRANCH   5   6
ENDBRANCH   4   5
ENDBRANCH   1   4
BRANCH   1  24
HETATM   24  C11 UNL     1      22.630  48.243   2.358  1.00  0.00     0.204 C 
HETATM   25  C12 UNL     1      21.306  48.915   2.578  1.00  0.00     0.044 C 
BRANCH  24  26
HETATM   26  C13 UNL     1      23.660  48.892   3.161  1.00  0.00     0.005 C 
BRANCH  26  27
HETATM   27  C14 UNL     1      23.456  50.063   3.753  1.00  0.00    -0.002 C 
BRANCH  27  28
HETATM   28  C15 UNL     1      24.479  51.088   3.718  1.00  0.00     0.006 C 
BRANCH  28  29
HETATM   29  C16 UNL     1      25.674  50.874   3.265  1.00  0.00     0.082 C 
BRANCH  29  30
HETATM   30  C17 UNL     1      26.425  51.615   2.295  1.00  0.00     0.283 C 
HETATM   31  O2  UNL     1      27.189  52.584   2.488  1.00  0.00    -0.260 OA
BRANCH  30  32
HETATM   32  O3  UNL     1      26.326  51.251   0.945  1.00  0.00    -0.313 OA
BRANCH  32  33
HETATM   33  C18 UNL     1      27.405  50.704   0.213  1.00  0.00     0.133 C 
HETATM   34  C19 UNL     1      27.131  49.327  -0.291  1.00  0.00     0.033 C 
HETATM   35  C20 UNL     1      28.380  48.816  -0.964  1.00  0.00     0.012 C 
HETATM   36  C21 UNL     1      28.772  49.647  -2.164  1.00  0.00    -0.036 C 
HETATM   37  C22 UNL     1      28.364  48.861  -3.395  1.00  0.00     0.016 C 
HETATM   38  C23 UNL     1      30.279  49.735  -2.201  1.00  0.00     0.010 C 
HETATM   39  C28 UNL     1      28.080  50.967  -2.212  1.00  0.00    -0.031 C 
HETATM   40  C24 UNL     1      30.836  51.016  -1.679  1.00  0.00     0.001 C 
HETATM   41  C25 UNL     1      30.260  52.231  -2.352  1.00  0.00     0.005 C 
HETATM   42  C26 UNL     1      28.956  51.934  -3.023  1.00  0.00    -0.010 C 
HETATM   43  C27 UNL     1      28.197  53.241  -3.151  1.00  0.00     0.011 C 
HETATM   44  C29 UNL     1      26.772  50.877  -2.970  1.00  0.00     0.016 C 
HETATM   45  C30 UNL     1      27.860  51.612  -0.892  1.00  0.00     0.042 C 
ENDBRANCH  32  33
ENDBRANCH  30  32
ENDBRANCH  29  30
ENDBRANCH  28  29
ENDBRANCH  27  28
ENDBRANCH  26  27
ENDBRANCH  24  26
ENDBRANCH   1  24
TORSDOF 16
ENDMDL
MODEL 2
REMARK VINA RESULT: -8.326267846      5.006     12.886
REMARK  16 active torsions:
REMARK  status: ('A' for Active; 'I' for Inactive)
REMARK    1  A    between atoms: C2_2  and  N1_3 
REMARK    2  A    between atoms: C3_4  and  O1_5 
REMARK    3  A    between atoms: C4_7  and  C5_8 
REMARK    4  A    between atoms: C7_10  and  C8_11 
REMARK    5  A    between atoms: C8_11  and  C9_12 
REMARK    6  A    between atoms: C9_12  and  C10_13 
REMARK    7  A    between atoms: C10_13  and  N2_14 
REMARK    8  A    between atoms: N2_14  and  C11_17 
REMARK    9  A    between atoms: C11_17  and  C13_19 
REMARK   10  A    between atoms: C13_19  and  C14_20 
REMARK   11  A    between atoms: C14_20  and  C15_21 
REMARK   12  A    between atoms: C15_21  and  C16_22 
REMARK   13  A    between atoms: C16_22  and  C17_23 
REMARK   14  A    between atoms: C17_23  and  O3_25 
REMARK   15  A    between atoms: O3_25  and  C18_26 
REMARK   16  A    between atoms: N3_41  and  C32_42 
ROOT
HETATM    1  N2  UNL     1      22.280  48.234   1.712  1.00  0.00    -0.068 N 
ATOM      2  H21 UNL     1      21.841  49.107   1.419  1.00  0.00     0.277 HD
ATOM      3  H22 UNL     1      21.436  47.707   1.938  1.00  0.00     0.277 HD
ENDROOT
BRANCH   1   4
HETATM    4  C10 UNL     1      23.125  48.421   2.878  1.00  0.00     0.233 C 
BRANCH   4   5
HETATM    5  C9  UNL     1      23.194  49.839   3.324  1.00  0.00     0.031 C 
BRANCH   5   6
HETATM    6  C8  UNL     1      24.539  50.479   3.229  1.00  0.00     0.029 C 
BRANCH   6   7
HETATM    7  C7  UNL     1      24.498  51.890   3.705  1.00  0.00    -0.019 C 
HETATM    8  C5  UNL     1      25.254  52.872   3.316  1.00  0.00    -0.046 C 
HETATM    9  C6  UNL     1      26.345  52.533   2.343  1.00  0.00     0.049 C 
BRANCH   8  10
HETATM   10  C4  UNL     1      25.145  54.216   3.831  1.00  0.00     0.089 A 
HETATM   11  C3  UNL     1      25.853  54.563   4.994  1.00  0.00     0.161 A 
HETATM   12  N1  UNL     1      25.737  55.793   5.572  1.00  0.00    -0.304 N 
HETATM   13  C34 UNL     1      24.929  56.721   5.033  1.00  0.00     0.185 A 
HETATM   14  N3  UNL     1      24.231  56.450   3.928  1.00  0.00    -0.290 N 
HETATM   15  S1  UNL     1      24.822  58.177   5.757  1.00  0.00    -0.040 SA
HETATM   16  C31 UNL     1      24.339  55.211   3.336  1.00  0.00     0.264 A 
HETATM   17  O4  UNL     1      23.659  55.009   2.304  1.00  0.00    -0.267 OA
BRANCH  11  18
HETATM   18  O1  UNL     1      26.693  53.637   5.567  1.00  0.00    -0.345 OA
ATOM     19  H1  UNL     1      26.314  52.906   6.042  1.00  0.00     0.219 HD
ENDBRANCH  11  18
BRANCH  12  20
HETATM   20  C2  UNL     1      26.481  56.135   6.779  1.00  0.00     0.129 C 
HETATM   21  C1  UNL     1      27.841  56.706   6.467  1.00  0.00     0.027 C 
ENDBRANCH  12  20
BRANCH  14  22
HETATM   22  C32 UNL     1      23.353  57.427   3.319  1.00  0.00     0.130 C 
HETATM   23  C33 UNL     1      21.930  57.308   3.820  1.00  0.00     0.027 C 
ENDBRANCH  14  22
ENDBRANCH   8  10
ENDBRANCH   6   7
ENDBRANCH   5   6
ENDBRANCH   4   5
ENDBRANCH   1   4
BRANCH   1  24
HETATM   24  C11 UNL     1      23.034  47.613   0.625  1.00  0.00     0.204 C 
HETATM   25  C12 UNL     1      23.952  48.629   0.011  1.00  0.00     0.044 C 
BRANCH  24  26
HETATM   26  C13 UNL     1      22.163  47.044  -0.397  1.00  0.00     0.005 C 
BRANCH  26  27
HETATM   27  C14 UNL     1      20.849  47.232  -0.385  1.00  0.00    -0.002 C 
BRANCH  27  28
HETATM   28  C15 UNL     1      19.950  46.099  -0.307  1.00  0.00     0.006 C 
BRANCH  28  29
HETATM   29  C16 UNL     1      19.263  45.674  -1.320  1.00  0.00     0.082 C 
BRANCH  29  30
HETATM   30  C17 UNL     1      18.709  46.412  -2.416  1.00  0.00     0.283 C 
HETATM   31  O2  UNL     1      17.583  46.947  -2.495  1.00  0.00    -0.260 OA
BRANCH  30  32
HETATM   32  O3  UNL     1      19.485  46.586  -3.571  1.00  0.00    -0.313 OA
BRANCH  32  33
HETATM   33  C18 UNL     1      19.749  45.541  -4.488  1.00  0.00     0.133 C 
HETATM   34  C19 UNL     1      20.735  44.547  -3.973  1.00  0.00     0.033 C 
HETATM   35  C20 UNL     1      21.006  43.546  -5.067  1.00  0.00     0.012 C 
HETATM   36  C21 UNL     1      19.772  42.769  -5.461  1.00  0.00    -0.036 C 
HETATM   37  C22 UNL     1      19.898  41.395  -4.831  1.00  0.00     0.016 C 
HETATM   38  C23 UNL     1      19.810  42.553  -6.954  1.00  0.00     0.010 C 
HETATM   39  C28 UNL     1      18.508  43.387  -4.964  1.00  0.00    -0.031 C 
HETATM   40  C24 UNL     1      18.943  43.481  -7.737  1.00  0.00     0.001 C 
HETATM   41  C25 UNL     1      17.510  43.479  -7.280  1.00  0.00     0.005 C 
HETATM   42  C26 UNL     1      17.366  42.944  -5.890  1.00  0.00    -0.010 C 
HETATM   43  C27 UNL     1      16.074  43.496  -5.318  1.00  0.00     0.011 C 
HETATM   44  C29 UNL     1      18.140  42.864  -3.592  1.00  0.00     0.016 C 
HETATM   45  C30 UNL     1      18.492  44.873  -4.963  1.00  0.00     0.042 C 
ENDBRANCH  32  33
ENDBRANCH  30  32
ENDBRANCH  29  30
ENDBRANCH  28  29
ENDBRANCH  27  28
ENDBRANCH  26  27
ENDBRANCH  24  26
ENDBRANCH   1  24
TORSDOF 16
ENDMDL
MODEL 3
REMARK VINA RESULT: -8.278096708      3.706      5.595
REMARK  16 active torsions:
REMARK  status: ('A' for Active; 'I' for Inactive)
REMARK    1  A    between atoms: C2_2  and  N1_3 
REMARK    2  A    between atoms: C3_4  and  O1_5 
REMARK    3  A    between atoms: C4_7  and  C5_8 
REMARK    4  A    between atoms: C7_10  and  C8_11 
REMARK    5  A    between atoms: C8_11  and  C9_12 
REMARK    6  A    between atoms: C9_12  and  C10_13 
REMARK    7  A    between atoms: C10_13  and  N2_14 
REMARK    8  A    between atoms: N2_14  and  C11_17 
REMARK    9  A    between atoms: C11_17  and  C13_19 
REMARK   10  A    between atoms: C13_19  and  C14_20 
REMARK   11  A    between atoms: C14_20  and  C15_21 
REMARK   12  A    between atoms: C15_21  and  C16_22 
REMARK   13  A    between atoms: C16_22  and  C17_23 
REMARK   14  A    between atoms: C17_23  and  O3_25 
REMARK   15  A    between atoms: O3_25  and  C18_26 
REMARK   16  A    between atoms: N3_41  and  C32_42 
ROOT
HETATM    1  N2  UNL     1      19.810  47.867  -1.507  1.00  0.00    -0.068 N 
ATOM      2  H21 UNL     1      18.968  48.062  -0.965  1.00  0.00     0.277 HD
ATOM      3  H22 UNL     1      20.412  48.595  -1.122  1.00  0.00     0.277 HD
ENDROOT
BRANCH   1   4
HETATM    4  C10 UNL     1      19.588  48.048  -2.930  1.00  0.00     0.233 C 
BRANCH   4   5
HETATM    5  C9  UNL     1      18.262  48.646  -3.241  1.00  0.00     0.031 C 
BRANCH   5   6
HETATM    6  C8  UNL     1      17.152  47.673  -3.462  1.00  0.00     0.029 C 
BRANCH   6   7
HETATM    7  C7  UNL     1      17.553  46.610  -4.425  1.00  0.00    -0.019 C 
HETATM    8  C5  UNL     1      17.174  45.368  -4.425  1.00  0.00    -0.046 C 
HETATM    9  C6  UNL     1      16.302  44.933  -3.283  1.00  0.00     0.049 C 
BRANCH   8  10
HETATM   10  C4  UNL     1      17.613  44.399  -5.402  1.00  0.00     0.089 A 
HETATM   11  C3  UNL     1      16.761  44.068  -6.469  1.00  0.00     0.161 A 
HETATM   12  N1  UNL     1      17.086  43.109  -7.384  1.00  0.00    -0.304 N 
HETATM   13  C34 UNL     1      18.251  42.448  -7.285  1.00  0.00     0.185 A 
HETATM   14  N3  UNL     1      19.102  42.720  -6.293  1.00  0.00    -0.290 N 
HETATM   15  S1  UNL     1      18.598  41.312  -8.401  1.00  0.00    -0.040 SA
HETATM   16  C31 UNL     1      18.784  43.685  -5.363  1.00  0.00     0.264 A 
HETATM   17  O4  UNL     1      19.616  43.895  -4.452  1.00  0.00    -0.267 OA
BRANCH  11  18
HETATM   18  O1  UNL     1      15.564  44.732  -6.601  1.00  0.00    -0.345 OA
ATOM     19  H1  UNL     1      15.168  45.121  -5.829  1.00  0.00     0.219 HD
ENDBRANCH  11  18
BRANCH  12  20
HETATM   20  C2  UNL     1      16.189  42.780  -8.486  1.00  0.00     0.129 C 
HETATM   21  C1  UNL     1      16.337  43.733  -9.645  1.00  0.00     0.027 C 
ENDBRANCH  12  20
BRANCH  14  22
HETATM   22  C32 UNL     1      20.367  42.027  -6.159  1.00  0.00     0.130 C 
HETATM   23  C33 UNL     1      20.272  40.840  -5.225  1.00  0.00     0.027 C 
ENDBRANCH  14  22
ENDBRANCH   8  10
ENDBRANCH   6   7
ENDBRANCH   5   6
ENDBRANCH   4   5
ENDBRANCH   1   4
BRANCH   1  24
HETATM   24  C11 UNL     1      20.333  46.530  -1.234  1.00  0.00     0.204 C 
HETATM   25  C12 UNL     1      19.192  45.594  -0.959  1.00  0.00     0.044 C 
BRANCH  24  26
HETATM   26  C13 UNL     1      21.269  46.519  -0.116  1.00  0.00     0.005 C 
BRANCH  26  27
HETATM   27  C14 UNL     1      22.525  46.927  -0.247  1.00  0.00    -0.002 C 
BRANCH  27  28
HETATM   28  C15 UNL     1      23.023  48.027   0.552  1.00  0.00     0.006 C 
BRANCH  28  29
HETATM   29  C16 UNL     1      22.582  48.289   1.742  1.00  0.00     0.082 C 
BRANCH  29  30
HETATM   30  C17 UNL     1      23.251  48.922   2.840  1.00  0.00     0.283 C 
HETATM   31  O2  UNL     1      23.270  48.570   4.038  1.00  0.00    -0.260 OA
BRANCH  30  32
HETATM   32  O3  UNL     1      23.991  50.088   2.597  1.00  0.00    -0.313 OA
BRANCH  32  33
HETATM   33  C18 UNL     1      24.691  50.783   3.609  1.00  0.00     0.133 C 
HETATM   34  C19 UNL     1      26.097  51.109   3.230  1.00  0.00     0.033 C 
HETATM   35  C20 UNL     1      26.765  51.756   4.416  1.00  0.00     0.012 C 
HETATM   36  C21 UNL     1      26.110  53.058   4.812  1.00  0.00    -0.036 C 
HETATM   37  C22 UNL     1      27.006  54.173   4.307  1.00  0.00     0.016 C 
HETATM   38  C23 UNL     1      26.127  53.154   6.319  1.00  0.00     0.010 C 
HETATM   39  C28 UNL     1      24.760  53.243   4.203  1.00  0.00    -0.031 C 
HETATM   40  C24 UNL     1      24.834  52.807   6.976  1.00  0.00     0.001 C 
HETATM   41  C25 UNL     1      23.670  53.603   6.451  1.00  0.00     0.005 C 
HETATM   42  C26 UNL     1      23.957  54.191   5.105  1.00  0.00    -0.010 C 
HETATM   43  C27 UNL     1      22.625  54.450   4.425  1.00  0.00     0.011 C 
HETATM   44  C29 UNL     1      24.851  53.942   2.863  1.00  0.00     0.016 C 
HETATM   45  C30 UNL     1      23.952  52.003   4.076  1.00  0.00     0.042 C 
ENDBRANCH  32  33
ENDBRANCH  30  32
ENDBRANCH  29  30
ENDBRANCH  28  29
ENDBRANCH  27  28
ENDBRANCH  26  27
ENDBRANCH  24  26
ENDBRANCH   1  24
TORSDOF 16
ENDMDL
MODEL 4
REMARK VINA RESULT: -8.172568375      3.961      5.818
REMARK  16 active torsions:
REMARK  status: ('A' for Active; 'I' for Inactive)
REMARK    1  A    between atoms: C2_2  and  N1_3 
REMARK    2  A    between atoms: C3_4  and  O1_5 
REMARK    3  A    between atoms: C4_7  and  C5_8 
REMARK    4  A    between atoms: C7_10  and  C8_11 
REMARK    5  A    between atoms: C8_11  and  C9_12 
REMARK    6  A    between atoms: C9_12  and  C10_13 
REMARK    7  A    between atoms: C10_13  and  N2_14 
REMARK    8  A    between atoms: N2_14  and  C11_17 
REMARK    9  A    between atoms: C11_17  and  C13_19 
REMARK   10  A    between atoms: C13_19  and  C14_20 
REMARK   11  A    between atoms: C14_20  and  C15_21 
REMARK   12  A    between atoms: C15_21  and  C16_22 
REMARK   13  A    between atoms: C16_22  and  C17_23 
REMARK   14  A    between atoms: C17_23  and  O3_25 
REMARK   15  A    between atoms: O3_25  and  C18_26 
REMARK   16  A    between atoms: N3_41  and  C32_42 
ROOT
HETATM    1  N2  UNL     1      19.473  45.732  -1.623  1.00  0.00    -0.068 N 
ATOM      2  H21 UNL     1      20.061  45.028  -2.070  1.00  0.00     0.277 HD
ATOM      3  H22 UNL     1      18.720  45.122  -1.304  1.00  0.00     0.277 HD
ENDROOT
BRANCH   1   4
HETATM    4  C10 UNL     1      18.998  46.720  -2.575  1.00  0.00     0.233 C 
BRANCH   4   5
HETATM    5  C9  UNL     1      19.426  46.436  -3.971  1.00  0.00     0.031 C 
BRANCH   5   6
HETATM    6  C8  UNL     1      19.987  45.073  -4.209  1.00  0.00     0.029 C 
BRANCH   6   7
HETATM    7  C7  UNL     1      19.339  44.422  -5.381  1.00  0.00    -0.019 C 
HETATM    8  C5  UNL     1      18.896  43.203  -5.457  1.00  0.00    -0.046 C 
HETATM    9  C6  UNL     1      19.139  42.326  -4.263  1.00  0.00     0.049 C 
BRANCH   8  10
HETATM   10  C4  UNL     1      18.278  42.651  -6.639  1.00  0.00     0.089 A 
HETATM   11  C3  UNL     1      16.877  42.566  -6.702  1.00  0.00     0.161 A 
HETATM   12  N1  UNL     1      16.234  41.989  -7.759  1.00  0.00    -0.304 N 
HETATM   13  C34 UNL     1      16.938  41.481  -8.783  1.00  0.00     0.185 A 
HETATM   14  N3  UNL     1      18.272  41.533  -8.780  1.00  0.00    -0.290 N 
HETATM   15  S1  UNL     1      16.129  40.802 -10.024  1.00  0.00    -0.040 SA
HETATM   16  C31 UNL     1      18.932  42.112  -7.718  1.00  0.00     0.264 A 
HETATM   17  O4  UNL     1      20.183  42.129  -7.765  1.00  0.00    -0.267 OA
BRANCH  11  18
HETATM   18  O1  UNL     1      16.127  43.083  -5.672  1.00  0.00    -0.345 OA
ATOM     19  H1  UNL     1      16.376  42.879  -4.777  1.00  0.00     0.219 HD
ENDBRANCH  11  18
BRANCH  12  20
HETATM   20  C2  UNL     1      14.778  41.911  -7.808  1.00  0.00     0.129 C 
HETATM   21  C1  UNL     1      14.242  40.771  -6.980  1.00  0.00     0.027 C 
ENDBRANCH  12  20
BRANCH  14  22
HETATM   22  C32 UNL     1      19.062  40.997  -9.869  1.00  0.00     0.130 C 
HETATM   23  C33 UNL     1      19.413  39.540  -9.657  1.00  0.00     0.027 C 
ENDBRANCH  14  22
ENDBRANCH   8  10
ENDBRANCH   6   7
ENDBRANCH   5   6
ENDBRANCH   4   5
ENDBRANCH   1   4
BRANCH   1  24
HETATM   24  C11 UNL     1      20.157  46.381  -0.506  1.00  0.00     0.204 C 
HETATM   25  C12 UNL     1      19.222  47.351   0.155  1.00  0.00     0.044 C 
BRANCH  24  26
HETATM   26  C13 UNL     1      21.374  47.065  -0.925  1.00  0.00     0.005 C 
BRANCH  26  27
HETATM   27  C14 UNL     1      22.517  46.934  -0.264  1.00  0.00    -0.002 C 
BRANCH  27  28
HETATM   28  C15 UNL     1      22.992  48.001   0.594  1.00  0.00     0.006 C 
BRANCH  28  29
HETATM   29  C16 UNL     1      23.269  47.826   1.847  1.00  0.00     0.082 C 
BRANCH  29  30
HETATM   30  C17 UNL     1      23.167  48.750   2.938  1.00  0.00     0.283 C 
HETATM   31  O2  UNL     1      22.726  48.540   4.087  1.00  0.00    -0.260 OA
BRANCH  30  32
HETATM   32  O3  UNL     1      23.603  50.069   2.746  1.00  0.00    -0.313 OA
BRANCH  32  33
HETATM   33  C18 UNL     1      24.442  50.745   3.661  1.00  0.00     0.133 C 
HETATM   34  C19 UNL     1      25.831  50.934   3.150  1.00  0.00     0.033 C 
HETATM   35  C20 UNL     1      26.650  51.572   4.243  1.00  0.00     0.012 C 
HETATM   36  C21 UNL     1      26.138  52.942   4.626  1.00  0.00    -0.036 C 
HETATM   37  C22 UNL     1      27.074  53.954   3.993  1.00  0.00     0.016 C 
HETATM   38  C23 UNL     1      26.294  53.100   6.119  1.00  0.00     0.010 C 
HETATM   39  C28 UNL     1      24.760  53.214   4.122  1.00  0.00    -0.031 C 
HETATM   40  C24 UNL     1      25.038  52.893   6.898  1.00  0.00     0.001 C 
HETATM   41  C25 UNL     1      23.902  53.761   6.431  1.00  0.00     0.005 C 
HETATM   42  C26 UNL     1      24.117  54.265   5.038  1.00  0.00    -0.010 C 
HETATM   43  C27 UNL     1      22.757  54.606   4.459  1.00  0.00     0.011 C 
HETATM   44  C29 UNL     1      24.791  53.844   2.746  1.00  0.00     0.016 C 
HETATM   45  C30 UNL     1      23.847  52.042   4.125  1.00  0.00     0.042 C 
ENDBRANCH  32  33
ENDBRANCH  30  32
ENDBRANCH  29  30
ENDBRANCH  28  29
ENDBRANCH  27  28
ENDBRANCH  26  27
ENDBRANCH  24  26
ENDBRANCH   1  24
TORSDOF 16
ENDMDL
MODEL 5
REMARK VINA RESULT: -8.140516875      4.577     11.782
REMARK  16 active torsions:
REMARK  status: ('A' for Active; 'I' for Inactive)
REMARK    1  A    between atoms: C2_2  and  N1_3 
REMARK    2  A    between atoms: C3_4  and  O1_5 
REMARK    3  A    between atoms: C4_7  and  C5_8 
REMARK    4  A    between atoms: C7_10  and  C8_11 
REMARK    5  A    between atoms: C8_11  and  C9_12 
REMARK    6  A    between atoms: C9_12  and  C10_13 
REMARK    7  A    between atoms: C10_13  and  N2_14 
REMARK    8  A    between atoms: N2_14  and  C11_17 
REMARK    9  A    between atoms: C11_17  and  C13_19 
REMARK   10  A    between atoms: C13_19  and  C14_20 
REMARK   11  A    between atoms: C14_20  and  C15_21 
REMARK   12  A    between atoms: C15_21  and  C16_22 
REMARK   13  A    between atoms: C16_22  and  C17_23 
REMARK   14  A    between atoms: C17_23  and  O3_25 
REMARK   15  A    between atoms: O3_25  and  C18_26 
REMARK   16  A    between atoms: N3_41  and  C32_42 
ROOT
HETATM    1  N2  UNL     1      20.685  47.767   1.211  1.00  0.00    -0.068 N 
ATOM      2  H21 UNL     1      21.532  47.991   1.734  1.00  0.00     0.277 HD
ATOM      3  H22 UNL     1      20.705  48.542   0.549  1.00  0.00     0.277 HD
ENDROOT
BRANCH   1   4
HETATM    4  C10 UNL     1      19.504  47.810   2.054  1.00  0.00     0.233 C 
BRANCH   4   5
HETATM    5  C9  UNL     1      19.039  49.195   2.334  1.00  0.00     0.031 C 
BRANCH   5   6
HETATM    6  C8  UNL     1      19.282  49.688   3.722  1.00  0.00     0.029 C 
BRANCH   6   7
HETATM    7  C7  UNL     1      20.593  50.389   3.822  1.00  0.00    -0.019 C 
HETATM    8  C5  UNL     1      21.572  50.110   4.629  1.00  0.00    -0.046 C 
HETATM    9  C6  UNL     1      21.327  49.018   5.629  1.00  0.00     0.049 C 
BRANCH   8  10
HETATM   10  C4  UNL     1      22.814  50.844   4.659  1.00  0.00     0.089 A 
HETATM   11  C3  UNL     1      22.888  52.035   5.400  1.00  0.00     0.161 A 
HETATM   12  N1  UNL     1      24.010  52.812   5.411  1.00  0.00    -0.304 N 
HETATM   13  C34 UNL     1      25.091  52.450   4.702  1.00  0.00     0.185 A 
HETATM   14  N3  UNL     1      25.081  51.327   3.979  1.00  0.00    -0.290 N 
HETATM   15  S1  UNL     1      26.409  53.408   4.745  1.00  0.00    -0.040 SA
HETATM   16  C31 UNL     1      23.954  50.536   3.959  1.00  0.00     0.264 A 
HETATM   17  O4  UNL     1      23.998  49.498   3.260  1.00  0.00    -0.267 OA
BRANCH  11  18
HETATM   18  O1  UNL     1      21.800  52.431   6.142  1.00  0.00    -0.345 OA
ATOM     19  H1  UNL     1      21.929  52.673   7.052  1.00  0.00     0.219 HD
ENDBRANCH  11  18
BRANCH  12  20
HETATM   20  C2  UNL     1      24.068  54.046   6.188  1.00  0.00     0.129 C 
HETATM   21  C1  UNL     1      24.282  53.784   7.657  1.00  0.00     0.027 C 
ENDBRANCH  12  20
BRANCH  14  22
HETATM   22  C32 UNL     1      26.230  50.906   3.204  1.00  0.00     0.130 C 
HETATM   23  C33 UNL     1      26.236  51.509   1.816  1.00  0.00     0.027 C 
ENDBRANCH  14  22
ENDBRANCH   8  10
ENDBRANCH   6   7
ENDBRANCH   5   6
ENDBRANCH   4   5
ENDBRANCH   1   4
BRANCH   1  24
HETATM   24  C11 UNL     1      20.789  46.474   0.537  1.00  0.00     0.204 C 
HETATM   25  C12 UNL     1      21.348  46.674  -0.842  1.00  0.00     0.044 C 
BRANCH  24  26
HETATM   26  C13 UNL     1      19.507  45.785   0.462  1.00  0.00     0.005 C 
BRANCH  26  27
HETATM   27  C14 UNL     1      19.062  45.250  -0.668  1.00  0.00    -0.002 C 
BRANCH  27  28
HETATM   28  C15 UNL     1      17.820  45.710  -1.256  1.00  0.00     0.006 C 
BRANCH  28  29
HETATM   29  C16 UNL     1      17.748  46.752  -2.022  1.00  0.00     0.082 C 
BRANCH  29  30
HETATM   30  C17 UNL     1      17.937  46.852  -3.440  1.00  0.00     0.283 C 
HETATM   31  O2  UNL     1      17.075  47.062  -4.319  1.00  0.00    -0.260 OA
BRANCH  30  32
HETATM   32  O3  UNL     1      19.231  46.703  -3.959  1.00  0.00    -0.313 OA
BRANCH  32  33
HETATM   33  C18 UNL     1      19.649  45.555  -4.670  1.00  0.00     0.133 C 
HETATM   34  C19 UNL     1      20.524  44.655  -3.864  1.00  0.00     0.033 C 
HETATM   35  C20 UNL     1      20.982  43.526  -4.753  1.00  0.00     0.012 C 
HETATM   36  C21 UNL     1      19.834  42.681  -5.254  1.00  0.00    -0.036 C 
HETATM   37  C22 UNL     1      19.840  41.402  -4.438  1.00  0.00     0.016 C 
HETATM   38  C23 UNL     1      20.137  42.275  -6.676  1.00  0.00     0.010 C 
HETATM   39  C28 UNL     1      18.505  43.334  -5.074  1.00  0.00    -0.031 C 
HETATM   40  C24 UNL     1      19.426  43.077  -7.713  1.00  0.00     0.001 C 
HETATM   41  C25 UNL     1      17.935  43.107  -7.522  1.00  0.00     0.005 C 
HETATM   42  C26 UNL     1      17.544  42.753  -6.121  1.00  0.00    -0.010 C 
HETATM   43  C27 UNL     1      16.172  43.349  -5.864  1.00  0.00     0.011 C 
HETATM   44  C29 UNL     1      17.896  42.985  -3.732  1.00  0.00     0.016 C 
HETATM   45  C30 UNL     1      18.494  44.806  -5.268  1.00  0.00     0.042 C 
ENDBRANCH  32  33
ENDBRANCH  30  32
ENDBRANCH  29  30
ENDBRANCH  28  29
ENDBRANCH  27  28
ENDBRANCH  26  27
ENDBRANCH  24  26
ENDBRANCH   1  24
TORSDOF 16
ENDMDL
