MODEL 1
REMARK VINA RESULT: -8.661056606      0.000      0.000
REMARK  12 active torsions:
REMARK  status: ('A' for Active; 'I' for Inactive)
REMARK    1  A    between atoms: C2_2  and  C3_3 
REMARK    2  A    between atoms: C3_3  and  O1_4 
REMARK    3  A    between atoms: O1_4  and  C4_5 
REMARK    4  A    between atoms: C9_10  and  O2_11 
REMARK    5  A    between atoms: O2_11  and  C10_12 
REMARK    6  A    between atoms: C10_12  and  C11_14 
REMARK    7  A    between atoms: C13_16  and  C14_17 
REMARK    8  A    between atoms: C14_17  and  C15_18 
REMARK    9  A    between atoms: C15_18  and  C16_20 
REMARK   10  A    between atoms: C19_24  and  C20_25 
REMARK   11  A    between atoms: C20_25  and  C21_26 
REMARK   12  A    between atoms: C25_30  and  O6_31 
ROOT
HETATM    1  C4  UNL     1      -9.949   7.289 -12.572  1.00  0.00     0.160 C 
HETATM    2  C5  UNL     1     -11.114   8.335 -12.325  1.00  0.00     0.079 C 
HETATM    3  C6  UNL     1     -10.698   9.000 -11.064  1.00  0.00     0.012 A 
HETATM    4  C7  UNL     1      -9.378   9.054 -10.643  1.00  0.00     0.081 A 
HETATM    5  C8  UNL     1      -9.120   9.697  -9.460  1.00  0.00     0.075 A 
HETATM    6  C9  UNL     1     -10.102  10.294  -8.662  1.00  0.00     0.091 A 
HETATM    7  C19 UNL     1     -11.400  10.235  -9.089  1.00  0.00     0.013 A 
HETATM    8  C25 UNL     1     -11.676   9.584 -10.290  1.00  0.00     0.084 A 
HETATM    9  O7  UNL     1      -8.326   8.477 -11.391  1.00  0.00    -0.338 OA
HETATM   10  C26 UNL     1      -8.687   8.075 -12.725  1.00  0.00     0.087 C 
HETATM   11  C27 UNL     1      -8.881   9.386 -13.480  1.00  0.00     0.049 C 
HETATM   12  C28 UNL     1      -7.621   7.281 -13.402  1.00  0.00     0.049 C 
ENDROOT
BRANCH   6  13
HETATM   13  O2  UNL     1      -9.705  10.924  -7.463  1.00  0.00    -0.276 OA
BRANCH  13  14
HETATM   14  C10 UNL     1      -9.055  12.145  -7.476  1.00  0.00     0.293 C 
HETATM   15  O3  UNL     1      -8.144  12.320  -8.319  1.00  0.00    -0.262 OA
BRANCH  14  16
HETATM   16  C11 UNL     1      -9.357  13.269  -6.563  1.00  0.00     0.221 C 
HETATM   17  C12 UNL     1     -10.435  14.179  -7.097  1.00  0.00     0.049 C 
HETATM   18  C13 UNL     1     -10.791  14.951  -5.847  1.00  0.00     0.019 C 
HETATM   19  C18 UNL     1     -10.272  14.071  -4.762  1.00  0.00     0.173 C 
HETATM   20  O5  UNL     1      -9.871  12.877  -5.358  1.00  0.00    -0.375 OA
BRANCH  18  21
HETATM   21  C14 UNL     1     -10.111  16.290  -5.921  1.00  0.00     0.085 C 
BRANCH  21  22
HETATM   22  C15 UNL     1     -10.407  17.016  -7.173  1.00  0.00     0.127 C 
HETATM   23  O4  UNL     1     -11.548  17.271  -7.465  1.00  0.00    -0.298 OA
BRANCH  22  24
HETATM   24  C16 UNL     1      -9.310  17.434  -8.075  1.00  0.00     0.074 C 
HETATM   25  C17 UNL     1      -9.811  17.827  -9.445  1.00  0.00     0.013 C 
ENDBRANCH  22  24
ENDBRANCH  21  22
ENDBRANCH  18  21
ENDBRANCH  14  16
ENDBRANCH  13  14
ENDBRANCH   6  13
BRANCH   7  26
HETATM   26  C20 UNL     1     -12.520  10.861  -8.342  1.00  0.00     0.072 C 
BRANCH  26  27
HETATM   27  C21 UNL     1     -12.742  12.271  -8.703  1.00  0.00    -0.020 C 
HETATM   28  C22 UNL     1     -13.937  12.708  -9.024  1.00  0.00    -0.091 C 
HETATM   29  C23 UNL     1     -14.165  14.158  -9.393  1.00  0.00     0.042 C 
HETATM   30  C24 UNL     1     -15.115  11.810  -9.075  1.00  0.00     0.042 C 
ENDBRANCH  26  27
ENDBRANCH   7  26
BRANCH   8  31
HETATM   31  O6  UNL     1     -13.028   9.549 -10.686  1.00  0.00    -0.359 OA
ATOM     32  H6  UNL     1     -13.724   9.538 -10.040  1.00  0.00     0.217 HD
ENDBRANCH   8  31
BRANCH   1  33
HETATM   33  O1  UNL     1     -10.311   6.424 -13.507  1.00  0.00    -0.379 OA
BRANCH  33  34
HETATM   34  C3  UNL     1     -10.617   5.164 -13.399  1.00  0.00     0.195 C 
BRANCH  34  35
HETATM   35  C2  UNL     1      -9.871   4.287 -12.501  1.00  0.00    -0.011 C 
HETATM   36  C1  UNL     1      -9.692   3.005 -12.512  1.00  0.00     0.009 C 
ENDBRANCH  34  35
ENDBRANCH  33  34
ENDBRANCH   1  33
TORSDOF 12
ENDMDL
MODEL 2
REMARK VINA RESULT: -8.558786504      1.845      4.117
REMARK  12 active torsions:
REMARK  status: ('A' for Active; 'I' for Inactive)
REMARK    1  A    between atoms: C2_2  and  C3_3 
REMARK    2  A    between atoms: C3_3  and  O1_4 
REMARK    3  A    between atoms: O1_4  and  C4_5 
REMARK    4  A    between atoms: C9_10  and  O2_11 
REMARK    5  A    between atoms: O2_11  and  C10_12 
REMARK    6  A    between atoms: C10_12  and  C11_14 
REMARK    7  A    between atoms: C13_16  and  C14_17 
REMARK    8  A    between atoms: C14_17  and  C15_18 
REMARK    9  A    between atoms: C15_18  and  C16_20 
REMARK   10  A    between atoms: C19_24  and  C20_25 
REMARK   11  A    between atoms: C20_25  and  C21_26 
REMARK   12  A    between atoms: C25_30  and  O6_31 
ROOT
HETATM    1  C4  UNL     1      -9.393   9.191 -12.519  1.00  0.00     0.160 C 
HETATM    2  C5  UNL     1      -8.506   9.494 -11.241  1.00  0.00     0.079 C 
HETATM    3  C6  UNL     1      -9.428  10.274 -10.378  1.00  0.00     0.012 A 
HETATM    4  C7  UNL     1     -10.808  10.182 -10.476  1.00  0.00     0.081 A 
HETATM    5  C8  UNL     1     -11.553  10.954  -9.623  1.00  0.00     0.075 A 
HETATM    6  C9  UNL     1     -11.007  11.820  -8.670  1.00  0.00     0.091 A 
HETATM    7  C19 UNL     1      -9.644  11.901  -8.581  1.00  0.00     0.013 A 
HETATM    8  C25 UNL     1      -8.875  11.122  -9.444  1.00  0.00     0.084 A 
HETATM    9  O7  UNL     1     -11.440   9.330 -11.411  1.00  0.00    -0.338 OA
HETATM   10  C26 UNL     1     -10.563   8.386 -12.053  1.00  0.00     0.087 C 
HETATM   11  C27 UNL     1     -10.210   7.387 -10.957  1.00  0.00     0.049 C 
HETATM   12  C28 UNL     1     -11.217   7.658 -13.179  1.00  0.00     0.049 C 
ENDROOT
BRANCH   6  13
HETATM   13  O2  UNL     1     -11.885  12.562  -7.851  1.00  0.00    -0.276 OA
BRANCH  13  14
HETATM   14  C10 UNL     1     -12.910  13.314  -8.396  1.00  0.00     0.293 C 
HETATM   15  O3  UNL     1     -13.989  12.736  -8.664  1.00  0.00    -0.262 OA
BRANCH  14  16
HETATM   16  C11 UNL     1     -12.827  14.762  -8.689  1.00  0.00     0.221 C 
HETATM   17  C12 UNL     1     -11.479  15.172  -9.225  1.00  0.00     0.049 C 
HETATM   18  C13 UNL     1     -11.804  16.540  -9.779  1.00  0.00     0.019 C 
HETATM   19  C18 UNL     1     -13.285  16.487  -9.931  1.00  0.00     0.173 C 
HETATM   20  O5  UNL     1     -13.676  15.173  -9.680  1.00  0.00    -0.375 OA
BRANCH  18  21
HETATM   21  C14 UNL     1     -11.331  17.566  -8.785  1.00  0.00     0.085 C 
BRANCH  21  22
HETATM   22  C15 UNL     1      -9.860  17.598  -8.649  1.00  0.00     0.127 C 
HETATM   23  O4  UNL     1      -9.175  17.897  -9.595  1.00  0.00    -0.298 OA
BRANCH  22  24
HETATM   24  C16 UNL     1      -9.219  17.267  -7.357  1.00  0.00     0.074 C 
HETATM   25  C17 UNL     1     -10.229  16.957  -6.277  1.00  0.00     0.013 C 
ENDBRANCH  22  24
ENDBRANCH  21  22
ENDBRANCH  18  21
ENDBRANCH  14  16
ENDBRANCH  13  14
ENDBRANCH   6  13
BRANCH   7  26
HETATM   26  C20 UNL     1      -8.954  12.761  -7.587  1.00  0.00     0.072 C 
BRANCH  26  27
HETATM   27  C21 UNL     1      -8.588  12.044  -6.355  1.00  0.00    -0.020 C 
HETATM   28  C22 UNL     1      -8.958  12.489  -5.176  1.00  0.00    -0.091 C 
HETATM   29  C23 UNL     1      -8.583  11.749  -3.910  1.00  0.00     0.042 C 
HETATM   30  C24 UNL     1      -9.729  13.744  -5.017  1.00  0.00     0.042 C 
ENDBRANCH  26  27
ENDBRANCH   7  26
BRANCH   8  31
HETATM   31  O6  UNL     1      -7.477  11.242  -9.315  1.00  0.00    -0.359 OA
ATOM     32  H6  UNL     1      -7.031  12.040  -9.572  1.00  0.00     0.217 HD
ENDBRANCH   8  31
BRANCH   1  33
HETATM   33  O1  UNL     1      -8.627   8.742 -13.502  1.00  0.00    -0.379 OA
BRANCH  33  34
HETATM   34  C3  UNL     1      -7.426   8.242 -13.457  1.00  0.00     0.195 C 
BRANCH  34  35
HETATM   35  C2  UNL     1      -7.208   6.805 -13.595  1.00  0.00    -0.011 C 
HETATM   36  C1  UNL     1      -8.042   5.817 -13.667  1.00  0.00     0.009 C 
ENDBRANCH  34  35
ENDBRANCH  33  34
ENDBRANCH   1  33
TORSDOF 12
ENDMDL
MODEL 3
REMARK VINA RESULT: -8.425100369      1.864      3.861
REMARK  12 active torsions:
REMARK  status: ('A' for Active; 'I' for Inactive)
REMARK    1  A    between atoms: C2_2  and  C3_3 
REMARK    2  A    between atoms: C3_3  and  O1_4 
REMARK    3  A    between atoms: O1_4  and  C4_5 
REMARK    4  A    between atoms: C9_10  and  O2_11 
REMARK    5  A    between atoms: O2_11  and  C10_12 
REMARK    6  A    between atoms: C10_12  and  C11_14 
REMARK    7  A    between atoms: C13_16  and  C14_17 
REMARK    8  A    between atoms: C14_17  and  C15_18 
REMARK    9  A    between atoms: C15_18  and  C16_20 
REMARK   10  A    between atoms: C19_24  and  C20_25 
REMARK   11  A    between atoms: C20_25  and  C21_26 
REMARK   12  A    between atoms: C25_30  and  O6_31 
ROOT
HETATM    1  C4  UNL     1      -9.435   9.250 -12.487  1.00  0.00     0.160 C 
HETATM    2  C5  UNL     1      -8.505   9.541 -11.237  1.00  0.00     0.079 C 
HETATM    3  C6  UNL     1      -9.414  10.265 -10.313  1.00  0.00     0.012 A 
HETATM    4  C7  UNL     1     -10.793  10.133 -10.358  1.00  0.00     0.081 A 
HETATM    5  C8  UNL     1     -11.526  10.854  -9.451  1.00  0.00     0.075 A 
HETATM    6  C9  UNL     1     -10.966  11.708  -8.493  1.00  0.00     0.091 A 
HETATM    7  C19 UNL     1      -9.604  11.829  -8.458  1.00  0.00     0.013 A 
HETATM    8  C25 UNL     1      -8.848  11.101  -9.374  1.00  0.00     0.084 A 
HETATM    9  O7  UNL     1     -11.438   9.291 -11.294  1.00  0.00    -0.338 OA
HETATM   10  C26 UNL     1     -10.560   8.395 -12.000  1.00  0.00     0.087 C 
HETATM   11  C27 UNL     1     -10.132   7.374 -10.952  1.00  0.00     0.049 C 
HETATM   12  C28 UNL     1     -11.237   7.682 -13.122  1.00  0.00     0.049 C 
ENDROOT
BRANCH   6  13
HETATM   13  O2  UNL     1     -11.832  12.397  -7.617  1.00  0.00    -0.276 OA
BRANCH  13  14
HETATM   14  C10 UNL     1     -12.442  13.579  -7.994  1.00  0.00     0.293 C 
HETATM   15  O3  UNL     1     -13.584  13.517  -8.509  1.00  0.00    -0.262 OA
BRANCH  14  16
HETATM   16  C11 UNL     1     -11.845  14.923  -7.834  1.00  0.00     0.221 C 
HETATM   17  C12 UNL     1     -12.408  15.930  -8.805  1.00  0.00     0.049 C 
HETATM   18  C13 UNL     1     -11.935  17.220  -8.174  1.00  0.00     0.019 C 
HETATM   19  C18 UNL     1     -11.647  16.809  -6.771  1.00  0.00     0.173 C 
HETATM   20  O5  UNL     1     -12.108  15.502  -6.623  1.00  0.00    -0.375 OA
BRANCH  18  21
HETATM   21  C14 UNL     1     -10.723  17.689  -8.931  1.00  0.00     0.085 C 
BRANCH  21  22
HETATM   22  C15 UNL     1      -9.460  17.158  -8.378  1.00  0.00     0.127 C 
HETATM   23  O4  UNL     1      -9.049  17.565  -7.320  1.00  0.00    -0.298 OA
BRANCH  22  24
HETATM   24  C16 UNL     1      -8.692  16.130  -9.115  1.00  0.00     0.074 C 
HETATM   25  C17 UNL     1      -8.995  16.137 -10.594  1.00  0.00     0.013 C 
ENDBRANCH  22  24
ENDBRANCH  21  22
ENDBRANCH  18  21
ENDBRANCH  14  16
ENDBRANCH  13  14
ENDBRANCH   6  13
BRANCH   7  26
HETATM   26  C20 UNL     1      -8.900  12.679  -7.465  1.00  0.00     0.072 C 
BRANCH  26  27
HETATM   27  C21 UNL     1      -8.641  11.989  -6.191  1.00  0.00    -0.020 C 
HETATM   28  C22 UNL     1      -8.959  12.542  -5.043  1.00  0.00    -0.091 C 
HETATM   29  C23 UNL     1      -8.694  11.831  -3.734  1.00  0.00     0.042 C 
HETATM   30  C24 UNL     1      -9.561  13.893  -4.963  1.00  0.00     0.042 C 
ENDBRANCH  26  27
ENDBRANCH   7  26
BRANCH   8  31
HETATM   31  O6  UNL     1      -7.450  11.260  -9.299  1.00  0.00    -0.359 OA
ATOM     32  H6  UNL     1      -7.069  12.089  -9.035  1.00  0.00     0.217 HD
ENDBRANCH   8  31
BRANCH   1  33
HETATM   33  O1  UNL     1      -8.697   8.856 -13.514  1.00  0.00    -0.379 OA
BRANCH  33  34
HETATM   34  C3  UNL     1      -7.461   8.447 -13.540  1.00  0.00     0.195 C 
BRANCH  34  35
HETATM   35  C2  UNL     1      -7.145   7.023 -13.609  1.00  0.00    -0.011 C 
HETATM   36  C1  UNL     1      -7.910   5.981 -13.675  1.00  0.00     0.009 C 
ENDBRANCH  34  35
ENDBRANCH  33  34
ENDBRANCH   1  33
TORSDOF 12
ENDMDL
MODEL 4
REMARK VINA RESULT: -8.412271601      2.009      3.893
REMARK  12 active torsions:
REMARK  status: ('A' for Active; 'I' for Inactive)
REMARK    1  A    between atoms: C2_2  and  C3_3 
REMARK    2  A    between atoms: C3_3  and  O1_4 
REMARK    3  A    between atoms: O1_4  and  C4_5 
REMARK    4  A    between atoms: C9_10  and  O2_11 
REMARK    5  A    between atoms: O2_11  and  C10_12 
REMARK    6  A    between atoms: C10_12  and  C11_14 
REMARK    7  A    between atoms: C13_16  and  C14_17 
REMARK    8  A    between atoms: C14_17  and  C15_18 
REMARK    9  A    between atoms: C15_18  and  C16_20 
REMARK   10  A    between atoms: C19_24  and  C20_25 
REMARK   11  A    between atoms: C20_25  and  C21_26 
REMARK   12  A    between atoms: C25_30  and  O6_31 
ROOT
HETATM    1  C4  UNL     1     -10.145   9.117  -9.999  1.00  0.00     0.160 C 
HETATM    2  C5  UNL     1     -11.562   9.502 -10.597  1.00  0.00     0.079 C 
HETATM    3  C6  UNL     1     -11.920  10.725  -9.835  1.00  0.00     0.012 A 
HETATM    4  C7  UNL     1     -10.972  11.548  -9.247  1.00  0.00     0.081 A 
HETATM    5  C8  UNL     1     -11.427  12.650  -8.569  1.00  0.00     0.075 A 
HETATM    6  C9  UNL     1     -12.779  12.986  -8.437  1.00  0.00     0.091 A 
HETATM    7  C19 UNL     1     -13.704  12.166  -9.023  1.00  0.00     0.013 A 
HETATM    8  C25 UNL     1     -13.255  11.043  -9.715  1.00  0.00     0.084 A 
HETATM    9  O7  UNL     1      -9.586  11.281  -9.334  1.00  0.00    -0.338 OA
HETATM   10  C26 UNL     1      -9.229  10.262 -10.286  1.00  0.00     0.087 C 
HETATM   11  C27 UNL     1      -9.476  10.907 -11.646  1.00  0.00     0.049 C 
HETATM   12  C28 UNL     1      -7.796   9.859 -10.195  1.00  0.00     0.049 C 
ENDROOT
BRANCH   6  13
HETATM   13  O2  UNL     1     -13.117  14.148  -7.711  1.00  0.00    -0.276 OA
BRANCH  13  14
HETATM   14  C10 UNL     1     -12.160  15.088  -7.377  1.00  0.00     0.293 C 
HETATM   15  O3  UNL     1     -11.761  15.870  -8.272  1.00  0.00    -0.262 OA
BRANCH  14  16
HETATM   16  C11 UNL     1     -11.567  15.243  -6.030  1.00  0.00     0.221 C 
HETATM   17  C12 UNL     1     -10.408  14.307  -5.792  1.00  0.00     0.049 C 
HETATM   18  C13 UNL     1      -9.789  14.937  -4.566  1.00  0.00     0.019 C 
HETATM   19  C18 UNL     1     -10.336  16.322  -4.599  1.00  0.00     0.173 C 
HETATM   20  O5  UNL     1     -11.004  16.470  -5.813  1.00  0.00    -0.375 OA
BRANCH  18  21
HETATM   21  C14 UNL     1     -10.225  14.140  -3.367  1.00  0.00     0.085 C 
BRANCH  21  22
HETATM   22  C15 UNL     1      -9.358  12.971  -3.108  1.00  0.00     0.127 C 
HETATM   23  O4  UNL     1      -9.679  12.157  -2.279  1.00  0.00    -0.298 OA
BRANCH  22  24
HETATM   24  C16 UNL     1      -8.096  12.792  -3.860  1.00  0.00     0.074 C 
HETATM   25  C17 UNL     1      -8.116  11.558  -4.731  1.00  0.00     0.013 C 
ENDBRANCH  22  24
ENDBRANCH  21  22
ENDBRANCH  18  21
ENDBRANCH  14  16
ENDBRANCH  13  14
ENDBRANCH   6  13
BRANCH   7  26
HETATM   26  C20 UNL     1     -15.162  12.441  -8.976  1.00  0.00     0.072 C 
BRANCH  26  27
HETATM   27  C21 UNL     1     -15.522  13.764  -9.513  1.00  0.00    -0.020 C 
HETATM   28  C22 UNL     1     -16.311  14.574  -8.848  1.00  0.00    -0.091 C 
HETATM   29  C23 UNL     1     -16.677  15.935  -9.400  1.00  0.00     0.042 C 
HETATM   30  C24 UNL     1     -16.908  14.195  -7.546  1.00  0.00     0.042 C 
ENDBRANCH  26  27
ENDBRANCH   7  26
BRANCH   8  31
HETATM   31  O6  UNL     1     -14.246  10.230 -10.299  1.00  0.00    -0.359 OA
ATOM     32  H6  UNL     1     -15.164  10.354 -10.088  1.00  0.00     0.217 HD
ENDBRANCH   8  31
BRANCH   1  33
HETATM   33  O1  UNL     1      -9.815   7.891 -10.377  1.00  0.00    -0.379 OA
BRANCH  33  34
HETATM   34  C3  UNL     1     -10.250   7.187 -11.381  1.00  0.00     0.195 C 
BRANCH  34  35
HETATM   35  C2  UNL     1      -9.418   6.973 -12.562  1.00  0.00    -0.011 C 
HETATM   36  C1  UNL     1      -8.256   7.444 -12.884  1.00  0.00     0.009 C 
ENDBRANCH  34  35
ENDBRANCH  33  34
ENDBRANCH   1  33
TORSDOF 12
ENDMDL
MODEL 5
REMARK VINA RESULT: -8.352107873      2.854      8.011
REMARK  12 active torsions:
REMARK  status: ('A' for Active; 'I' for Inactive)
REMARK    1  A    between atoms: C2_2  and  C3_3 
REMARK    2  A    between atoms: C3_3  and  O1_4 
REMARK    3  A    between atoms: O1_4  and  C4_5 
REMARK    4  A    between atoms: C9_10  and  O2_11 
REMARK    5  A    between atoms: O2_11  and  C10_12 
REMARK    6  A    between atoms: C10_12  and  C11_14 
REMARK    7  A    between atoms: C13_16  and  C14_17 
REMARK    8  A    between atoms: C14_17  and  C15_18 
REMARK    9  A    between atoms: C15_18  and  C16_20 
REMARK   10  A    between atoms: C19_24  and  C20_25 
REMARK   11  A    between atoms: C20_25  and  C21_26 
REMARK   12  A    between atoms: C25_30  and  O6_31 
ROOT
HETATM    1  C4  UNL     1     -15.061  13.995  -9.060  1.00  0.00     0.160 C 
HETATM    2  C5  UNL     1     -14.340  14.528  -7.753  1.00  0.00     0.079 C 
HETATM    3  C6  UNL     1     -12.904  14.482  -8.126  1.00  0.00     0.012 A 
HETATM    4  C7  UNL     1     -12.468  14.533  -9.441  1.00  0.00     0.081 A 
HETATM    5  C8  UNL     1     -11.115  14.482  -9.659  1.00  0.00     0.075 A 
HETATM    6  C9  UNL     1     -10.161  14.383  -8.640  1.00  0.00     0.091 A 
HETATM    7  C19 UNL     1     -10.603  14.335  -7.347  1.00  0.00     0.013 A 
HETATM    8  C25 UNL     1     -11.976  14.385  -7.112  1.00  0.00     0.084 A 
HETATM    9  O7  UNL     1     -13.366  14.634 -10.529  1.00  0.00    -0.338 OA
HETATM   10  C26 UNL     1     -14.722  14.947 -10.160  1.00  0.00     0.087 C 
HETATM   11  C27 UNL     1     -14.668  16.401  -9.704  1.00  0.00     0.049 C 
HETATM   12  C28 UNL     1     -15.675  14.833 -11.302  1.00  0.00     0.049 C 
ENDROOT
BRANCH   6  13
HETATM   13  O2  UNL     1      -8.796  14.337  -8.997  1.00  0.00    -0.276 OA
BRANCH  13  14
HETATM   14  C10 UNL     1      -8.302  13.338  -9.815  1.00  0.00     0.293 C 
HETATM   15  O3  UNL     1      -7.498  13.659 -10.722  1.00  0.00    -0.262 OA
BRANCH  14  16
HETATM   16  C11 UNL     1      -8.653  11.905  -9.699  1.00  0.00     0.221 C 
HETATM   17  C12 UNL     1      -9.518  11.423 -10.837  1.00  0.00     0.049 C 
HETATM   18  C13 UNL     1      -9.386   9.927 -10.673  1.00  0.00     0.019 C 
HETATM   19  C18 UNL     1      -8.146   9.797  -9.857  1.00  0.00     0.173 C 
HETATM   20  O5  UNL     1      -7.576  11.066  -9.772  1.00  0.00    -0.375 OA
BRANCH  18  21
HETATM   21  C14 UNL     1     -10.624   9.425  -9.981  1.00  0.00     0.085 C 
BRANCH  21  22
HETATM   22  C15 UNL     1     -11.866   9.780 -10.699  1.00  0.00     0.127 C 
HETATM   23  O4  UNL     1     -12.037   9.397 -11.829  1.00  0.00    -0.298 OA
BRANCH  22  24
HETATM   24  C16 UNL     1     -12.904  10.604 -10.040  1.00  0.00     0.074 C 
HETATM   25  C17 UNL     1     -12.593  10.863  -8.585  1.00  0.00     0.013 C 
ENDBRANCH  22  24
ENDBRANCH  21  22
ENDBRANCH  18  21
ENDBRANCH  14  16
ENDBRANCH  13  14
ENDBRANCH   6  13
BRANCH   7  26
HETATM   26  C20 UNL     1      -9.682  14.262  -6.185  1.00  0.00     0.072 C 
BRANCH  26  27
HETATM   27  C21 UNL     1      -9.200  12.898  -5.912  1.00  0.00    -0.020 C 
HETATM   28  C22 UNL     1      -8.767  12.559  -4.720  1.00  0.00    -0.091 C 
HETATM   29  C23 UNL     1      -8.273  11.156  -4.439  1.00  0.00     0.042 C 
HETATM   30  C24 UNL     1      -8.707  13.527  -3.601  1.00  0.00     0.042 C 
ENDBRANCH  26  27
ENDBRANCH   7  26
BRANCH   8  31
HETATM   31  O6  UNL     1     -12.383  14.332  -5.764  1.00  0.00    -0.359 OA
ATOM     32  H6  UNL     1     -12.059  14.963  -5.133  1.00  0.00     0.217 HD
ENDBRANCH   8  31
BRANCH   1  33
HETATM   33  O1  UNL     1     -16.327  13.711  -8.792  1.00  0.00    -0.379 OA
BRANCH  33  34
HETATM   34  C3  UNL     1     -17.066  14.083  -7.787  1.00  0.00     0.195 C 
BRANCH  34  35
HETATM   35  C2  UNL     1     -18.167  15.023  -7.976  1.00  0.00    -0.011 C 
HETATM   36  C1  UNL     1     -18.246  16.120  -8.659  1.00  0.00     0.009 C 
ENDBRANCH  34  35
ENDBRANCH  33  34
ENDBRANCH   1  33
TORSDOF 12
ENDMDL
