MODEL 1
REMARK VINA RESULT: -8.143251918      0.000      0.000
REMARK  8 active torsions:
REMARK  status: ('A' for Active; 'I' for Inactive)
REMARK    1  A    between atoms: O1_2  and  C2_3 
REMARK    2  A    between atoms: C4_5  and  C5_6 
REMARK       I    between atoms: C5_6  and  N1_8 
REMARK    3  A    between atoms: N1_8  and  C6_10 
REMARK    4  A    between atoms: C6_10  and  N2_12 
REMARK    5  A    between atoms: N2_12  and  C7_14 
REMARK    6  A    between atoms: C10_18  and  N3_19 
REMARK    7  A    between atoms: C18_31  and  O3_32 
REMARK    8  A    between atoms: C20_34  and  O4_35 
ROOT
HETATM    1  C6  UNL     1      -7.962   4.736 -17.821  1.00  0.00     0.179 C 
HETATM    2  S1  UNL     1      -8.023   4.025 -19.339  1.00  0.00    -0.040 SA
ENDROOT
BRANCH   1   3
HETATM    3  N1  UNL     1      -7.351   3.922 -16.846  1.00  0.00    -0.299 N 
HETATM    4  C5  UNL     1      -6.073   4.011 -16.271  1.00  0.00     0.258 C 
HETATM    5  O2  UNL     1      -5.270   4.891 -16.584  1.00  0.00    -0.267 OA
ATOM      6  H1  UNL     1      -7.925   3.151 -16.506  1.00  0.00     0.171 HD
BRANCH   4   7
HETATM    7  C4  UNL     1      -5.656   3.024 -15.252  1.00  0.00     0.037 A 
HETATM    8  C3  UNL     1      -6.541   2.191 -14.649  1.00  0.00     0.057 A 
HETATM    9  C2  UNL     1      -6.108   1.267 -13.689  1.00  0.00     0.105 A 
HETATM   10  C20 UNL     1      -4.777   1.202 -13.355  1.00  0.00     0.135 A 
HETATM   11  C18 UNL     1      -3.846   2.050 -13.967  1.00  0.00     0.105 A 
HETATM   12  C17 UNL     1      -4.343   2.943 -14.909  1.00  0.00     0.057 A 
BRANCH   9  13
HETATM   13  O1  UNL     1      -6.996   0.414 -13.063  1.00  0.00    -0.353 OA
HETATM   14  C1  UNL     1      -7.969  -0.287 -13.804  1.00  0.00     0.210 C 
ENDBRANCH   9  13
BRANCH  10  15
HETATM   15  O4  UNL     1      -4.264   0.327 -12.424  1.00  0.00    -0.351 OA
HETATM   16  C21 UNL     1      -3.903  -0.989 -12.724  1.00  0.00     0.210 C 
ENDBRANCH  10  15
BRANCH  11  17
HETATM   17  O3  UNL     1      -2.499   2.024 -13.668  1.00  0.00    -0.353 OA
HETATM   18  C19 UNL     1      -1.576   2.387 -14.673  1.00  0.00     0.210 C 
ENDBRANCH  11  17
ENDBRANCH   4   7
ENDBRANCH   1   3
BRANCH   1  19
HETATM   19  N2  UNL     1      -8.545   5.979 -17.582  1.00  0.00    -0.330 N 
ATOM     20  H2  UNL     1      -9.560   5.974 -17.477  1.00  0.00     0.168 HD
BRANCH  19  21
HETATM   21  C7  UNL     1      -7.932   7.236 -17.464  1.00  0.00     0.076 A 
HETATM   22  C8  UNL     1      -6.834   7.698 -18.134  1.00  0.00     0.059 A 
HETATM   23  C9  UNL     1      -6.257   8.956 -17.897  1.00  0.00     0.065 A 
HETATM   24 CL1  UNL     1      -4.852   9.455 -18.812  1.00  0.00    -0.082 Cl
HETATM   25  C10 UNL     1      -6.782   9.798 -16.959  1.00  0.00     0.086 A 
HETATM   26  C15 UNL     1      -7.887   9.354 -16.274  1.00  0.00     0.103 A 
HETATM   27 CL2  UNL     1      -8.588  10.415 -15.075  1.00  0.00    -0.078 Cl
HETATM   28  C16 UNL     1      -8.455   8.128 -16.500  1.00  0.00     0.167 A 
HETATM   29  F1  UNL     1      -9.562   7.736 -15.787  1.00  0.00    -0.202 F 
BRANCH  25  30
HETATM   30  N3  UNL     1      -6.189  11.066 -16.702  1.00  0.00    -0.313 N 
HETATM   31  C11 UNL     1      -6.562  12.245 -17.300  1.00  0.00     0.188 A 
HETATM   32  N4  UNL     1      -5.795  13.230 -16.819  1.00  0.00    -0.354 N 
HETATM   33  C12 UNL     1      -4.922  12.754 -15.920  1.00  0.00     0.022 A 
ATOM     34  H4  UNL     1      -5.866  14.208 -17.097  1.00  0.00     0.166 HD
HETATM   35  C13 UNL     1      -3.908  13.542 -15.172  1.00  0.00     0.069 C 
HETATM   36  C14 UNL     1      -5.194  11.401 -15.871  1.00  0.00     0.122 A 
ENDBRANCH  25  30
ENDBRANCH  19  21
ENDBRANCH   1  19
TORSDOF 8
ENDMDL
MODEL 2
REMARK VINA RESULT: -8.118360049      0.254      2.250
REMARK  8 active torsions:
REMARK  status: ('A' for Active; 'I' for Inactive)
REMARK    1  A    between atoms: O1_2  and  C2_3 
REMARK    2  A    between atoms: C4_5  and  C5_6 
REMARK       I    between atoms: C5_6  and  N1_8 
REMARK    3  A    between atoms: N1_8  and  C6_10 
REMARK    4  A    between atoms: C6_10  and  N2_12 
REMARK    5  A    between atoms: N2_12  and  C7_14 
REMARK    6  A    between atoms: C10_18  and  N3_19 
REMARK    7  A    between atoms: C18_31  and  O3_32 
REMARK    8  A    between atoms: C20_34  and  O4_35 
ROOT
HETATM    1  C6  UNL     1      -8.276   4.628 -17.513  1.00  0.00     0.179 C 
HETATM    2  S1  UNL     1      -8.573   3.829 -18.957  1.00  0.00    -0.040 SA
ENDROOT
BRANCH   1   3
HETATM    3  N1  UNL     1      -7.540   3.859 -16.588  1.00  0.00    -0.299 N 
HETATM    4  C5  UNL     1      -6.175   3.905 -16.263  1.00  0.00     0.258 C 
HETATM    5  O2  UNL     1      -5.397   4.696 -16.798  1.00  0.00    -0.267 OA
ATOM      6  H1  UNL     1      -8.083   3.162 -16.078  1.00  0.00     0.171 HD
BRANCH   4   7
HETATM    7  C4  UNL     1      -5.631   2.981 -15.245  1.00  0.00     0.037 A 
HETATM    8  C3  UNL     1      -4.312   2.956 -14.925  1.00  0.00     0.057 A 
HETATM    9  C2  UNL     1      -3.833   2.067 -13.954  1.00  0.00     0.105 A 
HETATM   10  C20 UNL     1      -4.703   1.213 -13.320  1.00  0.00     0.135 A 
HETATM   11  C18 UNL     1      -6.068   1.224 -13.634  1.00  0.00     0.105 A 
HETATM   12  C17 UNL     1      -6.476   2.129 -14.606  1.00  0.00     0.057 A 
BRANCH   9  13
HETATM   13  O1  UNL     1      -2.493   2.027 -13.617  1.00  0.00    -0.353 OA
HETATM   14  C1  UNL     1      -1.496   2.075 -14.612  1.00  0.00     0.210 C 
ENDBRANCH   9  13
BRANCH  10  15
HETATM   15  O4  UNL     1      -4.320   0.308 -12.356  1.00  0.00    -0.351 OA
HETATM   16  C21 UNL     1      -3.875  -0.983 -12.650  1.00  0.00     0.210 C 
ENDBRANCH  10  15
BRANCH  11  17
HETATM   17  O3  UNL     1      -6.983   0.388 -13.025  1.00  0.00    -0.353 OA
HETATM   18  C19 UNL     1      -7.912  -0.301 -13.835  1.00  0.00     0.210 C 
ENDBRANCH  11  17
ENDBRANCH   4   7
ENDBRANCH   1   3
BRANCH   1  19
HETATM   19  N2  UNL     1      -8.796   5.897 -17.268  1.00  0.00    -0.330 N 
ATOM     20  H2  UNL     1      -9.802   5.933 -17.101  1.00  0.00     0.168 HD
BRANCH  19  21
HETATM   21  C7  UNL     1      -8.132   7.133 -17.220  1.00  0.00     0.076 A 
HETATM   22  C8  UNL     1      -7.001   7.501 -17.893  1.00  0.00     0.059 A 
HETATM   23  C9  UNL     1      -6.375   8.746 -17.726  1.00  0.00     0.065 A 
HETATM   24 CL1  UNL     1      -4.930   9.123 -18.638  1.00  0.00    -0.082 Cl
HETATM   25  C10 UNL     1      -6.882   9.672 -16.860  1.00  0.00     0.086 A 
HETATM   26  C15 UNL     1      -8.020   9.322 -16.174  1.00  0.00     0.103 A 
HETATM   27 CL2  UNL     1      -8.700  10.491 -15.066  1.00  0.00    -0.078 Cl
HETATM   28  C16 UNL     1      -8.636   8.109 -16.331  1.00  0.00     0.167 A 
HETATM   29  F1  UNL     1      -9.775   7.813 -15.620  1.00  0.00    -0.202 F 
BRANCH  25  30
HETATM   30  N3  UNL     1      -6.240  10.928 -16.675  1.00  0.00    -0.313 N 
HETATM   31  C11 UNL     1      -6.505  12.062 -17.402  1.00  0.00     0.188 A 
HETATM   32  N4  UNL     1      -5.721  13.050 -16.955  1.00  0.00    -0.354 N 
HETATM   33  C12 UNL     1      -4.940  12.619 -15.955  1.00  0.00     0.022 A 
ATOM     34  H4  UNL     1      -5.718  14.000 -17.324  1.00  0.00     0.166 HD
HETATM   35  C13 UNL     1      -3.940  13.424 -15.206  1.00  0.00     0.069 C 
HETATM   36  C14 UNL     1      -5.289  11.292 -15.804  1.00  0.00     0.122 A 
ENDBRANCH  25  30
ENDBRANCH  19  21
ENDBRANCH   1  19
TORSDOF 8
ENDMDL
MODEL 3
REMARK VINA RESULT: -7.959814069      1.182      2.962
REMARK  8 active torsions:
REMARK  status: ('A' for Active; 'I' for Inactive)
REMARK    1  A    between atoms: O1_2  and  C2_3 
REMARK    2  A    between atoms: C4_5  and  C5_6 
REMARK       I    between atoms: C5_6  and  N1_8 
REMARK    3  A    between atoms: N1_8  and  C6_10 
REMARK    4  A    between atoms: C6_10  and  N2_12 
REMARK    5  A    between atoms: N2_12  and  C7_14 
REMARK    6  A    between atoms: C10_18  and  N3_19 
REMARK    7  A    between atoms: C18_31  and  O3_32 
REMARK    8  A    between atoms: C20_34  and  O4_35 
ROOT
HETATM    1  C6  UNL     1      -9.003   4.864 -16.570  1.00  0.00     0.179 C 
HETATM    2  S1  UNL     1     -10.617   4.552 -16.237  1.00  0.00    -0.040 SA
ENDROOT
BRANCH   1   3
HETATM    3  N1  UNL     1      -8.113   4.073 -15.815  1.00  0.00    -0.299 N 
HETATM    4  C5  UNL     1      -6.787   3.702 -16.087  1.00  0.00     0.258 C 
HETATM    5  O2  UNL     1      -6.199   4.058 -17.109  1.00  0.00    -0.267 OA
ATOM      6  H1  UNL     1      -8.491   3.716 -14.937  1.00  0.00     0.171 HD
BRANCH   4   7
HETATM    7  C4  UNL     1      -6.050   2.852 -15.126  1.00  0.00     0.037 A 
HETATM    8  C3  UNL     1      -4.734   3.043 -14.855  1.00  0.00     0.057 A 
HETATM    9  C2  UNL     1      -4.070   2.218 -13.937  1.00  0.00     0.105 A 
HETATM   10  C20 UNL     1      -4.754   1.208 -13.307  1.00  0.00     0.135 A 
HETATM   11  C18 UNL     1      -6.113   0.993 -13.572  1.00  0.00     0.105 A 
HETATM   12  C17 UNL     1      -6.710   1.846 -14.492  1.00  0.00     0.057 A 
BRANCH   9  13
HETATM   13  O1  UNL     1      -2.731   2.398 -13.650  1.00  0.00    -0.353 OA
HETATM   14  C1  UNL     1      -1.743   2.142 -14.623  1.00  0.00     0.210 C 
ENDBRANCH   9  13
BRANCH  10  15
HETATM   15  O4  UNL     1      -4.183   0.350 -12.394  1.00  0.00    -0.351 OA
HETATM   16  C21 UNL     1      -3.622  -0.881 -12.744  1.00  0.00     0.210 C 
ENDBRANCH  10  15
BRANCH  11  17
HETATM   17  O3  UNL     1      -6.846  -0.007 -12.964  1.00  0.00    -0.353 OA
HETATM   18  C19 UNL     1      -8.067  -0.403 -13.553  1.00  0.00     0.210 C 
ENDBRANCH  11  17
ENDBRANCH   4   7
ENDBRANCH   1   3
BRANCH   1  19
HETATM   19  N2  UNL     1      -8.629   5.873 -17.454  1.00  0.00    -0.330 N 
ATOM     20  H2  UNL     1      -8.744   5.653 -18.444  1.00  0.00     0.168 HD
BRANCH  19  21
HETATM   21  C7  UNL     1      -8.117   7.150 -17.176  1.00  0.00     0.076 A 
HETATM   22  C8  UNL     1      -8.616   8.081 -16.309  1.00  0.00     0.059 A 
HETATM   23  C9  UNL     1      -8.064   9.361 -16.149  1.00  0.00     0.065 A 
HETATM   24 CL1  UNL     1      -8.777  10.480 -15.008  1.00  0.00    -0.082 Cl
HETATM   25  C10 UNL     1      -6.972   9.746 -16.873  1.00  0.00     0.086 A 
HETATM   26  C15 UNL     1      -6.454   8.825 -17.751  1.00  0.00     0.103 A 
HETATM   27 CL2  UNL     1      -5.049   9.284 -18.684  1.00  0.00    -0.078 Cl
HETATM   28  C16 UNL     1      -6.987   7.574 -17.913  1.00  0.00     0.167 A 
HETATM   29  F1  UNL     1      -6.426   6.691 -18.804  1.00  0.00    -0.202 F 
BRANCH  25  30
HETATM   30  N3  UNL     1      -6.420  11.049 -16.727  1.00  0.00    -0.313 N 
HETATM   31  C11 UNL     1      -6.841  12.164 -17.410  1.00  0.00     0.188 A 
HETATM   32  N4  UNL     1      -6.102  13.209 -17.020  1.00  0.00    -0.354 N 
HETATM   33  C12 UNL     1      -5.201  12.835 -16.102  1.00  0.00     0.022 A 
ATOM     34  H4  UNL     1      -6.211  14.159 -17.374  1.00  0.00     0.166 HD
HETATM   35  C13 UNL     1      -4.205  13.714 -15.435  1.00  0.00     0.069 C 
HETATM   36  C14 UNL     1      -5.426  11.483 -15.941  1.00  0.00     0.122 A 
ENDBRANCH  25  30
ENDBRANCH  19  21
ENDBRANCH   1  19
TORSDOF 8
ENDMDL
MODEL 4
REMARK VINA RESULT: -7.783876766      1.458      1.973
REMARK  8 active torsions:
REMARK  status: ('A' for Active; 'I' for Inactive)
REMARK    1  A    between atoms: O1_2  and  C2_3 
REMARK    2  A    between atoms: C4_5  and  C5_6 
REMARK       I    between atoms: C5_6  and  N1_8 
REMARK    3  A    between atoms: N1_8  and  C6_10 
REMARK    4  A    between atoms: C6_10  and  N2_12 
REMARK    5  A    between atoms: N2_12  and  C7_14 
REMARK    6  A    between atoms: C10_18  and  N3_19 
REMARK    7  A    between atoms: C18_31  and  O3_32 
REMARK    8  A    between atoms: C20_34  and  O4_35 
ROOT
HETATM    1  C6  UNL     1      -8.878   4.026 -16.549  1.00  0.00     0.179 C 
HETATM    2  S1  UNL     1      -9.879   2.866 -17.230  1.00  0.00    -0.040 SA
ENDROOT
BRANCH   1   3
HETATM    3  N1  UNL     1      -7.659   3.503 -16.070  1.00  0.00    -0.299 N 
HETATM    4  C5  UNL     1      -7.400   2.722 -14.932  1.00  0.00     0.258 C 
HETATM    5  O2  UNL     1      -8.290   2.375 -14.155  1.00  0.00    -0.267 OA
ATOM      6  H1  UNL     1      -6.841   3.727 -16.636  1.00  0.00     0.171 HD
BRANCH   4   7
HETATM    7  C4  UNL     1      -6.017   2.290 -14.638  1.00  0.00     0.037 A 
HETATM    8  C3  UNL     1      -5.718   1.501 -13.574  1.00  0.00     0.057 A 
HETATM    9  C2  UNL     1      -4.396   1.111 -13.327  1.00  0.00     0.105 A 
HETATM   10  C20 UNL     1      -3.392   1.529 -14.167  1.00  0.00     0.135 A 
HETATM   11  C18 UNL     1      -3.678   2.342 -15.271  1.00  0.00     0.105 A 
HETATM   12  C17 UNL     1      -5.009   2.693 -15.457  1.00  0.00     0.057 A 
BRANCH   9  13
HETATM   13  O1  UNL     1      -4.073   0.310 -12.249  1.00  0.00    -0.353 OA
HETATM   14  C1  UNL     1      -4.289  -1.083 -12.293  1.00  0.00     0.210 C 
ENDBRANCH   9  13
BRANCH  10  15
HETATM   15  O4  UNL     1      -2.066   1.195 -14.001  1.00  0.00    -0.351 OA
HETATM   16  C21 UNL     1      -1.498   0.029 -14.519  1.00  0.00     0.210 C 
ENDBRANCH  10  15
BRANCH  11  17
HETATM   17  O3  UNL     1      -2.706   2.788 -16.145  1.00  0.00    -0.353 OA
HETATM   18  C19 UNL     1      -2.274   4.128 -16.048  1.00  0.00     0.210 C 
ENDBRANCH  11  17
ENDBRANCH   4   7
ENDBRANCH   1   3
BRANCH   1  19
HETATM   19  N2  UNL     1      -9.290   5.350 -16.420  1.00  0.00    -0.330 N 
ATOM     20  H2  UNL     1     -10.275   5.482 -16.185  1.00  0.00     0.168 HD
BRANCH  19  21
HETATM   21  C7  UNL     1      -8.543   6.530 -16.567  1.00  0.00     0.076 A 
HETATM   22  C8  UNL     1      -7.255   6.654 -17.007  1.00  0.00     0.059 A 
HETATM   23  C9  UNL     1      -6.572   7.879 -17.058  1.00  0.00     0.065 A 
HETATM   24 CL1  UNL     1      -4.922   7.932 -17.641  1.00  0.00    -0.082 Cl
HETATM   25  C10 UNL     1      -7.180   9.034 -16.659  1.00  0.00     0.086 A 
HETATM   26  C15 UNL     1      -8.475   8.932 -16.214  1.00  0.00     0.103 A 
HETATM   27 CL2  UNL     1      -9.285  10.396 -15.706  1.00  0.00    -0.078 Cl
HETATM   28  C16 UNL     1      -9.149   7.740 -16.160  1.00  0.00     0.167 A 
HETATM   29  F1  UNL     1     -10.446   7.697 -15.709  1.00  0.00    -0.202 F 
BRANCH  25  30
HETATM   30  N3  UNL     1      -6.485  10.276 -16.691  1.00  0.00    -0.313 N 
HETATM   31  C11 UNL     1      -6.519  11.170 -17.733  1.00  0.00     0.188 A 
HETATM   32  N4  UNL     1      -5.755  12.222 -17.419  1.00  0.00    -0.354 N 
HETATM   33  C12 UNL     1      -5.208  12.065 -16.205  1.00  0.00     0.022 A 
ATOM     34  H4  UNL     1      -5.608  13.032 -18.020  1.00  0.00     0.166 HD
HETATM   35  C13 UNL     1      -4.301  13.019 -15.515  1.00  0.00     0.069 C 
HETATM   36  C14 UNL     1      -5.683  10.841 -15.778  1.00  0.00     0.122 A 
ENDBRANCH  25  30
ENDBRANCH  19  21
ENDBRANCH   1  19
TORSDOF 8
ENDMDL
MODEL 5
REMARK VINA RESULT: -7.782407011      2.789      3.717
REMARK  8 active torsions:
REMARK  status: ('A' for Active; 'I' for Inactive)
REMARK    1  A    between atoms: O1_2  and  C2_3 
REMARK    2  A    between atoms: C4_5  and  C5_6 
REMARK       I    between atoms: C5_6  and  N1_8 
REMARK    3  A    between atoms: N1_8  and  C6_10 
REMARK    4  A    between atoms: C6_10  and  N2_12 
REMARK    5  A    between atoms: N2_12  and  C7_14 
REMARK    6  A    between atoms: C10_18  and  N3_19 
REMARK    7  A    between atoms: C18_31  and  O3_32 
REMARK    8  A    between atoms: C20_34  and  O4_35 
ROOT
HETATM    1  C6  UNL     1      -9.742   1.810 -16.672  1.00  0.00     0.179 C 
HETATM    2  S1  UNL     1     -10.679   0.511 -16.174  1.00  0.00    -0.040 SA
ENDROOT
BRANCH   1   3
HETATM    3  N1  UNL     1      -8.439   1.800 -16.132  1.00  0.00    -0.299 N 
HETATM    4  C5  UNL     1      -7.972   2.281 -14.899  1.00  0.00     0.258 C 
HETATM    5  O2  UNL     1      -8.717   2.813 -14.075  1.00  0.00    -0.267 OA
ATOM      6  H1  UNL     1      -7.728   1.380 -16.730  1.00  0.00     0.171 HD
BRANCH   4   7
HETATM    7  C4  UNL     1      -6.539   2.154 -14.556  1.00  0.00     0.037 A 
HETATM    8  C3  UNL     1      -6.100   1.305 -13.593  1.00  0.00     0.057 A 
HETATM    9  C2  UNL     1      -4.734   1.211 -13.297  1.00  0.00     0.105 A 
HETATM   10  C20 UNL     1      -3.831   1.983 -13.986  1.00  0.00     0.135 A 
HETATM   11  C18 UNL     1      -4.262   2.865 -14.985  1.00  0.00     0.105 A 
HETATM   12  C17 UNL     1      -5.630   2.909 -15.228  1.00  0.00     0.057 A 
BRANCH   9  13
HETATM   13  O1  UNL     1      -4.269   0.354 -12.318  1.00  0.00    -0.353 OA
HETATM   14  C1  UNL     1      -4.235  -1.038 -12.534  1.00  0.00     0.210 C 
ENDBRANCH   9  13
BRANCH  10  15
HETATM   15  O4  UNL     1      -2.472   1.957 -13.761  1.00  0.00    -0.351 OA
HETATM   16  C21 UNL     1      -1.594   1.134 -14.470  1.00  0.00     0.210 C 
ENDBRANCH  10  15
BRANCH  11  17
HETATM   17  O3  UNL     1      -3.396   3.661 -15.707  1.00  0.00    -0.353 OA
HETATM   18  C19 UNL     1      -3.794   4.978 -16.025  1.00  0.00     0.210 C 
ENDBRANCH  11  17
ENDBRANCH   4   7
ENDBRANCH   1   3
BRANCH   1  19
HETATM   19  N2  UNL     1     -10.272   2.817 -17.476  1.00  0.00    -0.330 N 
ATOM     20  H2  UNL     1     -11.248   2.694 -17.746  1.00  0.00     0.168 HD
BRANCH  19  21
HETATM   21  C7  UNL     1      -9.652   3.977 -17.966  1.00  0.00     0.076 A 
HETATM   22  C8  UNL     1      -9.052   4.155 -19.182  1.00  0.00     0.059 A 
HETATM   23  C9  UNL     1      -8.401   5.341 -19.555  1.00  0.00     0.065 A 
HETATM   24 CL1  UNL     1      -7.666   5.469 -21.138  1.00  0.00    -0.082 Cl
HETATM   25  C10 UNL     1      -8.334   6.400 -18.696  1.00  0.00     0.086 A 
HETATM   26  C15 UNL     1      -8.931   6.243 -17.469  1.00  0.00     0.103 A 
HETATM   27 CL2  UNL     1      -8.872   7.586 -16.352  1.00  0.00    -0.078 Cl
HETATM   28  C16 UNL     1      -9.569   5.089 -17.097  1.00  0.00     0.167 A 
HETATM   29  F1  UNL     1     -10.152   4.988 -15.857  1.00  0.00    -0.202 F 
BRANCH  25  30
HETATM   30  N3  UNL     1      -7.658   7.597 -19.063  1.00  0.00    -0.313 N 
HETATM   31  C11 UNL     1      -8.244   8.673 -19.684  1.00  0.00     0.188 A 
HETATM   32  N4  UNL     1      -7.314   9.617 -19.873  1.00  0.00    -0.354 N 
HETATM   33  C12 UNL     1      -6.127   9.212 -19.402  1.00  0.00     0.022 A 
ATOM     34  H4  UNL     1      -7.486  10.520 -20.314  1.00  0.00     0.166 HD
HETATM   35  C13 UNL     1      -4.857   9.983 -19.432  1.00  0.00     0.069 C 
HETATM   36  C14 UNL     1      -6.375   7.949 -18.904  1.00  0.00     0.122 A 
ENDBRANCH  25  30
ENDBRANCH  19  21
ENDBRANCH   1  19
TORSDOF 8
ENDMDL
