MODEL 1
REMARK VINA RESULT: -7.394297788      0.000      0.000
REMARK  5 active torsions:
REMARK  status: ('A' for Active; 'I' for Inactive)
REMARK    1  A    between atoms: N1_1  and  N2_4 
REMARK    2  A    between atoms: N2_4  and  C1_5 
REMARK    3  A    between atoms: C1_5  and  C2_6 
REMARK       I    between atoms: C2_6  and  N3_8 
REMARK    4  A    between atoms: C10_25  and  C11_26 
REMARK    5  A    between atoms: C12_31  and  O4_32 
ROOT
HETATM    1  C2  UNL     1       8.759  21.245  15.669  1.00  0.00     0.238 C 
HETATM    2  O1  UNL     1       8.056  20.509  16.450  1.00  0.00    -0.272 OA
HETATM    3  N3  UNL     1       9.591  22.270  16.095  1.00  0.00    -0.324 N 
ATOM      4  H3  UNL     1       9.407  23.217  15.766  1.00  0.00     0.169 HD
HETATM    5  C3  UNL     1      10.612  22.073  16.908  1.00  0.00     0.089 C 
HETATM    6  C4  UNL     1      10.790  20.669  17.324  1.00  0.00     0.293 C 
HETATM    7  N4  UNL     1      10.941  19.787  16.210  1.00  0.00    -0.068 N 
ATOM      8  H41 UNL     1      11.607  20.150  15.528  1.00  0.00     0.277 HD
ATOM      9  H42 UNL     1      10.109  19.777  15.619  1.00  0.00     0.277 HD
HETATM   10  C5  UNL     1      11.298  18.460  16.656  1.00  0.00     0.251 C 
HETATM   11  C6  UNL     1      12.785  18.195  16.563  1.00  0.00     0.141 C 
HETATM   12  N5  UNL     1      13.543  18.862  17.593  1.00  0.00    -0.418 N 
ATOM     13  H5  UNL     1      13.242  18.885  18.567  1.00  0.00     0.153 HD
HETATM   14  C7  UNL     1      14.744  19.486  17.145  1.00  0.00     0.133 C 
HETATM   15  C8  UNL     1      14.629  20.986  17.122  1.00  0.00     0.140 C 
HETATM   16  N6  UNL     1      14.156  21.451  15.835  1.00  0.00    -0.375 N 
ATOM     17  H6  UNL     1      13.801  20.722  15.216  1.00  0.00     0.160 HD
HETATM   18  C9  UNL     1      14.111  22.742  15.313  1.00  0.00     0.146 C 
HETATM   19  N7  UNL     1      14.855  22.913  14.064  1.00  0.00    -0.080 NA
HETATM   20  C10 UNL     1      13.435  23.813  15.801  1.00  0.00     0.152 C 
HETATM   21  N8  UNL     1      12.602  23.788  16.957  1.00  0.00    -0.327 N 
ATOM     22  H8  UNL     1      13.026  24.282  17.742  1.00  0.00     0.168 HD
HETATM   23  C12 UNL     1      11.358  23.261  17.286  1.00  0.00     0.165 C 
ENDROOT
BRANCH  23  24
HETATM   24  O4  UNL     1      10.612  23.979  18.152  1.00  0.00    -0.345 OA
ATOM     25  H4  UNL     1      10.987  24.849  18.224  1.00  0.00     0.219 HD
ENDBRANCH  23  24
BRANCH   1  26
HETATM   26  C1  UNL     1       8.585  20.883  14.220  1.00  0.00     0.237 C 
BRANCH  26  27
HETATM   27  N2  UNL     1       7.250  21.097  13.770  1.00  0.00    -0.139 NA
BRANCH  27  28
HETATM   28  N1  UNL     1       6.949  20.403  12.594  1.00  0.00    -0.348 N 
ATOM     29  H12 UNL     1       7.671  20.029  11.977  1.00  0.00     0.172 HD
ATOM     30  H11 UNL     1       5.947  20.313  12.427  1.00  0.00     0.172 HD
ENDBRANCH  27  28
ENDBRANCH  26  27
ENDBRANCH   1  26
BRANCH  20  31
HETATM   31  C11 UNL     1      13.611  25.044  15.010  1.00  0.00     0.230 C 
HETATM   32  O2  UNL     1      14.571  25.795  15.201  1.00  0.00    -0.643 OA
HETATM   33  O3  UNL     1      12.712  25.397  14.038  1.00  0.00    -0.643 OA
ENDBRANCH  20  31
TORSDOF 5
ENDMDL
MODEL 2
REMARK VINA RESULT: -7.148753663      6.731      9.954
REMARK  5 active torsions:
REMARK  status: ('A' for Active; 'I' for Inactive)
REMARK    1  A    between atoms: N1_1  and  N2_4 
REMARK    2  A    between atoms: N2_4  and  C1_5 
REMARK    3  A    between atoms: C1_5  and  C2_6 
REMARK       I    between atoms: C2_6  and  N3_8 
REMARK    4  A    between atoms: C10_25  and  C11_26 
REMARK    5  A    between atoms: C12_31  and  O4_32 
ROOT
HETATM    1  C2  UNL     1      16.480  24.978  13.099  1.00  0.00     0.238 C 
HETATM    2  O1  UNL     1      16.207  23.725  13.073  1.00  0.00    -0.272 OA
HETATM    3  N3  UNL     1      17.684  25.526  12.681  1.00  0.00    -0.324 N 
ATOM      4  H3  UNL     1      18.243  26.048  13.355  1.00  0.00     0.169 HD
HETATM    5  C3  UNL     1      18.139  25.403  11.447  1.00  0.00     0.089 C 
HETATM    6  C4  UNL     1      17.255  24.630  10.554  1.00  0.00     0.293 C 
HETATM    7  N4  UNL     1      15.938  25.181  10.483  1.00  0.00    -0.068 N 
ATOM      8  H41 UNL     1      15.958  26.191  10.344  1.00  0.00     0.277 HD
ATOM      9  H42 UNL     1      15.470  25.160  11.389  1.00  0.00     0.277 HD
HETATM   10  C5  UNL     1      15.162  24.515   9.462  1.00  0.00     0.251 C 
HETATM   11  C6  UNL     1      15.128  25.286   8.160  1.00  0.00     0.141 C 
HETATM   12  N5  UNL     1      16.366  25.205   7.424  1.00  0.00    -0.418 N 
ATOM     13  H5  UNL     1      16.882  24.333   7.312  1.00  0.00     0.153 HD
HETATM   14  C7  UNL     1      16.813  26.438   6.866  1.00  0.00     0.133 C 
HETATM   15  C8  UNL     1      18.005  26.993   7.599  1.00  0.00     0.140 C 
HETATM   16  N6  UNL     1      17.590  27.872   8.673  1.00  0.00    -0.375 N 
ATOM     17  H6  UNL     1      16.595  27.844   8.895  1.00  0.00     0.160 HD
HETATM   18  C9  UNL     1      18.343  28.749   9.449  1.00  0.00     0.146 C 
HETATM   19  N7  UNL     1      17.902  30.144   9.383  1.00  0.00    -0.080 NA
HETATM   20  C10 UNL     1      19.381  28.451  10.270  1.00  0.00     0.152 C 
HETATM   21  N8  UNL     1      19.876  27.135  10.508  1.00  0.00    -0.327 N 
ATOM     22  H8  UNL     1      20.783  26.984  10.068  1.00  0.00     0.168 HD
HETATM   23  C12 UNL     1      19.435  26.005  11.188  1.00  0.00     0.165 C 
ENDROOT
BRANCH  23  24
HETATM   24  O4  UNL     1      20.385  25.249  11.774  1.00  0.00    -0.345 OA
ATOM     25  H4  UNL     1      20.720  25.717  12.530  1.00  0.00     0.219 HD
ENDBRANCH  23  24
BRANCH   1  26
HETATM   26  C1  UNL     1      15.350  25.806  13.641  1.00  0.00     0.237 C 
BRANCH  26  27
HETATM   27  N2  UNL     1      14.087  25.396  13.125  1.00  0.00    -0.139 NA
BRANCH  27  28
HETATM   28  N1  UNL     1      13.011  25.807  13.916  1.00  0.00    -0.348 N 
ATOM     29  H12 UNL     1      12.739  26.786  14.009  1.00  0.00     0.172 HD
ATOM     30  H11 UNL     1      12.536  25.033  14.381  1.00  0.00     0.172 HD
ENDBRANCH  27  28
ENDBRANCH  26  27
ENDBRANCH   1  26
BRANCH  20  31
HETATM   31  C11 UNL     1      19.971  29.624  10.943  1.00  0.00     0.230 C 
HETATM   32  O2  UNL     1      19.851  29.789  12.160  1.00  0.00    -0.643 OA
HETATM   33  O3  UNL     1      20.668  30.569  10.237  1.00  0.00    -0.643 OA
ENDBRANCH  20  31
TORSDOF 5
ENDMDL
MODEL 3
REMARK VINA RESULT: -6.566976353      2.208      6.203
REMARK  5 active torsions:
REMARK  status: ('A' for Active; 'I' for Inactive)
REMARK    1  A    between atoms: N1_1  and  N2_4 
REMARK    2  A    between atoms: N2_4  and  C1_5 
REMARK    3  A    between atoms: C1_5  and  C2_6 
REMARK       I    between atoms: C2_6  and  N3_8 
REMARK    4  A    between atoms: C10_25  and  C11_26 
REMARK    5  A    between atoms: C12_31  and  O4_32 
ROOT
HETATM    1  C2  UNL     1      14.495  21.576  17.110  1.00  0.00     0.238 C 
HETATM    2  O1  UNL     1      15.383  22.410  16.709  1.00  0.00    -0.272 OA
HETATM    3  N3  UNL     1      13.185  21.912  17.418  1.00  0.00    -0.324 N 
ATOM      4  H3  UNL     1      12.846  21.739  18.364  1.00  0.00     0.169 HD
HETATM    5  C3  UNL     1      12.356  22.446  16.540  1.00  0.00     0.089 C 
HETATM    6  C4  UNL     1      12.947  22.654  15.203  1.00  0.00     0.293 C 
HETATM    7  N4  UNL     1      13.460  21.445  14.642  1.00  0.00    -0.068 N 
ATOM      8  H41 UNL     1      12.799  20.675  14.734  1.00  0.00     0.277 HD
ATOM      9  H42 UNL     1      14.222  21.061  15.202  1.00  0.00     0.277 HD
HETATM   10  C5  UNL     1      13.856  21.650  13.268  1.00  0.00     0.251 C 
HETATM   11  C6  UNL     1      12.801  21.194  12.283  1.00  0.00     0.141 C 
HETATM   12  N5  UNL     1      11.675  22.093  12.206  1.00  0.00    -0.418 N 
ATOM     13  H5  UNL     1      11.783  23.106  12.173  1.00  0.00     0.153 HD
HETATM   14  C7  UNL     1      10.401  21.456  12.179  1.00  0.00     0.133 C 
HETATM   15  C8  UNL     1       9.655  21.624  13.476  1.00  0.00     0.140 C 
HETATM   16  N6  UNL     1       9.946  20.536  14.386  1.00  0.00    -0.375 N 
ATOM     17  H6  UNL     1      10.724  19.938  14.110  1.00  0.00     0.160 HD
HETATM   18  C9  UNL     1       9.325  20.183  15.582  1.00  0.00     0.146 C 
HETATM   19  N7  UNL     1       8.780  18.824  15.600  1.00  0.00    -0.080 NA
HETATM   20  C10 UNL     1       9.213  20.925  16.712  1.00  0.00     0.152 C 
HETATM   21  N8  UNL     1       9.761  22.231  16.882  1.00  0.00    -0.327 N 
ATOM     22  H8  UNL     1       9.037  22.948  16.893  1.00  0.00     0.168 HD
HETATM   23  C12 UNL     1      11.032  22.773  17.038  1.00  0.00     0.165 C 
ENDROOT
BRANCH  23  24
HETATM   24  O4  UNL     1      11.128  23.858  17.833  1.00  0.00    -0.345 OA
ATOM     25  H4  UNL     1      11.911  23.775  18.364  1.00  0.00     0.219 HD
ENDBRANCH  23  24
BRANCH   1  26
HETATM   26  C1  UNL     1      15.026  20.174  17.219  1.00  0.00     0.237 C 
BRANCH  26  27
HETATM   27  N2  UNL     1      15.798  19.801  16.082  1.00  0.00    -0.139 NA
BRANCH  27  28
HETATM   28  N1  UNL     1      17.176  19.873  16.305  1.00  0.00    -0.348 N 
ATOM     29  H12 UNL     1      17.796  19.073  16.179  1.00  0.00     0.172 HD
ATOM     30  H11 UNL     1      17.486  20.798  16.603  1.00  0.00     0.172 HD
ENDBRANCH  27  28
ENDBRANCH  26  27
ENDBRANCH   1  26
BRANCH  20  31
HETATM   31  C11 UNL     1       8.479  20.254  17.801  1.00  0.00     0.230 C 
HETATM   32  O2  UNL     1       9.055  19.500  18.589  1.00  0.00    -0.643 OA
HETATM   33  O3  UNL     1       7.133  20.445  17.971  1.00  0.00    -0.643 OA
ENDBRANCH  20  31
TORSDOF 5
ENDMDL
MODEL 4
REMARK VINA RESULT: -6.516260091      8.760     11.591
REMARK  5 active torsions:
REMARK  status: ('A' for Active; 'I' for Inactive)
REMARK    1  A    between atoms: N1_1  and  N2_4 
REMARK    2  A    between atoms: N2_4  and  C1_5 
REMARK    3  A    between atoms: C1_5  and  C2_6 
REMARK       I    between atoms: C2_6  and  N3_8 
REMARK    4  A    between atoms: C10_25  and  C11_26 
REMARK    5  A    between atoms: C12_31  and  O4_32 
ROOT
HETATM    1  C2  UNL     1      17.713  28.118   6.756  1.00  0.00     0.238 C 
HETATM    2  O1  UNL     1      16.619  28.787   6.736  1.00  0.00    -0.272 OA
HETATM    3  N3  UNL     1      18.426  27.815   7.908  1.00  0.00    -0.324 N 
ATOM      4  H3  UNL     1      19.384  28.153   7.992  1.00  0.00     0.169 HD
HETATM    5  C3  UNL     1      17.918  27.107   8.900  1.00  0.00     0.089 C 
HETATM    6  C4  UNL     1      16.527  26.668   8.676  1.00  0.00     0.293 C 
HETATM    7  N4  UNL     1      16.383  25.906   7.476  1.00  0.00    -0.068 N 
ATOM      8  H41 UNL     1      17.107  25.192   7.393  1.00  0.00     0.277 HD
ATOM      9  H42 UNL     1      16.615  26.457   6.649  1.00  0.00     0.277 HD
HETATM   10  C5  UNL     1      15.058  25.339   7.389  1.00  0.00     0.251 C 
HETATM   11  C6  UNL     1      15.011  23.896   7.842  1.00  0.00     0.141 C 
HETATM   12  N5  UNL     1      15.096  23.751   9.275  1.00  0.00    -0.418 N 
ATOM     13  H5  UNL     1      14.575  24.347   9.918  1.00  0.00     0.153 HD
HETATM   14  C7  UNL     1      15.962  22.712   9.722  1.00  0.00     0.133 C 
HETATM   15  C8  UNL     1      17.232  23.252  10.323  1.00  0.00     0.140 C 
HETATM   16  N6  UNL     1      18.264  23.392   9.316  1.00  0.00    -0.375 N 
ATOM     17  H6  UNL     1      17.944  23.291   8.353  1.00  0.00     0.160 HD
HETATM   18  C9  UNL     1      19.626  23.643   9.463  1.00  0.00     0.146 C 
HETATM   19  N7  UNL     1      20.494  22.617   8.883  1.00  0.00    -0.080 NA
HETATM   20  C10 UNL     1      20.215  24.726  10.029  1.00  0.00     0.152 C 
HETATM   21  N8  UNL     1      19.512  25.846  10.564  1.00  0.00    -0.327 N 
ATOM     22  H8  UNL     1      19.551  25.869  11.582  1.00  0.00     0.168 HD
HETATM   23  C12 UNL     1      18.786  26.914  10.048  1.00  0.00     0.165 C 
ENDROOT
BRANCH  23  24
HETATM   24  O4  UNL     1      18.871  28.078  10.723  1.00  0.00    -0.345 OA
ATOM     25  H4  UNL     1      19.577  28.593  10.349  1.00  0.00     0.219 HD
ENDBRANCH  23  24
BRANCH   1  26
HETATM   26  C1  UNL     1      18.157  27.693   5.385  1.00  0.00     0.237 C 
BRANCH  26  27
HETATM   27  N2  UNL     1      19.108  28.594   4.824  1.00  0.00    -0.139 NA
BRANCH  27  28
HETATM   28  N1  UNL     1      18.886  29.924   5.190  1.00  0.00    -0.348 N 
ATOM     29  H12 UNL     1      18.637  30.645   4.513  1.00  0.00     0.172 HD
ATOM     30  H11 UNL     1      18.998  30.090   6.190  1.00  0.00     0.172 HD
ENDBRANCH  27  28
ENDBRANCH  26  27
ENDBRANCH   1  26
BRANCH  20  31
HETATM   31  C11 UNL     1      21.689  24.674  10.034  1.00  0.00     0.230 C 
HETATM   32  O2  UNL     1      22.350  25.217   9.146  1.00  0.00    -0.643 OA
HETATM   33  O3  UNL     1      22.371  24.018  11.025  1.00  0.00    -0.643 OA
ENDBRANCH  20  31
TORSDOF 5
ENDMDL
MODEL 5
REMARK VINA RESULT: -6.512312805      5.753      8.515
REMARK  5 active torsions:
REMARK  status: ('A' for Active; 'I' for Inactive)
REMARK    1  A    between atoms: N1_1  and  N2_4 
REMARK    2  A    between atoms: N2_4  and  C1_5 
REMARK    3  A    between atoms: C1_5  and  C2_6 
REMARK       I    between atoms: C2_6  and  N3_8 
REMARK    4  A    between atoms: C10_25  and  C11_26 
REMARK    5  A    between atoms: C12_31  and  O4_32 
ROOT
HETATM    1  C2  UNL     1      15.592  25.211  13.637  1.00  0.00     0.238 C 
HETATM    2  O1  UNL     1      15.504  24.165  14.374  1.00  0.00    -0.272 OA
HETATM    3  N3  UNL     1      16.552  25.399  12.653  1.00  0.00    -0.324 N 
ATOM      4  H3  UNL     1      17.187  26.192  12.737  1.00  0.00     0.169 HD
HETATM    5  C3  UNL     1      16.681  24.595  11.614  1.00  0.00     0.089 C 
HETATM    6  C4  UNL     1      15.713  23.481  11.591  1.00  0.00     0.293 C 
HETATM    7  N4  UNL     1      14.360  23.935  11.629  1.00  0.00    -0.068 N 
ATOM      8  H41 UNL     1      14.197  24.695  10.968  1.00  0.00     0.277 HD
ATOM      9  H42 UNL     1      14.153  24.437  12.493  1.00  0.00     0.277 HD
HETATM   10  C5  UNL     1      13.447  22.835  11.416  1.00  0.00     0.251 C 
HETATM   11  C6  UNL     1      12.963  22.749   9.985  1.00  0.00     0.141 C 
HETATM   12  N5  UNL     1      13.963  22.236   9.080  1.00  0.00    -0.418 N 
ATOM     13  H5  UNL     1      14.550  21.435   9.310  1.00  0.00     0.153 HD
HETATM   14  C7  UNL     1      14.066  22.934   7.842  1.00  0.00     0.133 C 
HETATM   15  C8  UNL     1      15.315  23.770   7.765  1.00  0.00     0.140 C 
HETATM   16  N6  UNL     1      15.075  25.110   8.259  1.00  0.00    -0.375 N 
ATOM     17  H6  UNL     1      14.187  25.238   8.745  1.00  0.00     0.160 HD
HETATM   18  C9  UNL     1      15.871  26.249   8.173  1.00  0.00     0.146 C 
HETATM   19  N7  UNL     1      15.232  27.381   7.499  1.00  0.00    -0.080 NA
HETATM   20  C10 UNL     1      17.119  26.431   8.671  1.00  0.00     0.152 C 
HETATM   21  N8  UNL     1      17.843  25.458   9.422  1.00  0.00    -0.327 N 
ATOM     22  H8  UNL     1      18.615  25.062   8.886  1.00  0.00     0.168 HD
HETATM   23  C12 UNL     1      17.763  24.913  10.698  1.00  0.00     0.165 C 
ENDROOT
BRANCH  23  24
HETATM   24  O4  UNL     1      18.932  24.586  11.286  1.00  0.00    -0.345 OA
ATOM     25  H4  UNL     1      19.511  24.224  10.625  1.00  0.00     0.219 HD
ENDBRANCH  23  24
BRANCH   1  26
HETATM   26  C1  UNL     1      14.536  26.233  13.953  1.00  0.00     0.237 C 
BRANCH  26  27
HETATM   27  N2  UNL     1      13.227  25.771  13.631  1.00  0.00    -0.139 NA
BRANCH  27  28
HETATM   28  N1  UNL     1      12.573  25.176  14.713  1.00  0.00    -0.348 N 
ATOM     29  H12 UNL     1      12.761  25.439  15.680  1.00  0.00     0.172 HD
ATOM     30  H11 UNL     1      11.899  24.463  14.431  1.00  0.00     0.172 HD
ENDBRANCH  27  28
ENDBRANCH  26  27
ENDBRANCH   1  26
BRANCH  20  31
HETATM   31  C11 UNL     1      17.690  27.762   8.392  1.00  0.00     0.230 C 
HETATM   32  O2  UNL     1      17.598  28.680   9.211  1.00  0.00    -0.643 OA
HETATM   33  O3  UNL     1      18.336  28.023   7.213  1.00  0.00    -0.643 OA
ENDBRANCH  20  31
TORSDOF 5
ENDMDL
