MODEL 1
REMARK VINA RESULT: -7.270043732      0.000      0.000
REMARK  14 active torsions:
REMARK  status: ('A' for Active; 'I' for Inactive)
REMARK    1  A    between atoms: C2_2  and  C4_4 
REMARK    2  A    between atoms: C4_4  and  N1_5 
REMARK    3  A    between atoms: N1_5  and  C5_6 
REMARK    4  A    between atoms: N1_5  and  C9_14 
REMARK    5  A    between atoms: C5_6  and  C6_7 
REMARK    6  A    between atoms: C9_14  and  C10_15 
REMARK    7  A    between atoms: C10_15  and  O1_16 
REMARK    8  A    between atoms: C10_15  and  C11_18 
REMARK    9  A    between atoms: C11_18  and  C12_19 
REMARK   10  A    between atoms: C12_19  and  C13_20 
REMARK   11  A    between atoms: C12_19  and  C24_31 
REMARK   12  A    between atoms: C13_20  and  C14_21 
REMARK   13  A    between atoms: C19_26  and  C20_27 
REMARK       I    between atoms: C24_31  and  N4_33 
REMARK   14  A    between atoms: C27_36  and  C28_37 
ROOT
HETATM    1  C12 UNL     1      -9.418  37.249   1.050  1.00  0.00     0.081 C 
ENDROOT
BRANCH   1   2
HETATM    2  C11 UNL     1      -7.909  37.193   1.135  1.00  0.00     0.047 C 
BRANCH   2   3
HETATM    3  C10 UNL     1      -7.440  36.143   0.141  1.00  0.00     0.137 C 
BRANCH   3   4
HETATM    4  C9  UNL     1      -7.582  34.736   0.612  1.00  0.00     0.159 C 
BRANCH   4   5
HETATM    5  N1  UNL     1      -6.600  33.781   0.115  1.00  0.00    -0.365 N 
BRANCH   5   6
HETATM    6  C4  UNL     1      -5.653  33.389   1.019  1.00  0.00     0.067 C 
BRANCH   6   7
HETATM    7  C2  UNL     1      -4.316  33.944   1.233  1.00  0.00     0.016 C 
HETATM    8  C1  UNL     1      -3.216  33.023   1.627  1.00  0.00     0.015 C 
HETATM    9  C3  UNL     1      -4.439  34.976   2.375  1.00  0.00     0.015 C 
ENDBRANCH   6   7
ENDBRANCH   5   6
BRANCH   5  10
HETATM   10  C5  UNL     1      -6.968  33.186  -1.072  1.00  0.00     0.121 C 
BRANCH  10  11
HETATM   11  C6  UNL     1      -7.980  32.147  -1.167  1.00  0.00     0.064 A 
HETATM   12  C7  UNL     1      -8.092  30.920  -0.576  1.00  0.00     0.119 A 
HETATM   13  N2  UNL     1      -9.211  30.355  -1.031  1.00  0.00    -0.360 N 
HETATM   14  C8  UNL     1      -9.825  31.186  -1.901  1.00  0.00     0.180 A 
ATOM     15  H2  UNL     1      -9.553  29.433  -0.762  1.00  0.00     0.166 HD
HETATM   16  N3  UNL     1      -9.073  32.277  -1.982  1.00  0.00    -0.350 N 
ATOM     17  H3  UNL     1      -9.278  33.089  -2.564  1.00  0.00     0.166 HD
ENDBRANCH  10  11
ENDBRANCH   5  10
ENDBRANCH   4   5
ENDBRANCH   3   4
BRANCH   3  18
HETATM   18  O1  UNL     1      -6.207  36.427  -0.382  1.00  0.00    -0.394 OA
ATOM     19  H1  UNL     1      -5.984  35.902  -1.142  1.00  0.00     0.210 HD
ENDBRANCH   3  18
ENDBRANCH   2   3
ENDBRANCH   1   2
BRANCH   1  20
HETATM   20  C13 UNL     1      -9.958  38.634   1.384  1.00  0.00     0.019 C 
BRANCH  20  21
HETATM   21  C14 UNL     1      -8.975  39.723   1.203  1.00  0.00    -0.009 C 
HETATM   22  C15 UNL     1      -9.441  40.495  -0.049  1.00  0.00     0.005 C 
HETATM   23  C16 UNL     1      -8.722  41.755  -0.294  1.00  0.00     0.000 C 
HETATM   24  C17 UNL     1      -7.502  41.998   0.527  1.00  0.00     0.000 C 
HETATM   25  C18 UNL     1      -7.586  41.543   1.945  1.00  0.00     0.005 C 
HETATM   26  C19 UNL     1      -8.850  40.750   2.242  1.00  0.00    -0.003 C 
BRANCH  26  27
HETATM   27  C20 UNL     1      -8.841  40.408   3.673  1.00  0.00    -0.047 C 
HETATM   28  C21 UNL     1     -10.148  39.967   4.278  1.00  0.00     0.015 C 
HETATM   29  C22 UNL     1      -8.435  41.688   4.428  1.00  0.00     0.015 C 
HETATM   30  C23 UNL     1      -7.721  39.423   4.035  1.00  0.00     0.015 C 
ENDBRANCH  26  27
ENDBRANCH  20  21
ENDBRANCH   1  20
BRANCH   1  31
HETATM   31  C24 UNL     1      -9.955  36.389   2.139  1.00  0.00     0.224 C 
HETATM   32  O2  UNL     1      -9.653  36.640   3.319  1.00  0.00    -0.273 OA
HETATM   33  N4  UNL     1     -10.797  35.310   1.838  1.00  0.00    -0.352 N 
HETATM   34  C25 UNL     1     -11.315  34.485   2.948  1.00  0.00     0.126 C 
HETATM   35  C30 UNL     1     -11.212  34.910   0.530  1.00  0.00     0.126 C 
HETATM   36  C26 UNL     1     -10.559  33.182   2.840  1.00  0.00     0.033 C 
HETATM   37  C27 UNL     1     -10.765  32.614   1.471  1.00  0.00     0.078 C 
HETATM   38  C29 UNL     1     -11.624  33.451   0.568  1.00  0.00     0.033 C 
BRANCH  37  39
HETATM   39  C28 UNL     1     -11.413  31.260   1.532  1.00  0.00     0.235 C 
HETATM   40  N5  UNL     1     -11.351  30.562   2.745  1.00  0.00    -0.062 NA
HETATM   41  O3  UNL     1     -11.966  30.839   0.504  1.00  0.00    -0.277 OA
ENDBRANCH  37  39
ENDBRANCH   1  31
TORSDOF 14
ENDMDL
MODEL 2
REMARK VINA RESULT: -6.954229102      2.613      5.621
REMARK  14 active torsions:
REMARK  status: ('A' for Active; 'I' for Inactive)
REMARK    1  A    between atoms: C2_2  and  C4_4 
REMARK    2  A    between atoms: C4_4  and  N1_5 
REMARK    3  A    between atoms: N1_5  and  C5_6 
REMARK    4  A    between atoms: N1_5  and  C9_14 
REMARK    5  A    between atoms: C5_6  and  C6_7 
REMARK    6  A    between atoms: C9_14  and  C10_15 
REMARK    7  A    between atoms: C10_15  and  O1_16 
REMARK    8  A    between atoms: C10_15  and  C11_18 
REMARK    9  A    between atoms: C11_18  and  C12_19 
REMARK   10  A    between atoms: C12_19  and  C13_20 
REMARK   11  A    between atoms: C12_19  and  C24_31 
REMARK   12  A    between atoms: C13_20  and  C14_21 
REMARK   13  A    between atoms: C19_26  and  C20_27 
REMARK       I    between atoms: C24_31  and  N4_33 
REMARK   14  A    between atoms: C27_36  and  C28_37 
ROOT
HETATM    1  C12 UNL     1      -7.416  37.174   3.299  1.00  0.00     0.081 C 
ENDROOT
BRANCH   1   2
HETATM    2  C11 UNL     1      -8.901  37.312   3.550  1.00  0.00     0.047 C 
BRANCH   2   3
HETATM    3  C10 UNL     1      -9.466  35.909   3.690  1.00  0.00     0.137 C 
BRANCH   3   4
HETATM    4  C9  UNL     1     -10.381  35.496   2.588  1.00  0.00     0.159 C 
BRANCH   4   5
HETATM    5  N1  UNL     1     -10.774  34.093   2.559  1.00  0.00    -0.365 N 
BRANCH   5   6
HETATM    6  C4  UNL     1     -12.087  33.846   2.842  1.00  0.00     0.067 C 
BRANCH   6   7
HETATM    7  C2  UNL     1     -13.264  34.139   2.023  1.00  0.00     0.016 C 
HETATM    8  C1  UNL     1     -14.449  34.762   2.673  1.00  0.00     0.015 C 
HETATM    9  C3  UNL     1     -13.751  32.794   1.444  1.00  0.00     0.015 C 
ENDBRANCH   6   7
ENDBRANCH   5   6
BRANCH   5  10
HETATM   10  C5  UNL     1      -9.848  33.279   1.942  1.00  0.00     0.121 C 
BRANCH  10  11
HETATM   11  C6  UNL     1     -10.103  32.579   0.694  1.00  0.00     0.064 A 
HETATM   12  C7  UNL     1     -10.430  33.023  -0.556  1.00  0.00     0.119 A 
HETATM   13  N2  UNL     1     -10.577  31.952  -1.337  1.00  0.00    -0.360 N 
HETATM   14  C8  UNL     1     -10.354  30.828  -0.623  1.00  0.00     0.180 A 
ATOM     15  H2  UNL     1     -10.822  31.978  -2.327  1.00  0.00     0.166 HD
HETATM   16  N3  UNL     1     -10.066  31.212   0.614  1.00  0.00    -0.350 N 
ATOM     17  H3  UNL     1      -9.849  30.584   1.388  1.00  0.00     0.166 HD
ENDBRANCH  10  11
ENDBRANCH   5  10
ENDBRANCH   4   5
ENDBRANCH   3   4
BRANCH   3  18
HETATM   18  O1  UNL     1      -9.967  35.666   4.941  1.00  0.00    -0.394 OA
ATOM     19  H1  UNL     1     -10.850  35.993   5.070  1.00  0.00     0.210 HD
ENDBRANCH   3  18
ENDBRANCH   2   3
ENDBRANCH   1   2
BRANCH   1  20
HETATM   20  C13 UNL     1      -6.671  38.480   3.545  1.00  0.00     0.019 C 
BRANCH  20  21
HETATM   21  C14 UNL     1      -6.108  38.604   4.906  1.00  0.00    -0.009 C 
HETATM   22  C15 UNL     1      -5.552  37.207   5.252  1.00  0.00     0.005 C 
HETATM   23  C16 UNL     1      -4.754  37.154   6.486  1.00  0.00     0.000 C 
HETATM   24  C17 UNL     1      -4.789  38.363   7.357  1.00  0.00     0.000 C 
HETATM   25  C18 UNL     1      -4.815  39.668   6.635  1.00  0.00     0.005 C 
HETATM   26  C19 UNL     1      -4.979  39.514   5.130  1.00  0.00    -0.003 C 
BRANCH  26  27
HETATM   27  C20 UNL     1      -4.936  40.858   4.533  1.00  0.00    -0.047 C 
HETATM   28  C21 UNL     1      -4.358  40.969   3.145  1.00  0.00     0.015 C 
HETATM   29  C22 UNL     1      -4.030  41.712   5.439  1.00  0.00     0.015 C 
HETATM   30  C23 UNL     1      -6.286  41.580   4.612  1.00  0.00     0.015 C 
ENDBRANCH  26  27
ENDBRANCH  20  21
ENDBRANCH   1  20
BRANCH   1  31
HETATM   31  C24 UNL     1      -7.232  36.932   1.842  1.00  0.00     0.224 C 
HETATM   32  O2  UNL     1      -7.811  37.670   1.025  1.00  0.00    -0.273 OA
HETATM   33  N4  UNL     1      -6.412  35.888   1.396  1.00  0.00    -0.352 N 
HETATM   34  C25 UNL     1      -6.250  35.686  -0.057  1.00  0.00     0.126 C 
HETATM   35  C30 UNL     1      -5.701  34.967   2.227  1.00  0.00     0.126 C 
HETATM   36  C26 UNL     1      -7.035  34.431  -0.358  1.00  0.00     0.033 C 
HETATM   37  C27 UNL     1      -6.520  33.319   0.503  1.00  0.00     0.078 C 
HETATM   38  C29 UNL     1      -5.407  33.711   1.431  1.00  0.00     0.033 C 
BRANCH  37  39
HETATM   39  C28 UNL     1      -5.998  32.182  -0.326  1.00  0.00     0.235 C 
HETATM   40  N5  UNL     1      -6.888  31.150  -0.652  1.00  0.00    -0.062 NA
HETATM   41  O3  UNL     1      -4.807  32.222  -0.674  1.00  0.00    -0.277 OA
ENDBRANCH  37  39
ENDBRANCH   1  31
TORSDOF 14
ENDMDL
MODEL 3
REMARK VINA RESULT: -6.910943565      1.168      1.575
REMARK  14 active torsions:
REMARK  status: ('A' for Active; 'I' for Inactive)
REMARK    1  A    between atoms: C2_2  and  C4_4 
REMARK    2  A    between atoms: C4_4  and  N1_5 
REMARK    3  A    between atoms: N1_5  and  C5_6 
REMARK    4  A    between atoms: N1_5  and  C9_14 
REMARK    5  A    between atoms: C5_6  and  C6_7 
REMARK    6  A    between atoms: C9_14  and  C10_15 
REMARK    7  A    between atoms: C10_15  and  O1_16 
REMARK    8  A    between atoms: C10_15  and  C11_18 
REMARK    9  A    between atoms: C11_18  and  C12_19 
REMARK   10  A    between atoms: C12_19  and  C13_20 
REMARK   11  A    between atoms: C12_19  and  C24_31 
REMARK   12  A    between atoms: C13_20  and  C14_21 
REMARK   13  A    between atoms: C19_26  and  C20_27 
REMARK       I    between atoms: C24_31  and  N4_33 
REMARK   14  A    between atoms: C27_36  and  C28_37 
ROOT
HETATM    1  C12 UNL     1      -8.744  37.354   2.204  1.00  0.00     0.081 C 
ENDROOT
BRANCH   1   2
HETATM    2  C11 UNL     1      -7.335  36.916   1.870  1.00  0.00     0.047 C 
BRANCH   2   3
HETATM    3  C10 UNL     1      -7.401  36.141   0.565  1.00  0.00     0.137 C 
BRANCH   3   4
HETATM    4  C9  UNL     1      -7.651  34.679   0.724  1.00  0.00     0.159 C 
BRANCH   4   5
HETATM    5  N1  UNL     1      -6.628  33.784   0.199  1.00  0.00    -0.365 N 
BRANCH   5   6
HETATM    6  C4  UNL     1      -5.657  33.419   1.087  1.00  0.00     0.067 C 
BRANCH   6   7
HETATM    7  C2  UNL     1      -4.301  33.954   1.222  1.00  0.00     0.016 C 
HETATM    8  C1  UNL     1      -3.198  33.021   1.579  1.00  0.00     0.015 C 
HETATM    9  C3  UNL     1      -4.348  35.011   2.345  1.00  0.00     0.015 C 
ENDBRANCH   6   7
ENDBRANCH   5   6
BRANCH   5  10
HETATM   10  C5  UNL     1      -6.978  33.197  -0.998  1.00  0.00     0.121 C 
BRANCH  10  11
HETATM   11  C6  UNL     1      -8.024  32.196  -1.124  1.00  0.00     0.064 A 
HETATM   12  C7  UNL     1      -8.162  30.943  -0.596  1.00  0.00     0.119 A 
HETATM   13  N2  UNL     1      -9.309  30.438  -1.054  1.00  0.00    -0.360 N 
HETATM   14  C8  UNL     1      -9.914  31.333  -1.863  1.00  0.00     0.180 A 
ATOM     15  H2  UNL     1      -9.674  29.513  -0.826  1.00  0.00     0.166 HD
HETATM   16  N3  UNL     1      -9.130  32.402  -1.904  1.00  0.00    -0.350 N 
ATOM     17  H3  UNL     1      -9.322  33.250  -2.437  1.00  0.00     0.166 HD
ENDBRANCH  10  11
ENDBRANCH   5  10
ENDBRANCH   4   5
ENDBRANCH   3   4
BRANCH   3  18
HETATM   18  O1  UNL     1      -6.359  36.433  -0.274  1.00  0.00    -0.394 OA
ATOM     19  H1  UNL     1      -5.535  36.041  -0.011  1.00  0.00     0.210 HD
ENDBRANCH   3  18
ENDBRANCH   2   3
ENDBRANCH   1   2
BRANCH   1  20
HETATM   20  C13 UNL     1      -8.762  38.595   3.087  1.00  0.00     0.019 C 
BRANCH  20  21
HETATM   21  C14 UNL     1      -7.678  39.556   2.797  1.00  0.00    -0.009 C 
HETATM   22  C15 UNL     1      -8.367  40.774   2.147  1.00  0.00     0.005 C 
HETATM   23  C16 UNL     1      -7.498  41.946   1.966  1.00  0.00     0.000 C 
HETATM   24  C17 UNL     1      -6.040  41.738   2.194  1.00  0.00     0.000 C 
HETATM   25  C18 UNL     1      -5.696  40.818   3.317  1.00  0.00     0.005 C 
HETATM   26  C19 UNL     1      -6.910  40.122   3.912  1.00  0.00    -0.003 C 
BRANCH  26  27
HETATM   27  C20 UNL     1      -6.448  39.292   5.035  1.00  0.00    -0.047 C 
HETATM   28  C21 UNL     1      -7.498  38.801   5.998  1.00  0.00     0.015 C 
HETATM   29  C22 UNL     1      -5.490  40.168   5.863  1.00  0.00     0.015 C 
HETATM   30  C23 UNL     1      -5.552  38.133   4.580  1.00  0.00     0.015 C 
ENDBRANCH  26  27
ENDBRANCH  20  21
ENDBRANCH   1  20
BRANCH   1  31
HETATM   31  C24 UNL     1      -9.345  36.299   3.064  1.00  0.00     0.224 C 
HETATM   32  O2  UNL     1      -8.897  36.122   4.211  1.00  0.00    -0.273 OA
HETATM   33  N4  UNL     1     -10.406  35.518   2.589  1.00  0.00    -0.352 N 
HETATM   34  C25 UNL     1     -10.979  34.487   3.477  1.00  0.00     0.126 C 
HETATM   35  C30 UNL     1     -11.004  35.614   1.294  1.00  0.00     0.126 C 
HETATM   36  C26 UNL     1     -10.508  33.176   2.893  1.00  0.00     0.033 C 
HETATM   37  C27 UNL     1     -10.941  33.100   1.462  1.00  0.00     0.078 C 
HETATM   38  C29 UNL     1     -11.691  34.303   0.969  1.00  0.00     0.033 C 
BRANCH  37  39
HETATM   39  C28 UNL     1     -11.837  31.918   1.223  1.00  0.00     0.235 C 
HETATM   40  N5  UNL     1     -11.266  30.641   1.306  1.00  0.00    -0.062 NA
HETATM   41  O3  UNL     1     -13.030  32.142   0.966  1.00  0.00    -0.277 OA
ENDBRANCH  37  39
ENDBRANCH   1  31
TORSDOF 14
ENDMDL
MODEL 4
REMARK VINA RESULT: -6.798107999      3.297      6.890
REMARK  14 active torsions:
REMARK  status: ('A' for Active; 'I' for Inactive)
REMARK    1  A    between atoms: C2_2  and  C4_4 
REMARK    2  A    between atoms: C4_4  and  N1_5 
REMARK    3  A    between atoms: N1_5  and  C5_6 
REMARK    4  A    between atoms: N1_5  and  C9_14 
REMARK    5  A    between atoms: C5_6  and  C6_7 
REMARK    6  A    between atoms: C9_14  and  C10_15 
REMARK    7  A    between atoms: C10_15  and  O1_16 
REMARK    8  A    between atoms: C10_15  and  C11_18 
REMARK    9  A    between atoms: C11_18  and  C12_19 
REMARK   10  A    between atoms: C12_19  and  C13_20 
REMARK   11  A    between atoms: C12_19  and  C24_31 
REMARK   12  A    between atoms: C13_20  and  C14_21 
REMARK   13  A    between atoms: C19_26  and  C20_27 
REMARK       I    between atoms: C24_31  and  N4_33 
REMARK   14  A    between atoms: C27_36  and  C28_37 
ROOT
HETATM    1  C12 UNL     1      -8.960  32.288   0.312  1.00  0.00     0.081 C 
ENDROOT
BRANCH   1   2
HETATM    2  C11 UNL     1      -9.856  32.718   1.452  1.00  0.00     0.047 C 
BRANCH   2   3
HETATM    3  C10 UNL     1     -11.010  31.732   1.515  1.00  0.00     0.137 C 
BRANCH   3   4
HETATM    4  C9  UNL     1     -12.356  32.339   1.308  1.00  0.00     0.159 C 
BRANCH   4   5
HETATM    5  N1  UNL     1     -12.494  33.749   1.653  1.00  0.00    -0.365 N 
BRANCH   5   6
HETATM    6  C4  UNL     1     -12.524  34.611   0.594  1.00  0.00     0.067 C 
BRANCH   6   7
HETATM    7  C2  UNL     1     -12.182  36.034   0.570  1.00  0.00     0.016 C 
HETATM    8  C1  UNL     1     -12.745  36.886  -0.512  1.00  0.00     0.015 C 
HETATM    9  C3  UNL     1     -10.647  36.121   0.428  1.00  0.00     0.015 C 
ENDBRANCH   6   7
ENDBRANCH   5   6
BRANCH   5  10
HETATM   10  C5  UNL     1     -12.893  33.956   2.956  1.00  0.00     0.121 C 
BRANCH  10  11
HETATM   11  C6  UNL     1     -12.064  34.614   3.952  1.00  0.00     0.064 A 
HETATM   12  C7  UNL     1     -10.763  35.032   3.931  1.00  0.00     0.119 A 
HETATM   13  N2  UNL     1     -10.490  35.557   5.127  1.00  0.00    -0.360 N 
HETATM   14  C8  UNL     1     -11.581  35.488   5.919  1.00  0.00     0.180 A 
ATOM     15  H2  UNL     1      -9.591  35.951   5.402  1.00  0.00     0.166 HD
HETATM   16  N3  UNL     1     -12.538  34.914   5.201  1.00  0.00    -0.350 N 
ATOM     17  H3  UNL     1     -13.485  34.723   5.531  1.00  0.00     0.166 HD
ENDBRANCH  10  11
ENDBRANCH   5  10
ENDBRANCH   4   5
ENDBRANCH   3   4
BRANCH   3  18
HETATM   18  O1  UNL     1     -10.940  30.907   2.606  1.00  0.00    -0.394 OA
ATOM     19  H1  UNL     1     -10.846  29.988   2.385  1.00  0.00     0.210 HD
ENDBRANCH   3  18
ENDBRANCH   2   3
ENDBRANCH   1   2
BRANCH   1  20
HETATM   20  C13 UNL     1      -7.984  33.385  -0.093  1.00  0.00     0.019 C 
BRANCH  20  21
HETATM   21  C14 UNL     1      -6.639  33.243   0.502  1.00  0.00    -0.009 C 
HETATM   22  C15 UNL     1      -5.802  32.482  -0.548  1.00  0.00     0.005 C 
HETATM   23  C16 UNL     1      -4.363  32.413  -0.252  1.00  0.00     0.000 C 
HETATM   24  C17 UNL     1      -3.940  32.853   1.108  1.00  0.00     0.000 C 
HETATM   25  C18 UNL     1      -4.679  34.026   1.657  1.00  0.00     0.005 C 
HETATM   26  C19 UNL     1      -5.855  34.449   0.791  1.00  0.00    -0.003 C 
BRANCH  26  27
HETATM   27  C20 UNL     1      -6.463  35.639   1.406  1.00  0.00    -0.047 C 
HETATM   28  C21 UNL     1      -7.128  36.623   0.478  1.00  0.00     0.015 C 
HETATM   29  C22 UNL     1      -5.321  36.410   2.093  1.00  0.00     0.015 C 
HETATM   30  C23 UNL     1      -7.395  35.286   2.573  1.00  0.00     0.015 C 
ENDBRANCH  26  27
ENDBRANCH  20  21
ENDBRANCH   1  20
BRANCH   1  31
HETATM   31  C24 UNL     1      -9.822  32.122  -0.890  1.00  0.00     0.224 C 
HETATM   32  O2  UNL     1     -10.261  33.132  -1.468  1.00  0.00    -0.273 OA
HETATM   33  N4  UNL     1     -10.131  30.842  -1.368  1.00  0.00    -0.352 N 
HETATM   34  C25 UNL     1     -10.983  30.720  -2.567  1.00  0.00     0.126 C 
HETATM   35  C30 UNL     1      -9.700  29.606  -0.793  1.00  0.00     0.126 C 
HETATM   36  C26 UNL     1     -12.309  30.219  -2.044  1.00  0.00     0.033 C 
HETATM   37  C27 UNL     1     -12.082  28.946  -1.290  1.00  0.00     0.078 C 
HETATM   38  C29 UNL     1     -10.649  28.505  -1.222  1.00  0.00     0.033 C 
BRANCH  37  39
HETATM   39  C28 UNL     1     -12.846  27.806  -1.898  1.00  0.00     0.235 C 
HETATM   40  N5  UNL     1     -12.704  27.586  -3.274  1.00  0.00    -0.062 NA
HETATM   41  O3  UNL     1     -13.561  27.124  -1.146  1.00  0.00    -0.277 OA
ENDBRANCH  37  39
ENDBRANCH   1  31
TORSDOF 14
ENDMDL
MODEL 5
REMARK VINA RESULT: -6.761513173      2.405      3.716
REMARK  14 active torsions:
REMARK  status: ('A' for Active; 'I' for Inactive)
REMARK    1  A    between atoms: C2_2  and  C4_4 
REMARK    2  A    between atoms: C4_4  and  N1_5 
REMARK    3  A    between atoms: N1_5  and  C5_6 
REMARK    4  A    between atoms: N1_5  and  C9_14 
REMARK    5  A    between atoms: C5_6  and  C6_7 
REMARK    6  A    between atoms: C9_14  and  C10_15 
REMARK    7  A    between atoms: C10_15  and  O1_16 
REMARK    8  A    between atoms: C10_15  and  C11_18 
REMARK    9  A    between atoms: C11_18  and  C12_19 
REMARK   10  A    between atoms: C12_19  and  C13_20 
REMARK   11  A    between atoms: C12_19  and  C24_31 
REMARK   12  A    between atoms: C13_20  and  C14_21 
REMARK   13  A    between atoms: C19_26  and  C20_27 
REMARK       I    between atoms: C24_31  and  N4_33 
REMARK   14  A    between atoms: C27_36  and  C28_37 
ROOT
HETATM    1  C12 UNL     1      -8.511  36.454   2.774  1.00  0.00     0.081 C 
ENDROOT
BRANCH   1   2
HETATM    2  C11 UNL     1      -7.912  35.066   2.781  1.00  0.00     0.047 C 
BRANCH   2   3
HETATM    3  C10 UNL     1      -8.114  34.480   1.394  1.00  0.00     0.137 C 
BRANCH   3   4
HETATM    4  C9  UNL     1      -7.498  33.137   1.192  1.00  0.00     0.159 C 
BRANCH   4   5
HETATM    5  N1  UNL     1      -6.585  33.002   0.064  1.00  0.00    -0.365 N 
BRANCH   5   6
HETATM    6  C4  UNL     1      -5.345  33.547   0.246  1.00  0.00     0.067 C 
BRANCH   6   7
HETATM    7  C2  UNL     1      -4.609  33.733   1.497  1.00  0.00     0.016 C 
HETATM    8  C1  UNL     1      -4.399  35.117   2.002  1.00  0.00     0.015 C 
HETATM    9  C3  UNL     1      -3.201  33.138   1.279  1.00  0.00     0.015 C 
ENDBRANCH   6   7
ENDBRANCH   5   6
BRANCH   5  10
HETATM   10  C5  UNL     1      -7.002  32.077  -0.868  1.00  0.00     0.121 C 
BRANCH  10  11
HETATM   11  C6  UNL     1      -8.398  31.737  -1.091  1.00  0.00     0.064 A 
HETATM   12  C7  UNL     1      -9.444  32.451  -1.606  1.00  0.00     0.119 A 
HETATM   13  N2  UNL     1     -10.523  31.668  -1.563  1.00  0.00    -0.360 N 
HETATM   14  C8  UNL     1     -10.201  30.468  -1.034  1.00  0.00     0.180 A 
ATOM     15  H2  UNL     1     -11.454  31.936  -1.883  1.00  0.00     0.166 HD
HETATM   16  N3  UNL     1      -8.906  30.513  -0.748  1.00  0.00    -0.350 N 
ATOM     17  H3  UNL     1      -8.370  29.751  -0.333  1.00  0.00     0.166 HD
ENDBRANCH  10  11
ENDBRANCH   5  10
ENDBRANCH   4   5
ENDBRANCH   3   4
BRANCH   3  18
HETATM   18  O1  UNL     1      -7.823  35.374   0.398  1.00  0.00    -0.394 OA
ATOM     19  H1  UNL     1      -8.574  35.612  -0.133  1.00  0.00     0.210 HD
ENDBRANCH   3  18
ENDBRANCH   2   3
ENDBRANCH   1   2
BRANCH   1  20
HETATM   20  C13 UNL     1      -8.179  37.228   4.043  1.00  0.00     0.019 C 
BRANCH  20  21
HETATM   21  C14 UNL     1      -7.049  38.169   3.896  1.00  0.00    -0.009 C 
HETATM   22  C15 UNL     1      -7.657  39.452   3.290  1.00  0.00     0.005 C 
HETATM   23  C16 UNL     1      -6.744  40.604   3.252  1.00  0.00     0.000 C 
HETATM   24  C17 UNL     1      -5.311  40.330   3.560  1.00  0.00     0.000 C 
HETATM   25  C18 UNL     1      -5.072  39.324   4.635  1.00  0.00     0.005 C 
HETATM   26  C19 UNL     1      -6.344  38.630   5.097  1.00  0.00    -0.003 C 
BRANCH  26  27
HETATM   27  C20 UNL     1      -5.984  37.709   6.186  1.00  0.00    -0.047 C 
HETATM   28  C21 UNL     1      -7.057  37.397   7.198  1.00  0.00     0.015 C 
HETATM   29  C22 UNL     1      -4.843  38.382   6.971  1.00  0.00     0.015 C 
HETATM   30  C23 UNL     1      -5.337  36.416   5.673  1.00  0.00     0.015 C 
ENDBRANCH  26  27
ENDBRANCH  20  21
ENDBRANCH   1  20
BRANCH   1  31
HETATM   31  C24 UNL     1      -9.990  36.299   2.832  1.00  0.00     0.224 C 
HETATM   32  O2  UNL     1     -10.486  35.500   3.646  1.00  0.00    -0.273 OA
HETATM   33  N4  UNL     1     -10.815  37.049   1.983  1.00  0.00    -0.352 N 
HETATM   34  C25 UNL     1     -12.277  36.871   2.077  1.00  0.00     0.126 C 
HETATM   35  C30 UNL     1     -10.372  37.989   1.002  1.00  0.00     0.126 C 
HETATM   36  C26 UNL     1     -12.650  36.112   0.826  1.00  0.00     0.033 C 
HETATM   37  C27 UNL     1     -12.176  36.881  -0.368  1.00  0.00     0.078 C 
HETATM   38  C29 UNL     1     -11.457  38.159  -0.044  1.00  0.00     0.033 C 
BRANCH  37  39
HETATM   39  C28 UNL     1     -13.319  37.257  -1.266  1.00  0.00     0.235 C 
HETATM   40  N5  UNL     1     -13.011  37.740  -2.545  1.00  0.00    -0.062 NA
HETATM   41  O3  UNL     1     -14.470  37.118  -0.824  1.00  0.00    -0.277 OA
ENDBRANCH  37  39
ENDBRANCH   1  31
TORSDOF 14
ENDMDL
