MODEL 1
REMARK VINA RESULT: -8.298971987      0.000      0.000
REMARK  10 active torsions:
REMARK  status: ('A' for Active; 'I' for Inactive)
REMARK    1  A    between atoms: C2_2  and  C4_4 
REMARK    2  A    between atoms: C4_4  and  N1_5 
REMARK    3  A    between atoms: C4_4  and  C26_33 
REMARK       I    between atoms: N1_5  and  C5_7 
REMARK    4  A    between atoms: C5_7  and  C6_9 
REMARK    5  A    between atoms: C6_9  and  N2_10 
REMARK    6  A    between atoms: C6_9  and  C19_25 
REMARK       I    between atoms: N2_10  and  C7_12 
REMARK    7  A    between atoms: C7_12  and  C8_14 
REMARK    8  A    between atoms: C8_14  and  C9_15 
REMARK    9  A    between atoms: C19_25  and  C21_27 
REMARK   10  A    between atoms: C21_27  and  N3_28 
ROOT
HETATM    1  C6  UNL     1     -14.487  44.422  -2.615  1.00  0.00     0.182 C 
ENDROOT
BRANCH   1   2
HETATM    2  C5  UNL     1     -14.708  45.206  -1.385  1.00  0.00     0.241 C 
HETATM    3  N1  UNL     1     -13.779  46.096  -0.818  1.00  0.00    -0.344 N 
ATOM      4  H1  UNL     1     -12.874  46.217  -1.274  1.00  0.00     0.163 HD
HETATM    5  O1  UNL     1     -15.822  45.111  -0.753  1.00  0.00    -0.271 OA
BRANCH   3   6
HETATM    6  C4  UNL     1     -14.055  46.850   0.390  1.00  0.00     0.189 C 
BRANCH   6   7
HETATM    7  C2  UNL     1     -13.236  48.138   0.372  1.00  0.00     0.010 C 
HETATM    8  C1  UNL     1     -14.090  49.335  -0.018  1.00  0.00     0.012 C 
HETATM    9  C3  UNL     1     -12.075  48.055  -0.583  1.00  0.00     0.012 C 
ENDBRANCH   6   7
BRANCH   6  10
HETATM   10  C26 UNL     1     -13.820  46.071   1.609  1.00  0.00     0.197 C 
HETATM   11  O3  UNL     1     -14.644  45.294   2.115  1.00  0.00    -0.646 OA
HETATM   12  O4  UNL     1     -12.576  46.203   2.269  1.00  0.00    -0.646 OA
ENDBRANCH   6  10
ENDBRANCH   3   6
ENDBRANCH   1   2
BRANCH   1  13
HETATM   13  N2  UNL     1     -13.042  44.202  -2.683  1.00  0.00    -0.347 N 
HETATM   14  C7  UNL     1     -12.360  43.187  -1.968  1.00  0.00     0.219 C 
HETATM   15  O2  UNL     1     -13.105  42.456  -1.243  1.00  0.00    -0.274 OA
ATOM     16  H2  UNL     1     -12.492  44.817  -3.283  1.00  0.00     0.163 HD
BRANCH  14  17
HETATM   17  C8  UNL     1     -10.923  43.010  -2.067  1.00  0.00     0.112 C 
BRANCH  17  18
HETATM   18  C9  UNL     1     -10.084  43.377  -0.910  1.00  0.00    -0.031 C 
HETATM   19  C10 UNL     1     -10.556  44.573  -0.142  1.00  0.00     0.014 C 
HETATM   20  C11 UNL     1      -9.523  44.885   0.929  1.00  0.00    -0.013 C 
HETATM   21  C12 UNL     1      -8.188  45.225   0.303  1.00  0.00     0.009 C 
HETATM   22  C16 UNL     1      -9.315  43.704   1.850  1.00  0.00     0.009 C 
HETATM   23  C13 UNL     1      -7.690  44.019  -0.457  1.00  0.00    -0.013 C 
HETATM   24  C14 UNL     1      -7.530  42.805   0.430  1.00  0.00     0.009 C 
HETATM   25  C18 UNL     1      -8.692  43.692  -1.516  1.00  0.00     0.014 C 
HETATM   26  C15 UNL     1      -8.850  42.478   1.055  1.00  0.00    -0.013 C 
HETATM   27  C17 UNL     1      -9.944  42.211   0.039  1.00  0.00     0.014 C 
ENDBRANCH  17  18
ENDBRANCH  14  17
ENDBRANCH   1  13
BRANCH   1  28
HETATM   28  C19 UNL     1     -14.978  45.124  -3.813  1.00  0.00     0.042 C 
HETATM   29  C20 UNL     1     -15.700  44.097  -4.703  1.00  0.00     0.014 C 
BRANCH  28  30
HETATM   30  C21 UNL     1     -15.921  46.270  -3.611  1.00  0.00     0.279 C 
BRANCH  30  31
HETATM   31  N3  UNL     1     -16.779  46.362  -4.821  1.00  0.00     0.088 N 
HETATM   32  C22 UNL     1     -16.380  47.425  -5.688  1.00  0.00     0.272 C 
HETATM   33  C23 UNL     1     -17.666  48.162  -6.071  1.00  0.00     0.032 C 
HETATM   34  C24 UNL     1     -18.449  47.955  -4.773  1.00  0.00     0.032 C 
HETATM   35  C25 UNL     1     -18.157  46.513  -4.478  1.00  0.00     0.272 C 
ENDBRANCH  30  31
ENDBRANCH  28  30
ENDBRANCH   1  28
TORSDOF 10
ENDMDL
MODEL 2
REMARK VINA RESULT: -8.238771788      1.733      5.216
REMARK  10 active torsions:
REMARK  status: ('A' for Active; 'I' for Inactive)
REMARK    1  A    between atoms: C2_2  and  C4_4 
REMARK    2  A    between atoms: C4_4  and  N1_5 
REMARK    3  A    between atoms: C4_4  and  C26_33 
REMARK       I    between atoms: N1_5  and  C5_7 
REMARK    4  A    between atoms: C5_7  and  C6_9 
REMARK    5  A    between atoms: C6_9  and  N2_10 
REMARK    6  A    between atoms: C6_9  and  C19_25 
REMARK       I    between atoms: N2_10  and  C7_12 
REMARK    7  A    between atoms: C7_12  and  C8_14 
REMARK    8  A    between atoms: C8_14  and  C9_15 
REMARK    9  A    between atoms: C19_25  and  C21_27 
REMARK   10  A    between atoms: C21_27  and  N3_28 
ROOT
HETATM    1  C6  UNL     1     -13.889  45.906  -1.247  1.00  0.00     0.182 C 
ENDROOT
BRANCH   1   2
HETATM    2  C5  UNL     1     -15.170  45.409  -1.784  1.00  0.00     0.241 C 
HETATM    3  N1  UNL     1     -15.975  46.093  -2.712  1.00  0.00    -0.344 N 
ATOM      4  H1  UNL     1     -15.668  47.007  -3.047  1.00  0.00     0.163 HD
HETATM    5  O1  UNL     1     -15.624  44.266  -1.413  1.00  0.00    -0.271 OA
BRANCH   3   6
HETATM    6  C4  UNL     1     -17.223  45.551  -3.213  1.00  0.00     0.189 C 
BRANCH   6   7
HETATM    7  C2  UNL     1     -17.055  45.191  -4.687  1.00  0.00     0.010 C 
HETATM    8  C1  UNL     1     -16.688  43.725  -4.864  1.00  0.00     0.012 C 
HETATM    9  C3  UNL     1     -15.994  46.026  -5.354  1.00  0.00     0.012 C 
ENDBRANCH   6   7
BRANCH   6  10
HETATM   10  C26 UNL     1     -18.359  46.453  -2.998  1.00  0.00     0.197 C 
HETATM   11  O3  UNL     1     -18.575  47.479  -3.660  1.00  0.00    -0.646 OA
HETATM   12  O4  UNL     1     -19.280  46.148  -1.970  1.00  0.00    -0.646 OA
ENDBRANCH   6  10
ENDBRANCH   3   6
ENDBRANCH   1   2
BRANCH   1  13
HETATM   13  N2  UNL     1     -13.120  44.710  -0.900  1.00  0.00    -0.347 N 
HETATM   14  C7  UNL     1     -12.036  44.215  -1.666  1.00  0.00     0.219 C 
HETATM   15  O2  UNL     1     -11.763  44.897  -2.703  1.00  0.00    -0.274 OA
ATOM     16  H2  UNL     1     -13.381  44.202  -0.055  1.00  0.00     0.163 HD
BRANCH  14  17
HETATM   17  C8  UNL     1     -11.305  43.022  -1.281  1.00  0.00     0.112 C 
BRANCH  17  18
HETATM   18  C9  UNL     1     -10.074  43.172  -0.481  1.00  0.00    -0.031 C 
HETATM   19  C10 UNL     1      -9.728  41.990   0.371  1.00  0.00     0.014 C 
HETATM   20  C11 UNL     1      -8.516  42.355   1.213  1.00  0.00    -0.013 C 
HETATM   21  C12 UNL     1      -8.829  43.518   2.129  1.00  0.00     0.009 C 
HETATM   22  C16 UNL     1      -7.344  42.752   0.344  1.00  0.00     0.009 C 
HETATM   23  C13 UNL     1      -9.160  44.723   1.281  1.00  0.00    -0.013 C 
HETATM   24  C14 UNL     1      -8.026  45.106   0.358  1.00  0.00     0.009 C 
HETATM   25  C18 UNL     1     -10.350  44.387   0.442  1.00  0.00     0.014 C 
HETATM   26  C15 UNL     1      -7.712  43.950  -0.538  1.00  0.00    -0.013 C 
HETATM   27  C17 UNL     1      -8.897  43.497  -1.369  1.00  0.00     0.014 C 
ENDBRANCH  17  18
ENDBRANCH  14  17
ENDBRANCH   1  13
BRANCH   1  28
HETATM   28  C19 UNL     1     -14.082  46.775  -0.074  1.00  0.00     0.042 C 
HETATM   29  C20 UNL     1     -13.819  45.936   1.189  1.00  0.00     0.014 C 
BRANCH  28  30
HETATM   30  C21 UNL     1     -13.232  48.004   0.030  1.00  0.00     0.279 C 
BRANCH  30  31
HETATM   31  N3  UNL     1     -11.829  47.562   0.241  1.00  0.00     0.088 N 
HETATM   32  C22 UNL     1     -11.229  48.189   1.376  1.00  0.00     0.272 C 
HETATM   33  C23 UNL     1      -9.846  48.659   0.916  1.00  0.00     0.032 C 
HETATM   34  C24 UNL     1     -10.181  48.976  -0.543  1.00  0.00     0.032 C 
HETATM   35  C25 UNL     1     -11.026  47.792  -0.916  1.00  0.00     0.272 C 
ENDBRANCH  30  31
ENDBRANCH  28  30
ENDBRANCH   1  28
TORSDOF 10
ENDMDL
MODEL 3
REMARK VINA RESULT: -8.158212016      0.243      1.310
REMARK  10 active torsions:
REMARK  status: ('A' for Active; 'I' for Inactive)
REMARK    1  A    between atoms: C2_2  and  C4_4 
REMARK    2  A    between atoms: C4_4  and  N1_5 
REMARK    3  A    between atoms: C4_4  and  C26_33 
REMARK       I    between atoms: N1_5  and  C5_7 
REMARK    4  A    between atoms: C5_7  and  C6_9 
REMARK    5  A    between atoms: C6_9  and  N2_10 
REMARK    6  A    between atoms: C6_9  and  C19_25 
REMARK       I    between atoms: N2_10  and  C7_12 
REMARK    7  A    between atoms: C7_12  and  C8_14 
REMARK    8  A    between atoms: C8_14  and  C9_15 
REMARK    9  A    between atoms: C19_25  and  C21_27 
REMARK   10  A    between atoms: C21_27  and  N3_28 
ROOT
HETATM    1  C6  UNL     1     -14.513  44.546  -2.615  1.00  0.00     0.182 C 
ENDROOT
BRANCH   1   2
HETATM    2  C5  UNL     1     -14.682  45.313  -1.366  1.00  0.00     0.241 C 
HETATM    3  N1  UNL     1     -13.776  46.275  -0.882  1.00  0.00    -0.344 N 
ATOM      4  H1  UNL     1     -12.929  46.465  -1.419  1.00  0.00     0.163 HD
HETATM    5  O1  UNL     1     -15.722  45.133  -0.635  1.00  0.00    -0.271 OA
BRANCH   3   6
HETATM    6  C4  UNL     1     -13.999  47.007   0.350  1.00  0.00     0.189 C 
BRANCH   6   7
HETATM    7  C2  UNL     1     -13.133  48.264   0.346  1.00  0.00     0.010 C 
HETATM    8  C1  UNL     1     -13.936  49.492  -0.055  1.00  0.00     0.012 C 
HETATM    9  C3  UNL     1     -11.961  48.139  -0.593  1.00  0.00     0.012 C 
ENDBRANCH   6   7
BRANCH   6  10
HETATM   10  C26 UNL     1     -13.768  46.189   1.544  1.00  0.00     0.197 C 
HETATM   11  O3  UNL     1     -14.606  45.422   2.042  1.00  0.00    -0.646 OA
HETATM   12  O4  UNL     1     -12.510  46.268   2.187  1.00  0.00    -0.646 OA
ENDBRANCH   6  10
ENDBRANCH   3   6
ENDBRANCH   1   2
BRANCH   1  13
HETATM   13  N2  UNL     1     -13.069  44.375  -2.777  1.00  0.00    -0.347 N 
HETATM   14  C7  UNL     1     -12.310  43.378  -2.117  1.00  0.00     0.219 C 
HETATM   15  O2  UNL     1     -12.983  42.617  -1.353  1.00  0.00    -0.274 OA
ATOM     16  H2  UNL     1     -12.579  45.013  -3.404  1.00  0.00     0.163 HD
BRANCH  14  17
HETATM   17  C8  UNL     1     -10.877  43.250  -2.308  1.00  0.00     0.112 C 
BRANCH  17  18
HETATM   18  C9  UNL     1      -9.982  43.543  -1.171  1.00  0.00    -0.031 C 
HETATM   19  C10 UNL     1      -8.559  43.819  -1.545  1.00  0.00     0.014 C 
HETATM   20  C11 UNL     1      -7.756  43.976  -0.263  1.00  0.00    -0.013 C 
HETATM   21  C12 UNL     1      -7.790  42.700   0.550  1.00  0.00     0.009 C 
HETATM   22  C16 UNL     1      -8.311  45.088   0.598  1.00  0.00     0.009 C 
HETATM   23  C13 UNL     1      -9.218  42.421   0.951  1.00  0.00    -0.013 C 
HETATM   24  C14 UNL     1      -9.818  43.546   1.764  1.00  0.00     0.009 C 
HETATM   25  C18 UNL     1     -10.028  42.264  -0.295  1.00  0.00     0.014 C 
HETATM   26  C15 UNL     1      -9.774  44.807   0.960  1.00  0.00    -0.013 C 
HETATM   27  C17 UNL     1     -10.509  44.702  -0.361  1.00  0.00     0.014 C 
ENDBRANCH  17  18
ENDBRANCH  14  17
ENDBRANCH   1  13
BRANCH   1  28
HETATM   28  C19 UNL     1     -15.102  45.240  -3.773  1.00  0.00     0.042 C 
HETATM   29  C20 UNL     1     -15.722  44.178  -4.698  1.00  0.00     0.014 C 
BRANCH  28  30
HETATM   30  C21 UNL     1     -16.164  46.262  -3.506  1.00  0.00     0.279 C 
BRANCH  30  31
HETATM   31  N3  UNL     1     -16.925  46.458  -4.767  1.00  0.00     0.088 N 
HETATM   32  C22 UNL     1     -16.411  47.537  -5.549  1.00  0.00     0.272 C 
HETATM   33  C23 UNL     1     -17.627  48.359  -5.983  1.00  0.00     0.032 C 
HETATM   34  C24 UNL     1     -18.513  48.134  -4.756  1.00  0.00     0.032 C 
HETATM   35  C25 UNL     1     -18.315  46.666  -4.515  1.00  0.00     0.272 C 
ENDBRANCH  30  31
ENDBRANCH  28  30
ENDBRANCH   1  28
TORSDOF 10
ENDMDL
MODEL 4
REMARK VINA RESULT: -7.901236121      1.751      5.022
REMARK  10 active torsions:
REMARK  status: ('A' for Active; 'I' for Inactive)
REMARK    1  A    between atoms: C2_2  and  C4_4 
REMARK    2  A    between atoms: C4_4  and  N1_5 
REMARK    3  A    between atoms: C4_4  and  C26_33 
REMARK       I    between atoms: N1_5  and  C5_7 
REMARK    4  A    between atoms: C5_7  and  C6_9 
REMARK    5  A    between atoms: C6_9  and  N2_10 
REMARK    6  A    between atoms: C6_9  and  C19_25 
REMARK       I    between atoms: N2_10  and  C7_12 
REMARK    7  A    between atoms: C7_12  and  C8_14 
REMARK    8  A    between atoms: C8_14  and  C9_15 
REMARK    9  A    between atoms: C19_25  and  C21_27 
REMARK   10  A    between atoms: C21_27  and  N3_28 
ROOT
HETATM    1  C6  UNL     1     -13.778  45.895  -1.362  1.00  0.00     0.182 C 
ENDROOT
BRANCH   1   2
HETATM    2  C5  UNL     1     -15.077  45.407  -1.864  1.00  0.00     0.241 C 
HETATM    3  N1  UNL     1     -15.919  46.113  -2.742  1.00  0.00    -0.344 N 
ATOM      4  H1  UNL     1     -15.629  47.037  -3.062  1.00  0.00     0.163 HD
HETATM    5  O1  UNL     1     -15.511  44.252  -1.508  1.00  0.00    -0.271 OA
BRANCH   3   6
HETATM    6  C4  UNL     1     -17.183  45.578  -3.210  1.00  0.00     0.189 C 
BRANCH   6   7
HETATM    7  C2  UNL     1     -17.055  45.217  -4.688  1.00  0.00     0.010 C 
HETATM    8  C1  UNL     1     -16.676  43.755  -4.873  1.00  0.00     0.012 C 
HETATM    9  C3  UNL     1     -16.025  46.064  -5.388  1.00  0.00     0.012 C 
ENDBRANCH   6   7
BRANCH   6  10
HETATM   10  C26 UNL     1     -18.307  46.487  -2.966  1.00  0.00     0.197 C 
HETATM   11  O3  UNL     1     -18.490  47.555  -3.570  1.00  0.00    -0.646 OA
HETATM   12  O4  UNL     1     -19.257  46.139  -1.978  1.00  0.00    -0.646 OA
ENDBRANCH   6  10
ENDBRANCH   3   6
ENDBRANCH   1   2
BRANCH   1  13
HETATM   13  N2  UNL     1     -13.036  44.698  -0.967  1.00  0.00    -0.347 N 
HETATM   14  C7  UNL     1     -11.907  44.199  -1.663  1.00  0.00     0.219 C 
HETATM   15  O2  UNL     1     -11.569  44.879  -2.682  1.00  0.00    -0.274 OA
ATOM     16  H2  UNL     1     -13.350  44.191  -0.140  1.00  0.00     0.163 HD
BRANCH  14  17
HETATM   17  C8  UNL     1     -11.206  43.004  -1.234  1.00  0.00     0.112 C 
BRANCH  17  18
HETATM   18  C9  UNL     1      -9.980  43.155  -0.425  1.00  0.00    -0.031 C 
HETATM   19  C10 UNL     1      -9.645  41.977   0.436  1.00  0.00     0.014 C 
HETATM   20  C11 UNL     1      -8.438  42.342   1.286  1.00  0.00    -0.013 C 
HETATM   21  C12 UNL     1      -8.754  43.512   2.192  1.00  0.00     0.009 C 
HETATM   22  C16 UNL     1      -7.258  42.729   0.424  1.00  0.00     0.009 C 
HETATM   23  C13 UNL     1      -9.073  44.712   1.335  1.00  0.00    -0.013 C 
HETATM   24  C14 UNL     1      -7.931  45.086   0.418  1.00  0.00     0.009 C 
HETATM   25  C18 UNL     1     -10.258  44.376   0.488  1.00  0.00     0.014 C 
HETATM   26  C15 UNL     1      -7.615  43.923  -0.469  1.00  0.00    -0.013 C 
HETATM   27  C17 UNL     1      -8.795  43.470  -1.305  1.00  0.00     0.014 C 
ENDBRANCH  17  18
ENDBRANCH  14  17
ENDBRANCH   1  13
BRANCH   1  28
HETATM   28  C19 UNL     1     -13.938  46.822  -0.229  1.00  0.00     0.042 C 
HETATM   29  C20 UNL     1     -14.105  45.984   1.051  1.00  0.00     0.014 C 
BRANCH  28  30
HETATM   30  C21 UNL     1     -12.836  47.804   0.030  1.00  0.00     0.279 C 
BRANCH  30  31
HETATM   31  N3  UNL     1     -13.432  48.975   0.724  1.00  0.00     0.088 N 
HETATM   32  C22 UNL     1     -13.736  50.041  -0.177  1.00  0.00     0.272 C 
HETATM   33  C23 UNL     1     -13.205  51.316   0.484  1.00  0.00     0.032 C 
HETATM   34  C24 UNL     1     -11.998  50.717   1.209  1.00  0.00     0.032 C 
HETATM   35  C25 UNL     1     -12.586  49.454   1.768  1.00  0.00     0.272 C 
ENDBRANCH  30  31
ENDBRANCH  28  30
ENDBRANCH   1  28
TORSDOF 10
ENDMDL
MODEL 5
REMARK VINA RESULT: -7.394438209      2.287      6.537
REMARK  10 active torsions:
REMARK  status: ('A' for Active; 'I' for Inactive)
REMARK    1  A    between atoms: C2_2  and  C4_4 
REMARK    2  A    between atoms: C4_4  and  N1_5 
REMARK    3  A    between atoms: C4_4  and  C26_33 
REMARK       I    between atoms: N1_5  and  C5_7 
REMARK    4  A    between atoms: C5_7  and  C6_9 
REMARK    5  A    between atoms: C6_9  and  N2_10 
REMARK    6  A    between atoms: C6_9  and  C19_25 
REMARK       I    between atoms: N2_10  and  C7_12 
REMARK    7  A    between atoms: C7_12  and  C8_14 
REMARK    8  A    between atoms: C8_14  and  C9_15 
REMARK    9  A    between atoms: C19_25  and  C21_27 
REMARK   10  A    between atoms: C21_27  and  N3_28 
ROOT
HETATM    1  C6  UNL     1     -14.224  45.410  -0.814  1.00  0.00     0.182 C 
ENDROOT
BRANCH   1   2
HETATM    2  C5  UNL     1     -15.491  45.337  -1.567  1.00  0.00     0.241 C 
HETATM    3  N1  UNL     1     -15.777  46.064  -2.737  1.00  0.00    -0.344 N 
ATOM      4  H1  UNL     1     -15.069  46.700  -3.104  1.00  0.00     0.163 HD
HETATM    5  O1  UNL     1     -16.432  44.559  -1.170  1.00  0.00    -0.271 OA
BRANCH   3   6
HETATM    6  C4  UNL     1     -17.039  45.945  -3.442  1.00  0.00     0.189 C 
BRANCH   6   7
HETATM    7  C2  UNL     1     -16.769  45.491  -4.874  1.00  0.00     0.010 C 
HETATM    8  C1  UNL     1     -15.991  44.184  -4.906  1.00  0.00     0.012 C 
HETATM    9  C3  UNL     1     -15.996  46.520  -5.656  1.00  0.00     0.012 C 
ENDBRANCH   6   7
BRANCH   6  10
HETATM   10  C26 UNL     1     -17.829  47.179  -3.400  1.00  0.00     0.197 C 
HETATM   11  O3  UNL     1     -19.047  47.240  -3.623  1.00  0.00    -0.646 OA
HETATM   12  O4  UNL     1     -17.173  48.393  -3.087  1.00  0.00    -0.646 OA
ENDBRANCH   6  10
ENDBRANCH   3   6
ENDBRANCH   1   2
BRANCH   1  13
HETATM   13  N2  UNL     1     -13.840  46.822  -0.831  1.00  0.00    -0.347 N 
HETATM   14  C7  UNL     1     -13.535  47.574   0.330  1.00  0.00     0.219 C 
HETATM   15  O2  UNL     1     -13.616  46.924   1.420  1.00  0.00    -0.274 OA
ATOM     16  H2  UNL     1     -13.789  47.294  -1.734  1.00  0.00     0.163 HD
BRANCH  14  17
HETATM   17  C8  UNL     1     -13.162  48.974   0.263  1.00  0.00     0.112 C 
BRANCH  17  18
HETATM   18  C9  UNL     1     -11.732  49.321   0.145  1.00  0.00    -0.031 C 
HETATM   19  C10 UNL     1     -10.985  49.363   1.442  1.00  0.00     0.014 C 
HETATM   20  C11 UNL     1      -9.573  49.852   1.158  1.00  0.00    -0.013 C 
HETATM   21  C12 UNL     1      -9.595  51.250   0.582  1.00  0.00     0.009 C 
HETATM   22  C16 UNL     1      -8.873  48.952   0.165  1.00  0.00     0.009 C 
HETATM   23  C13 UNL     1     -10.327  51.217  -0.737  1.00  0.00    -0.013 C 
HETATM   24  C14 UNL     1      -9.682  50.279  -1.731  1.00  0.00     0.009 C 
HETATM   25  C18 UNL     1     -11.720  50.738  -0.483  1.00  0.00     0.014 C 
HETATM   26  C15 UNL     1      -9.653  48.899  -1.153  1.00  0.00    -0.013 C 
HETATM   27  C17 UNL     1     -11.028  48.371  -0.793  1.00  0.00     0.014 C 
ENDBRANCH  17  18
ENDBRANCH  14  17
ENDBRANCH   1  13
BRANCH   1  28
HETATM   28  C19 UNL     1     -13.177  44.565  -1.414  1.00  0.00     0.042 C 
HETATM   29  C20 UNL     1     -12.524  45.358  -2.559  1.00  0.00     0.014 C 
BRANCH  28  30
HETATM   30  C21 UNL     1     -12.071  44.089  -0.523  1.00  0.00     0.279 C 
BRANCH  30  31
HETATM   31  N3  UNL     1     -11.075  43.392  -1.377  1.00  0.00     0.088 N 
HETATM   32  C22 UNL     1     -11.363  42.000  -1.520  1.00  0.00     0.272 C 
HETATM   33  C23 UNL     1     -10.037  41.270  -1.292  1.00  0.00     0.032 C 
HETATM   34  C24 UNL     1      -9.414  42.228  -0.275  1.00  0.00     0.032 C 
HETATM   35  C25 UNL     1      -9.748  43.560  -0.882  1.00  0.00     0.272 C 
ENDBRANCH  30  31
ENDBRANCH  28  30
ENDBRANCH   1  28
TORSDOF 10
ENDMDL
