MODEL 1
REMARK VINA RESULT: -9.063335544      0.000      0.000
REMARK  5 active torsions:
REMARK  status: ('A' for Active; 'I' for Inactive)
REMARK    1  A    between atoms: C1_4  and  C2_5 
REMARK    2  A    between atoms: C1_4  and  N5_12 
REMARK    3  A    between atoms: C6_16  and  C7_17 
REMARK       I    between atoms: C7_17  and  N6_19 
REMARK    4  A    between atoms: N6_19  and  C8_21 
REMARK    5  A    between atoms: C8_21  and  C9_22 
ROOT
HETATM    1  N5  UNL     1      18.986  12.072   2.156  1.00  0.00    -0.351 N 
HETATM    2  C3  UNL     1      17.633  12.577   2.171  1.00  0.00     0.125 C 
HETATM    3  C4  UNL     1      17.087  12.114   0.849  1.00  0.00     0.022 C 
HETATM    4  C5  UNL     1      17.739  10.752   0.696  1.00  0.00     0.037 C 
HETATM    5  C6  UNL     1      19.018  10.814   1.486  1.00  0.00     0.178 C 
ENDROOT
BRANCH   5   6
HETATM    6  C7  UNL     1      19.119   9.642   2.446  1.00  0.00     0.244 C 
HETATM    7  O1  UNL     1      20.175   8.983   2.359  1.00  0.00    -0.271 OA
HETATM    8  N6  UNL     1      18.038   9.428   3.308  1.00  0.00    -0.338 N 
ATOM      9  H6  UNL     1      17.263  10.089   3.239  1.00  0.00     0.167 HD
BRANCH   8  10
HETATM   10  C8  UNL     1      17.903   8.406   4.255  1.00  0.00     0.073 C 
BRANCH  10  11
HETATM   11  C9  UNL     1      18.200   8.578   5.688  1.00  0.00    -0.007 C 
HETATM   12  C10 UNL     1      17.528   9.672   6.435  1.00  0.00     0.019 C 
HETATM   13  C11 UNL     1      17.752   9.541   7.944  1.00  0.00    -0.013 C 
HETATM   14  C12 UNL     1      19.235   9.693   8.208  1.00  0.00     0.009 C 
HETATM   15  C16 UNL     1      17.297   8.234   8.498  1.00  0.00     0.009 C 
HETATM   16  C13 UNL     1      19.981   8.657   7.390  1.00  0.00    -0.013 C 
HETATM   17  C14 UNL     1      19.566   7.300   7.951  1.00  0.00     0.009 C 
HETATM   18  C18 UNL     1      19.701   8.735   5.936  1.00  0.00     0.019 C 
HETATM   19  C15 UNL     1      18.080   7.155   7.774  1.00  0.00    -0.013 C 
HETATM   20  C17 UNL     1      17.747   7.249   6.338  1.00  0.00     0.019 C 
ENDBRANCH  10  11
ENDBRANCH   8  10
ENDBRANCH   5   6
BRANCH   1  21
HETATM   21  C1  UNL     1      20.096  12.736   2.726  1.00  0.00     0.145 C 
HETATM   22  N1  UNL     1      20.864  13.409   1.941  1.00  0.00    -0.382 N 
ATOM     23  H12 UNL     1      21.666  13.888   2.352  1.00  0.00     0.157 HD
ATOM     24  H11 UNL     1      20.653  13.443   0.944  1.00  0.00     0.157 HD
BRANCH  21  25
HETATM   25  C2  UNL     1      20.399  12.687   4.153  1.00  0.00     0.181 A 
HETATM   26  N2  UNL     1      20.041  11.949   5.216  1.00  0.00    -0.267 N 
HETATM   27  N3  UNL     1      20.838  12.692   5.959  1.00  0.00    -0.239 N 
ATOM     28  H2  UNL     1      19.421  11.156   5.380  1.00  0.00     0.190 HD
HETATM   29  N4  UNL     1      21.208  13.432   4.939  1.00  0.00    -0.267 N 
ATOM     30  H3  UNL     1      21.077  12.693   6.950  1.00  0.00     0.208 HD
ATOM     31  H4  UNL     1      21.834  14.224   4.800  1.00  0.00     0.190 HD
ENDBRANCH  21  25
ENDBRANCH   1  21
TORSDOF 5
ENDMDL
MODEL 2
REMARK VINA RESULT: -8.905875012      0.254      1.473
REMARK  5 active torsions:
REMARK  status: ('A' for Active; 'I' for Inactive)
REMARK    1  A    between atoms: C1_4  and  C2_5 
REMARK    2  A    between atoms: C1_4  and  N5_12 
REMARK    3  A    between atoms: C6_16  and  C7_17 
REMARK       I    between atoms: C7_17  and  N6_19 
REMARK    4  A    between atoms: N6_19  and  C8_21 
REMARK    5  A    between atoms: C8_21  and  C9_22 
ROOT
HETATM    1  N5  UNL     1      18.968  12.005   2.194  1.00  0.00    -0.351 N 
HETATM    2  C3  UNL     1      17.642  12.567   2.303  1.00  0.00     0.125 C 
HETATM    3  C4  UNL     1      16.985  12.130   1.023  1.00  0.00     0.022 C 
HETATM    4  C5  UNL     1      17.567  10.742   0.826  1.00  0.00     0.037 C 
HETATM    5  C6  UNL     1      18.899  10.748   1.524  1.00  0.00     0.178 C 
ENDROOT
BRANCH   5   6
HETATM    6  C7  UNL     1      19.018   9.572   2.476  1.00  0.00     0.244 C 
HETATM    7  O1  UNL     1      20.096   8.948   2.407  1.00  0.00    -0.271 OA
HETATM    8  N6  UNL     1      17.926   9.315   3.314  1.00  0.00    -0.338 N 
ATOM      9  H6  UNL     1      17.133   9.952   3.234  1.00  0.00     0.167 HD
BRANCH   8  10
HETATM   10  C8  UNL     1      17.805   8.281   4.249  1.00  0.00     0.073 C 
BRANCH  10  11
HETATM   11  C9  UNL     1      18.258   8.389   5.646  1.00  0.00    -0.007 C 
HETATM   12  C10 UNL     1      19.694   8.653   5.918  1.00  0.00     0.019 C 
HETATM   13  C11 UNL     1      19.934   8.987   7.393  1.00  0.00    -0.013 C 
HETATM   14  C12 UNL     1      19.561   7.770   8.212  1.00  0.00     0.009 C 
HETATM   15  C16 UNL     1      19.136  10.151   7.873  1.00  0.00     0.009 C 
HETATM   16  C13 UNL     1      18.126   7.397   7.898  1.00  0.00    -0.013 C 
HETATM   17  C14 UNL     1      17.269   8.553   8.407  1.00  0.00     0.009 C 
HETATM   18  C18 UNL     1      17.878   7.150   6.457  1.00  0.00     0.019 C 
HETATM   19  C15 UNL     1      17.675   9.797   7.665  1.00  0.00    -0.013 C 
HETATM   20  C17 UNL     1      17.467   9.591   6.216  1.00  0.00     0.019 C 
ENDBRANCH  10  11
ENDBRANCH   8  10
ENDBRANCH   5   6
BRANCH   1  21
HETATM   21  C1  UNL     1      20.143  12.621   2.683  1.00  0.00     0.145 C 
HETATM   22  N1  UNL     1      20.951  13.144   1.828  1.00  0.00    -0.382 N 
ATOM     23  H12 UNL     1      21.798  13.589   2.181  1.00  0.00     0.157 HD
ATOM     24  H11 UNL     1      20.724  13.100   0.835  1.00  0.00     0.157 HD
BRANCH  21  25
HETATM   25  C2  UNL     1      20.468  12.683   4.104  1.00  0.00     0.181 A 
HETATM   26  N2  UNL     1      20.113  12.044   5.231  1.00  0.00    -0.267 N 
HETATM   27  N3  UNL     1      20.937  12.828   5.897  1.00  0.00    -0.239 N 
ATOM     28  H2  UNL     1      19.479  11.281   5.469  1.00  0.00     0.190 HD
HETATM   29  N4  UNL     1      21.305  13.472   4.814  1.00  0.00    -0.267 N 
ATOM     30  H3  UNL     1      21.192  12.906   6.881  1.00  0.00     0.208 HD
ATOM     31  H4  UNL     1      21.945  14.237   4.600  1.00  0.00     0.190 HD
ENDBRANCH  21  25
ENDBRANCH   1  21
TORSDOF 5
ENDMDL
MODEL 3
REMARK VINA RESULT: -8.879842152      0.732      1.678
REMARK  5 active torsions:
REMARK  status: ('A' for Active; 'I' for Inactive)
REMARK    1  A    between atoms: C1_4  and  C2_5 
REMARK    2  A    between atoms: C1_4  and  N5_12 
REMARK    3  A    between atoms: C6_16  and  C7_17 
REMARK       I    between atoms: C7_17  and  N6_19 
REMARK    4  A    between atoms: N6_19  and  C8_21 
REMARK    5  A    between atoms: C8_21  and  C9_22 
ROOT
HETATM    1  N5  UNL     1      18.884  11.969   2.182  1.00  0.00    -0.351 N 
HETATM    2  C3  UNL     1      17.529  12.449   2.046  1.00  0.00     0.125 C 
HETATM    3  C4  UNL     1      17.144  11.984   0.669  1.00  0.00     0.022 C 
HETATM    4  C5  UNL     1      17.836  10.636   0.584  1.00  0.00     0.037 C 
HETATM    5  C6  UNL     1      19.015  10.716   1.514  1.00  0.00     0.178 C 
ENDROOT
BRANCH   5   6
HETATM    6  C7  UNL     1      19.030   9.540   2.474  1.00  0.00     0.244 C 
HETATM    7  O1  UNL     1      20.017   8.786   2.364  1.00  0.00    -0.271 OA
HETATM    8  N6  UNL     1      17.955   9.428   3.363  1.00  0.00    -0.338 N 
ATOM      9  H6  UNL     1      17.244  10.158   3.311  1.00  0.00     0.167 HD
BRANCH   8  10
HETATM   10  C8  UNL     1      17.748   8.424   4.315  1.00  0.00     0.073 C 
BRANCH  10  11
HETATM   11  C9  UNL     1      18.091   8.569   5.740  1.00  0.00    -0.007 C 
HETATM   12  C10 UNL     1      17.329   9.539   6.568  1.00  0.00     0.019 C 
HETATM   13  C11 UNL     1      17.639   9.371   8.058  1.00  0.00    -0.013 C 
HETATM   14  C12 UNL     1      19.104   9.692   8.266  1.00  0.00     0.009 C 
HETATM   15  C16 UNL     1      17.373   7.996   8.567  1.00  0.00     0.009 C 
HETATM   16  C13 UNL     1      19.929   8.792   7.367  1.00  0.00    -0.013 C 
HETATM   17  C14 UNL     1      19.709   7.371   7.879  1.00  0.00     0.009 C 
HETATM   18  C18 UNL     1      19.572   8.898   5.932  1.00  0.00     0.019 C 
HETATM   19  C15 UNL     1      18.244   7.053   7.759  1.00  0.00    -0.013 C 
HETATM   20  C17 UNL     1      17.834   7.167   6.344  1.00  0.00     0.019 C 
ENDBRANCH  10  11
ENDBRANCH   8  10
ENDBRANCH   5   6
BRANCH   1  21
HETATM   21  C1  UNL     1      19.910  12.650   2.876  1.00  0.00     0.145 C 
HETATM   22  N1  UNL     1      20.208  12.245   4.061  1.00  0.00    -0.382 N 
ATOM     23  H12 UNL     1      20.949  12.736   4.562  1.00  0.00     0.157 HD
ATOM     24  H11 UNL     1      19.702  11.455   4.461  1.00  0.00     0.157 HD
BRANCH  21  25
HETATM   25  C2  UNL     1      20.634  13.780   2.304  1.00  0.00     0.181 A 
HETATM   26  N2  UNL     1      21.716  14.518   2.604  1.00  0.00    -0.267 N 
HETATM   27  N3  UNL     1      21.499  15.222   1.510  1.00  0.00    -0.239 N 
ATOM     28  H2  UNL     1      22.408  14.529   3.354  1.00  0.00     0.190 HD
HETATM   29  N4  UNL     1      20.437  14.519   1.189  1.00  0.00    -0.267 N 
ATOM     30  H3  UNL     1      21.975  16.013   1.077  1.00  0.00     0.208 HD
ATOM     31  H4  UNL     1      19.758  14.528   0.429  1.00  0.00     0.190 HD
ENDBRANCH  21  25
ENDBRANCH   1  21
TORSDOF 5
ENDMDL
MODEL 4
REMARK VINA RESULT: -8.819326802      1.676      2.603
REMARK  5 active torsions:
REMARK  status: ('A' for Active; 'I' for Inactive)
REMARK    1  A    between atoms: C1_4  and  C2_5 
REMARK    2  A    between atoms: C1_4  and  N5_12 
REMARK    3  A    between atoms: C6_16  and  C7_17 
REMARK       I    between atoms: C7_17  and  N6_19 
REMARK    4  A    between atoms: N6_19  and  C8_21 
REMARK    5  A    between atoms: C8_21  and  C9_22 
ROOT
HETATM    1  N5  UNL     1      19.547  12.039   0.833  1.00  0.00    -0.351 N 
HETATM    2  C3  UNL     1      18.151  12.333   0.604  1.00  0.00     0.125 C 
HETATM    3  C4  UNL     1      17.543  10.968   0.435  1.00  0.00     0.022 C 
HETATM    4  C5  UNL     1      18.333  10.144   1.436  1.00  0.00     0.037 C 
HETATM    5  C6  UNL     1      19.662  10.831   1.583  1.00  0.00     0.178 C 
ENDROOT
BRANCH   5   6
HETATM    6  C7  UNL     1      19.986  11.079   3.044  1.00  0.00     0.244 C 
HETATM    7  O1  UNL     1      20.487  12.196   3.288  1.00  0.00    -0.271 OA
HETATM    8  N6  UNL     1      19.696  10.050   3.947  1.00  0.00    -0.338 N 
ATOM      9  H6  UNL     1      19.270   9.209   3.556  1.00  0.00     0.167 HD
BRANCH   8  10
HETATM   10  C8  UNL     1      19.926  10.048   5.328  1.00  0.00     0.073 C 
BRANCH  10  11
HETATM   11  C9  UNL     1      19.079   9.328   6.294  1.00  0.00    -0.007 C 
HETATM   12  C10 UNL     1      18.335  10.106   7.317  1.00  0.00     0.019 C 
HETATM   13  C11 UNL     1      17.319   9.232   8.058  1.00  0.00    -0.013 C 
HETATM   14  C12 UNL     1      18.086   8.164   8.808  1.00  0.00     0.009 C 
HETATM   15  C16 UNL     1      16.336   8.571   7.153  1.00  0.00     0.009 C 
HETATM   16  C13 UNL     1      18.942   7.398   7.820  1.00  0.00    -0.013 C 
HETATM   17  C14 UNL     1      17.968   6.675   6.892  1.00  0.00     0.009 C 
HETATM   18  C18 UNL     1      19.870   8.258   7.046  1.00  0.00     0.019 C 
HETATM   19  C15 UNL     1      17.136   7.713   6.190  1.00  0.00    -0.013 C 
HETATM   20  C17 UNL     1      18.021   8.611   5.420  1.00  0.00     0.019 C 
ENDBRANCH  10  11
ENDBRANCH   8  10
ENDBRANCH   5   6
BRANCH   1  21
HETATM   21  C1  UNL     1      20.620  12.838   0.378  1.00  0.00     0.145 C 
HETATM   22  N1  UNL     1      21.500  12.290  -0.385  1.00  0.00    -0.382 N 
ATOM     23  H12 UNL     1      22.274  12.867  -0.713  1.00  0.00     0.157 HD
ATOM     24  H11 UNL     1      21.399  11.306  -0.636  1.00  0.00     0.157 HD
BRANCH  21  25
HETATM   25  C2  UNL     1      20.764  14.245   0.738  1.00  0.00     0.181 A 
HETATM   26  N2  UNL     1      20.702  15.437   0.121  1.00  0.00    -0.267 N 
HETATM   27  N3  UNL     1      20.963  16.013   1.278  1.00  0.00    -0.239 N 
ATOM     28  H2  UNL     1      20.528  15.758  -0.831  1.00  0.00     0.190 HD
HETATM   29  N4  UNL     1      21.030  14.864   1.910  1.00  0.00    -0.267 N 
ATOM     30  H3  UNL     1      21.072  16.983   1.571  1.00  0.00     0.208 HD
ATOM     31  H4  UNL     1      21.207  14.567   2.869  1.00  0.00     0.190 HD
ENDBRANCH  21  25
ENDBRANCH   1  21
TORSDOF 5
ENDMDL
MODEL 5
REMARK VINA RESULT: -8.816658956      1.247      1.740
REMARK  5 active torsions:
REMARK  status: ('A' for Active; 'I' for Inactive)
REMARK    1  A    between atoms: C1_4  and  C2_5 
REMARK    2  A    between atoms: C1_4  and  N5_12 
REMARK    3  A    between atoms: C6_16  and  C7_17 
REMARK       I    between atoms: C7_17  and  N6_19 
REMARK    4  A    between atoms: N6_19  and  C8_21 
REMARK    5  A    between atoms: C8_21  and  C9_22 
ROOT
HETATM    1  N5  UNL     1      18.742  12.326   1.457  1.00  0.00    -0.351 N 
HETATM    2  C3  UNL     1      17.429  12.618   1.984  1.00  0.00     0.125 C 
HETATM    3  C4  UNL     1      16.550  11.638   1.259  1.00  0.00     0.022 C 
HETATM    4  C5  UNL     1      17.442  10.413   1.176  1.00  0.00     0.037 C 
HETATM    5  C6  UNL     1      18.855  10.926   1.211  1.00  0.00     0.178 C 
ENDROOT
BRANCH   5   6
HETATM    6  C7  UNL     1      19.667  10.209   2.275  1.00  0.00     0.244 C 
HETATM    7  O1  UNL     1      20.591   9.494   1.837  1.00  0.00    -0.271 OA
HETATM    8  N6  UNL     1      19.300  10.421   3.609  1.00  0.00    -0.338 N 
ATOM      9  H6  UNL     1      18.519  11.058   3.770  1.00  0.00     0.167 HD
BRANCH   8  10
HETATM   10  C8  UNL     1      19.887   9.854   4.746  1.00  0.00     0.073 C 
BRANCH  10  11
HETATM   11  C9  UNL     1      19.116   9.338   5.890  1.00  0.00    -0.007 C 
HETATM   12  C10 UNL     1      18.803  10.253   7.018  1.00  0.00     0.019 C 
HETATM   13  C11 UNL     1      17.789   9.630   7.981  1.00  0.00    -0.013 C 
HETATM   14  C12 UNL     1      18.424   8.400   8.593  1.00  0.00     0.009 C 
HETATM   15  C16 UNL     1      16.513   9.233   7.321  1.00  0.00     0.009 C 
HETATM   16  C13 UNL     1      18.853   7.469   7.475  1.00  0.00    -0.013 C 
HETATM   17  C14 UNL     1      17.566   7.011   6.793  1.00  0.00     0.009 C 
HETATM   18  C18 UNL     1      19.774   8.099   6.498  1.00  0.00     0.019 C 
HETATM   19  C15 UNL     1      16.871   8.227   6.243  1.00  0.00    -0.013 C 
HETATM   20  C17 UNL     1      17.762   8.904   5.278  1.00  0.00     0.019 C 
ENDBRANCH  10  11
ENDBRANCH   8  10
ENDBRANCH   5   6
BRANCH   1  21
HETATM   21  C1  UNL     1      19.748  13.292   1.229  1.00  0.00     0.145 C 
HETATM   22  N1  UNL     1      19.798  13.849   0.069  1.00  0.00    -0.382 N 
ATOM     23  H12 UNL     1      20.524  14.546  -0.095  1.00  0.00     0.157 HD
ATOM     24  H11 UNL     1      19.119  13.580  -0.643  1.00  0.00     0.157 HD
BRANCH  21  25
HETATM   25  C2  UNL     1      20.719  13.677   2.248  1.00  0.00     0.181 A 
HETATM   26  N2  UNL     1      20.962  13.399   3.540  1.00  0.00    -0.267 N 
HETATM   27  N3  UNL     1      21.995  14.218   3.488  1.00  0.00    -0.239 N 
ATOM     28  H2  UNL     1      20.533  12.810   4.254  1.00  0.00     0.190 HD
HETATM   29  N4  UNL     1      21.784  14.509   2.225  1.00  0.00    -0.267 N 
ATOM     30  H3  UNL     1      22.693  14.513   4.169  1.00  0.00     0.208 HD
ATOM     31  H4  UNL     1      22.230  15.105   1.528  1.00  0.00     0.190 HD
ENDBRANCH  21  25
ENDBRANCH   1  21
TORSDOF 5
ENDMDL
