MODEL 1
REMARK VINA RESULT: -6.773508227      0.000      0.000
REMARK  11 active torsions:
REMARK  status: ('A' for Active; 'I' for Inactive)
REMARK    1  A    between atoms: C2_2  and  C3_3 
REMARK    2  A    between atoms: C2_2  and  N2_16 
REMARK    3  A    between atoms: C3_3  and  C4_4 
REMARK    4  A    between atoms: C7_7  and  S1_8 
REMARK    5  A    between atoms: S1_8  and  N1_9 
REMARK    6  A    between atoms: N2_16  and  C10_18 
REMARK    7  A    between atoms: C10_18  and  C11_19 
REMARK    8  A    between atoms: C11_19  and  O3_20 
REMARK    9  A    between atoms: C11_19  and  N3_22 
REMARK   10  A    between atoms: N3_22  and  C12_24 
REMARK   11  A    between atoms: C12_24  and  C13_25 
ROOT
HETATM    1  C1  UNL     1     -16.111 -61.640 -29.570  1.00  0.00     0.063 C 
HETATM    2  C2  UNL     1     -15.783 -62.838 -30.380  1.00  0.00    -0.014 C 
ENDROOT
BRANCH   2   3
HETATM    3  C3  UNL     1     -16.468 -64.072 -29.750  1.00  0.00     0.090 C 
BRANCH   3   4
HETATM    4  C4  UNL     1     -16.516 -65.132 -30.798  1.00  0.00    -0.053 A 
HETATM    5  C5  UNL     1     -17.297 -64.905 -31.944  1.00  0.00     0.009 A 
HETATM    6  C6  UNL     1     -17.368 -65.838 -32.970  1.00  0.00     0.026 A 
HETATM    7  C7  UNL     1     -16.643 -67.000 -32.828  1.00  0.00     0.079 A 
HETATM    8  C8  UNL     1     -15.865 -67.258 -31.714  1.00  0.00     0.026 A 
HETATM    9  C9  UNL     1     -15.807 -66.315 -30.701  1.00  0.00     0.009 A 
BRANCH   7  10
HETATM   10  S1  UNL     1     -16.737 -68.202 -34.123  1.00  0.00     0.256 S 
HETATM   11  O1  UNL     1     -17.125 -69.515 -33.531  1.00  0.00    -0.201 OA
HETATM   12  O2  UNL     1     -17.734 -67.775 -35.139  1.00  0.00    -0.201 OA
BRANCH  10  13
HETATM   13  N1  UNL     1     -15.132 -68.343 -34.751  1.00  0.00    -0.324 N 
ATOM     14  H12 UNL     1     -14.367 -68.876 -34.338  1.00  0.00     0.169 HD
ATOM     15  H11 UNL     1     -15.119 -67.789 -35.607  1.00  0.00     0.169 HD
ENDBRANCH  10  13
ENDBRANCH   7  10
ENDBRANCH   3   4
ENDBRANCH   2   3
BRANCH   2  16
HETATM   16  N2  UNL     1     -14.529 -63.103 -30.860  1.00  0.00    -0.372 N 
ATOM     17  H2  UNL     1     -14.027 -63.821 -30.338  1.00  0.00     0.164 HD
BRANCH  16  18
HETATM   18  C10 UNL     1     -13.826 -62.582 -31.913  1.00  0.00     0.113 C 
BRANCH  18  19
HETATM   19  C11 UNL     1     -12.425 -62.126 -31.710  1.00  0.00     0.253 C 
BRANCH  19  20
HETATM   20  O3  UNL     1     -11.548 -62.480 -32.702  1.00  0.00    -0.372 OA
ATOM     21  H3  UNL     1     -11.230 -61.760 -33.234  1.00  0.00     0.212 HD
ENDBRANCH  19  20
BRANCH  19  22
HETATM   22  N3  UNL     1     -12.295 -60.712 -31.479  1.00  0.00    -0.388 N 
ATOM     23  H3  UNL     1     -12.538 -60.023 -32.191  1.00  0.00     0.156 HD
BRANCH  22  24
HETATM   24  C12 UNL     1     -11.807 -60.334 -30.196  1.00  0.00     0.161 C 
BRANCH  24  25
HETATM   25  C13 UNL     1     -12.978 -59.971 -29.367  1.00  0.00     0.072 C 
HETATM   26  N4  UNL     1     -13.039 -58.817 -28.850  1.00  0.00    -0.410 N 
ATOM     27  H42 UNL     1     -12.280 -58.156 -29.013  1.00  0.00     0.155 HD
ATOM     28  H41 UNL     1     -13.846 -58.567 -28.279  1.00  0.00     0.155 HD
ENDBRANCH  24  25
ENDBRANCH  22  24
ENDBRANCH  19  22
ENDBRANCH  18  19
ENDBRANCH  16  18
ENDBRANCH   2  16
TORSDOF 11
ENDMDL
MODEL 2
REMARK VINA RESULT: -6.761731466      0.108      1.057
REMARK  11 active torsions:
REMARK  status: ('A' for Active; 'I' for Inactive)
REMARK    1  A    between atoms: C2_2  and  C3_3 
REMARK    2  A    between atoms: C2_2  and  N2_16 
REMARK    3  A    between atoms: C3_3  and  C4_4 
REMARK    4  A    between atoms: C7_7  and  S1_8 
REMARK    5  A    between atoms: S1_8  and  N1_9 
REMARK    6  A    between atoms: N2_16  and  C10_18 
REMARK    7  A    between atoms: C10_18  and  C11_19 
REMARK    8  A    between atoms: C11_19  and  O3_20 
REMARK    9  A    between atoms: C11_19  and  N3_22 
REMARK   10  A    between atoms: N3_22  and  C12_24 
REMARK   11  A    between atoms: C12_24  and  C13_25 
ROOT
HETATM    1  C1  UNL     1     -16.025 -61.585 -29.476  1.00  0.00     0.063 C 
HETATM    2  C2  UNL     1     -15.758 -62.753 -30.349  1.00  0.00    -0.014 C 
ENDROOT
BRANCH   2   3
HETATM    3  C3  UNL     1     -16.506 -63.983 -29.785  1.00  0.00     0.090 C 
BRANCH   3   4
HETATM    4  C4  UNL     1     -16.602 -64.983 -30.886  1.00  0.00    -0.053 A 
HETATM    5  C5  UNL     1     -15.916 -66.201 -30.745  1.00  0.00     0.009 A 
HETATM    6  C6  UNL     1     -15.981 -67.188 -31.720  1.00  0.00     0.026 A 
HETATM    7  C7  UNL     1     -16.745 -66.934 -32.836  1.00  0.00     0.079 A 
HETATM    8  C8  UNL     1     -17.434 -65.747 -33.010  1.00  0.00     0.026 A 
HETATM    9  C9  UNL     1     -17.356 -64.774 -32.026  1.00  0.00     0.009 A 
BRANCH   7  10
HETATM   10  S1  UNL     1     -16.824 -68.178 -34.091  1.00  0.00     0.256 S 
HETATM   11  O1  UNL     1     -17.254 -69.462 -33.466  1.00  0.00    -0.201 OA
HETATM   12  O2  UNL     1     -17.784 -67.769 -35.150  1.00  0.00    -0.201 OA
BRANCH  10  13
HETATM   13  N1  UNL     1     -15.206 -68.370 -34.667  1.00  0.00    -0.324 N 
ATOM     14  H12 UNL     1     -14.531 -69.068 -34.354  1.00  0.00     0.169 HD
ATOM     15  H11 UNL     1     -15.075 -67.648 -35.376  1.00  0.00     0.169 HD
ENDBRANCH  10  13
ENDBRANCH   7  10
ENDBRANCH   3   4
ENDBRANCH   2   3
BRANCH   2  16
HETATM   16  N2  UNL     1     -14.519 -63.056 -30.845  1.00  0.00    -0.372 N 
ATOM     17  H2  UNL     1     -14.032 -63.791 -30.330  1.00  0.00     0.164 HD
BRANCH  16  18
HETATM   18  C10 UNL     1     -13.812 -62.554 -31.905  1.00  0.00     0.113 C 
BRANCH  18  19
HETATM   19  C11 UNL     1     -12.405 -62.113 -31.711  1.00  0.00     0.253 C 
BRANCH  19  20
HETATM   20  O3  UNL     1     -11.539 -62.472 -32.710  1.00  0.00    -0.372 OA
ATOM     21  H3  UNL     1     -11.342 -61.786 -33.337  1.00  0.00     0.212 HD
ENDBRANCH  19  20
BRANCH  19  22
HETATM   22  N3  UNL     1     -12.259 -60.701 -31.475  1.00  0.00    -0.388 N 
ATOM     23  H3  UNL     1     -12.490 -60.008 -32.186  1.00  0.00     0.156 HD
BRANCH  22  24
HETATM   24  C12 UNL     1     -11.774 -60.333 -30.187  1.00  0.00     0.161 C 
BRANCH  24  25
HETATM   25  C13 UNL     1     -12.941 -59.921 -29.376  1.00  0.00     0.072 C 
HETATM   26  N4  UNL     1     -12.959 -58.768 -28.854  1.00  0.00    -0.410 N 
ATOM     27  H42 UNL     1     -12.168 -58.141 -29.001  1.00  0.00     0.155 HD
ATOM     28  H41 UNL     1     -13.764 -58.485 -28.296  1.00  0.00     0.155 HD
ENDBRANCH  24  25
ENDBRANCH  22  24
ENDBRANCH  19  22
ENDBRANCH  18  19
ENDBRANCH  16  18
ENDBRANCH   2  16
TORSDOF 11
ENDMDL
MODEL 3
REMARK VINA RESULT: -6.726708845      3.469      8.214
REMARK  11 active torsions:
REMARK  status: ('A' for Active; 'I' for Inactive)
REMARK    1  A    between atoms: C2_2  and  C3_3 
REMARK    2  A    between atoms: C2_2  and  N2_16 
REMARK    3  A    between atoms: C3_3  and  C4_4 
REMARK    4  A    between atoms: C7_7  and  S1_8 
REMARK    5  A    between atoms: S1_8  and  N1_9 
REMARK    6  A    between atoms: N2_16  and  C10_18 
REMARK    7  A    between atoms: C10_18  and  C11_19 
REMARK    8  A    between atoms: C11_19  and  O3_20 
REMARK    9  A    between atoms: C11_19  and  N3_22 
REMARK   10  A    between atoms: N3_22  and  C12_24 
REMARK   11  A    between atoms: C12_24  and  C13_25 
ROOT
HETATM    1  C1  UNL     1     -16.194 -66.231 -30.265  1.00  0.00     0.063 C 
HETATM    2  C2  UNL     1     -15.883 -65.482 -31.506  1.00  0.00    -0.014 C 
ENDROOT
BRANCH   2   3
HETATM    3  C3  UNL     1     -16.718 -64.182 -31.530  1.00  0.00     0.090 C 
BRANCH   3   4
HETATM    4  C4  UNL     1     -15.914 -63.128 -30.847  1.00  0.00    -0.053 A 
HETATM    5  C5  UNL     1     -14.623 -62.855 -31.330  1.00  0.00     0.009 A 
HETATM    6  C6  UNL     1     -13.828 -61.870 -30.757  1.00  0.00     0.026 A 
HETATM    7  C7  UNL     1     -14.349 -61.165 -29.696  1.00  0.00     0.079 A 
HETATM    8  C8  UNL     1     -15.616 -61.406 -29.195  1.00  0.00     0.026 A 
HETATM    9  C9  UNL     1     -16.393 -62.393 -29.779  1.00  0.00     0.009 A 
BRANCH   7  10
HETATM   10  S1  UNL     1     -13.341 -59.917 -28.951  1.00  0.00     0.256 S 
HETATM   11  O1  UNL     1     -14.018 -58.597 -29.106  1.00  0.00    -0.201 OA
HETATM   12  O2  UNL     1     -13.131 -60.228 -27.512  1.00  0.00    -0.201 OA
BRANCH  10  13
HETATM   13  N1  UNL     1     -11.876 -59.886 -29.868  1.00  0.00    -0.324 N 
ATOM     14  H12 UNL     1     -11.542 -60.614 -30.499  1.00  0.00     0.169 HD
ATOM     15  H11 UNL     1     -11.427 -58.997 -29.645  1.00  0.00     0.169 HD
ENDBRANCH  10  13
ENDBRANCH   7  10
ENDBRANCH   3   4
ENDBRANCH   2   3
BRANCH   2  16
HETATM   16  N2  UNL     1     -15.769 -66.073 -32.735  1.00  0.00    -0.372 N 
ATOM     17  H2  UNL     1     -15.955 -65.446 -33.517  1.00  0.00     0.164 HD
BRANCH  16  18
HETATM   18  C10 UNL     1     -15.451 -67.353 -33.107  1.00  0.00     0.113 C 
BRANCH  18  19
HETATM   19  C11 UNL     1     -16.240 -68.028 -34.172  1.00  0.00     0.253 C 
BRANCH  19  20
HETATM   20  O3  UNL     1     -15.500 -68.555 -35.198  1.00  0.00    -0.372 OA
ATOM     21  H3  UNL     1     -16.004 -68.995 -35.873  1.00  0.00     0.212 HD
ENDBRANCH  19  20
BRANCH  19  22
HETATM   22  N3  UNL     1     -17.128 -69.050 -33.687  1.00  0.00    -0.388 N 
ATOM     23  H3  UNL     1     -18.072 -69.166 -34.056  1.00  0.00     0.156 HD
BRANCH  22  24
HETATM   24  C12 UNL     1     -16.609 -69.889 -32.660  1.00  0.00     0.161 C 
BRANCH  24  25
HETATM   25  C13 UNL     1     -16.619 -71.276 -33.176  1.00  0.00     0.072 C 
HETATM   26  N4  UNL     1     -16.306 -71.492 -34.383  1.00  0.00    -0.410 N 
ATOM     27  H42 UNL     1     -16.052 -70.706 -34.982  1.00  0.00     0.155 HD
ATOM     28  H41 UNL     1     -16.312 -72.448 -34.739  1.00  0.00     0.155 HD
ENDBRANCH  24  25
ENDBRANCH  22  24
ENDBRANCH  19  22
ENDBRANCH  18  19
ENDBRANCH  16  18
ENDBRANCH   2  16
TORSDOF 11
ENDMDL
MODEL 4
REMARK VINA RESULT: -6.506722451      1.726      2.604
REMARK  11 active torsions:
REMARK  status: ('A' for Active; 'I' for Inactive)
REMARK    1  A    between atoms: C2_2  and  C3_3 
REMARK    2  A    between atoms: C2_2  and  N2_16 
REMARK    3  A    between atoms: C3_3  and  C4_4 
REMARK    4  A    between atoms: C7_7  and  S1_8 
REMARK    5  A    between atoms: S1_8  and  N1_9 
REMARK    6  A    between atoms: N2_16  and  C10_18 
REMARK    7  A    between atoms: C10_18  and  C11_19 
REMARK    8  A    between atoms: C11_19  and  O3_20 
REMARK    9  A    between atoms: C11_19  and  N3_22 
REMARK   10  A    between atoms: N3_22  and  C12_24 
REMARK   11  A    between atoms: C12_24  and  C13_25 
ROOT
HETATM    1  C1  UNL     1     -17.042 -63.532 -29.256  1.00  0.00     0.063 C 
HETATM    2  C2  UNL     1     -16.291 -62.635 -30.165  1.00  0.00    -0.014 C 
ENDROOT
BRANCH   2   3
HETATM    3  C3  UNL     1     -15.086 -63.407 -30.750  1.00  0.00     0.090 C 
BRANCH   3   4
HETATM    4  C4  UNL     1     -15.635 -64.534 -31.557  1.00  0.00    -0.053 A 
HETATM    5  C5  UNL     1     -15.120 -65.824 -31.341  1.00  0.00     0.009 A 
HETATM    6  C6  UNL     1     -15.601 -66.924 -32.039  1.00  0.00     0.026 A 
HETATM    7  C7  UNL     1     -16.606 -66.709 -32.955  1.00  0.00     0.079 A 
HETATM    8  C8  UNL     1     -17.137 -65.454 -33.194  1.00  0.00     0.026 A 
HETATM    9  C9  UNL     1     -16.643 -64.369 -32.488  1.00  0.00     0.009 A 
BRANCH   7  10
HETATM   10  S1  UNL     1     -17.218 -68.100 -33.860  1.00  0.00     0.256 S 
HETATM   11  O1  UNL     1     -17.830 -69.065 -32.900  1.00  0.00    -0.201 OA
HETATM   12  O2  UNL     1     -18.224 -67.652 -34.859  1.00  0.00    -0.201 OA
BRANCH  10  13
HETATM   13  N1  UNL     1     -15.830 -68.848 -34.570  1.00  0.00    -0.324 N 
ATOM     14  H12 UNL     1     -15.583 -68.846 -35.559  1.00  0.00     0.169 HD
ATOM     15  H11 UNL     1     -15.323 -69.282 -33.798  1.00  0.00     0.169 HD
ENDBRANCH  10  13
ENDBRANCH   7  10
ENDBRANCH   3   4
ENDBRANCH   2   3
BRANCH   2  16
HETATM   16  N2  UNL     1     -16.002 -61.330 -29.869  1.00  0.00    -0.372 N 
ATOM     17  H2  UNL     1     -16.554 -60.652 -30.395  1.00  0.00     0.164 HD
BRANCH  16  18
HETATM   18  C10 UNL     1     -15.109 -60.767 -28.996  1.00  0.00     0.113 C 
BRANCH  18  19
HETATM   19  C11 UNL     1     -14.014 -59.906 -29.516  1.00  0.00     0.253 C 
BRANCH  19  20
HETATM   20  O3  UNL     1     -13.908 -58.676 -28.921  1.00  0.00    -0.372 OA
ATOM     21  H3  UNL     1     -14.337 -57.966 -29.384  1.00  0.00     0.212 HD
ENDBRANCH  19  20
BRANCH  19  22
HETATM   22  N3  UNL     1     -12.717 -60.528 -29.494  1.00  0.00    -0.388 N 
ATOM     23  H3  UNL     1     -12.336 -60.956 -28.651  1.00  0.00     0.156 HD
BRANCH  22  24
HETATM   24  C12 UNL     1     -11.998 -60.510 -30.724  1.00  0.00     0.161 C 
BRANCH  24  25
HETATM   25  C13 UNL     1     -11.825 -61.915 -31.155  1.00  0.00     0.072 C 
HETATM   26  N4  UNL     1     -12.084 -62.233 -32.353  1.00  0.00    -0.410 N 
ATOM     27  H42 UNL     1     -12.409 -61.516 -33.001  1.00  0.00     0.155 HD
ATOM     28  H41 UNL     1     -11.964 -63.201 -32.650  1.00  0.00     0.155 HD
ENDBRANCH  24  25
ENDBRANCH  22  24
ENDBRANCH  19  22
ENDBRANCH  18  19
ENDBRANCH  16  18
ENDBRANCH   2  16
TORSDOF 11
ENDMDL
MODEL 5
REMARK VINA RESULT: -6.423833788      1.721      2.376
REMARK  11 active torsions:
REMARK  status: ('A' for Active; 'I' for Inactive)
REMARK    1  A    between atoms: C2_2  and  C3_3 
REMARK    2  A    between atoms: C2_2  and  N2_16 
REMARK    3  A    between atoms: C3_3  and  C4_4 
REMARK    4  A    between atoms: C7_7  and  S1_8 
REMARK    5  A    between atoms: S1_8  and  N1_9 
REMARK    6  A    between atoms: N2_16  and  C10_18 
REMARK    7  A    between atoms: C10_18  and  C11_19 
REMARK    8  A    between atoms: C11_19  and  O3_20 
REMARK    9  A    between atoms: C11_19  and  N3_22 
REMARK   10  A    between atoms: N3_22  and  C12_24 
REMARK   11  A    between atoms: C12_24  and  C13_25 
ROOT
HETATM    1  C1  UNL     1     -17.099 -63.543 -29.299  1.00  0.00     0.063 C 
HETATM    2  C2  UNL     1     -16.283 -62.667 -30.173  1.00  0.00    -0.014 C 
ENDROOT
BRANCH   2   3
HETATM    3  C3  UNL     1     -15.055 -63.460 -30.674  1.00  0.00     0.090 C 
BRANCH   3   4
HETATM    4  C4  UNL     1     -15.569 -64.645 -31.419  1.00  0.00    -0.053 A 
HETATM    5  C5  UNL     1     -16.498 -64.434 -32.452  1.00  0.00     0.009 A 
HETATM    6  C6  UNL     1     -17.000 -65.489 -33.203  1.00  0.00     0.026 A 
HETATM    7  C7  UNL     1     -16.555 -66.756 -32.902  1.00  0.00     0.079 A 
HETATM    8  C8  UNL     1     -15.642 -67.002 -31.893  1.00  0.00     0.026 A 
HETATM    9  C9  UNL     1     -15.152 -65.936 -31.154  1.00  0.00     0.009 A 
BRANCH   7  10
HETATM   10  S1  UNL     1     -17.198 -68.109 -33.843  1.00  0.00     0.256 S 
HETATM   11  O1  UNL     1     -17.819 -69.091 -32.908  1.00  0.00    -0.201 OA
HETATM   12  O2  UNL     1     -18.203 -67.614 -34.821  1.00  0.00    -0.201 OA
BRANCH  10  13
HETATM   13  N1  UNL     1     -15.828 -68.859 -34.586  1.00  0.00    -0.324 N 
ATOM     14  H12 UNL     1     -15.411 -68.603 -35.481  1.00  0.00     0.169 HD
ATOM     15  H11 UNL     1     -15.535 -69.597 -33.946  1.00  0.00     0.169 HD
ENDBRANCH  10  13
ENDBRANCH   7  10
ENDBRANCH   3   4
ENDBRANCH   2   3
BRANCH   2  16
HETATM   16  N2  UNL     1     -15.997 -61.361 -29.877  1.00  0.00    -0.372 N 
ATOM     17  H2  UNL     1     -16.551 -60.684 -30.402  1.00  0.00     0.164 HD
BRANCH  16  18
HETATM   18  C10 UNL     1     -15.105 -60.797 -29.004  1.00  0.00     0.113 C 
BRANCH  18  19
HETATM   19  C11 UNL     1     -14.017 -59.926 -29.523  1.00  0.00     0.253 C 
BRANCH  19  20
HETATM   20  O3  UNL     1     -13.903 -58.708 -28.907  1.00  0.00    -0.372 OA
ATOM     21  H3  UNL     1     -14.544 -58.060 -29.174  1.00  0.00     0.212 HD
ENDBRANCH  19  20
BRANCH  19  22
HETATM   22  N3  UNL     1     -12.720 -60.549 -29.531  1.00  0.00    -0.388 N 
ATOM     23  H3  UNL     1     -12.324 -60.985 -28.698  1.00  0.00     0.156 HD
BRANCH  22  24
HETATM   24  C12 UNL     1     -12.023 -60.519 -30.773  1.00  0.00     0.161 C 
BRANCH  24  25
HETATM   25  C13 UNL     1     -11.815 -61.921 -31.197  1.00  0.00     0.072 C 
HETATM   26  N4  UNL     1     -12.103 -62.261 -32.382  1.00  0.00    -0.410 N 
ATOM     27  H42 UNL     1     -12.475 -61.562 -33.025  1.00  0.00     0.155 HD
ATOM     28  H41 UNL     1     -11.959 -63.227 -32.674  1.00  0.00     0.155 HD
ENDBRANCH  24  25
ENDBRANCH  22  24
ENDBRANCH  19  22
ENDBRANCH  18  19
ENDBRANCH  16  18
ENDBRANCH   2  16
TORSDOF 11
ENDMDL
