MODEL 1
REMARK VINA RESULT: -5.515377661      0.000      0.000
REMARK  7 active torsions:
REMARK  status: ('A' for Active; 'I' for Inactive)
REMARK    1  A    between atoms: C2_2  and  C3_3 
REMARK    2  A    between atoms: C3_3  and  N1_4 
REMARK    3  A    between atoms: C3_3  and  C4_8 
REMARK    4  A    between atoms: C4_8  and  N2_9 
REMARK    5  A    between atoms: C5_11  and  C6_12 
REMARK    6  A    between atoms: C7_15  and  C8_16 
REMARK    7  A    between atoms: C8_16  and  N4_17 
ROOT
HETATM    1  C6  UNL     1     127.044  53.159  31.739  1.00  0.00     0.120 A 
HETATM    2  N3  UNL     1     128.342  53.254  32.134  1.00  0.00    -0.342 N 
ATOM      3  H3  UNL     1     128.992  53.976  31.825  1.00  0.00     0.167 HD
HETATM    4  C7  UNL     1     128.644  52.265  32.988  1.00  0.00     0.051 A 
HETATM    5  C9  UNL     1     127.483  51.530  33.124  1.00  0.00     0.116 A 
HETATM    6  N5  UNL     1     126.530  52.087  32.361  1.00  0.00    -0.349 N 
ATOM      7  H5  UNL     1     125.571  51.750  32.269  1.00  0.00     0.167 HD
ENDROOT
BRANCH   1   8
HETATM    8  C5  UNL     1     126.351  54.052  30.818  1.00  0.00     0.132 C 
HETATM    9  N2  UNL     1     125.636  53.562  29.877  1.00  0.00    -0.394 N 
ATOM     10  H2  UNL     1     125.555  52.551  29.774  1.00  0.00     0.159 HD
BRANCH   9  11
HETATM   11  C4  UNL     1     124.954  54.429  28.972  1.00  0.00     0.151 C 
BRANCH  11  12
HETATM   12  C3  UNL     1     123.746  55.094  29.552  1.00  0.00     0.200 C 
BRANCH  12  13
HETATM   13  C2  UNL     1     122.950  54.097  30.376  1.00  0.00     0.030 C 
HETATM   14  C1  UNL     1     122.809  54.714  31.766  1.00  0.00     0.007 C 
ENDBRANCH  12  13
BRANCH  12  15
HETATM   15  N1  UNL     1     122.870  55.678  28.598  1.00  0.00    -0.073 N 
ATOM     16  H13 UNL     1     122.095  55.063  28.348  1.00  0.00     0.274 HD
ATOM     17  H12 UNL     1     122.318  56.442  28.987  1.00  0.00     0.274 HD
ATOM     18  H11 UNL     1     123.424  55.962  27.791  1.00  0.00     0.274 HD
ENDBRANCH  12  15
ENDBRANCH  11  12
ENDBRANCH   9  11
ENDBRANCH   1   8
BRANCH   4  19
HETATM   19  C8  UNL     1     129.949  52.006  33.653  1.00  0.00     0.287 C 
BRANCH  19  20
HETATM   20  N4  UNL     1     130.951  52.962  33.228  1.00  0.00    -0.074 N 
ATOM     21  H43 UNL     1     130.946  53.087  32.216  1.00  0.00     0.274 HD
ATOM     22  H42 UNL     1     130.703  53.912  33.503  1.00  0.00     0.274 HD
ATOM     23  H41 UNL     1     131.877  52.701  33.569  1.00  0.00     0.274 HD
ENDBRANCH  19  20
ENDBRANCH   4  19
TORSDOF 7
ENDMDL
MODEL 2
REMARK VINA RESULT: -5.099278857      1.499      2.054
REMARK  7 active torsions:
REMARK  status: ('A' for Active; 'I' for Inactive)
REMARK    1  A    between atoms: C2_2  and  C3_3 
REMARK    2  A    between atoms: C3_3  and  N1_4 
REMARK    3  A    between atoms: C3_3  and  C4_8 
REMARK    4  A    between atoms: C4_8  and  N2_9 
REMARK    5  A    between atoms: C5_11  and  C6_12 
REMARK    6  A    between atoms: C7_15  and  C8_16 
REMARK    7  A    between atoms: C8_16  and  N4_17 
ROOT
HETATM    1  C6  UNL     1     127.184  52.616  32.346  1.00  0.00     0.120 A 
HETATM    2  N3  UNL     1     128.018  51.968  33.203  1.00  0.00    -0.342 N 
ATOM      3  H3  UNL     1     127.727  51.256  33.872  1.00  0.00     0.167 HD
HETATM    4  C7  UNL     1     129.278  52.399  33.042  1.00  0.00     0.051 A 
HETATM    5  C9  UNL     1     129.216  53.351  32.045  1.00  0.00     0.116 A 
HETATM    6  N5  UNL     1     127.942  53.467  31.639  1.00  0.00    -0.349 N 
ATOM      7  H5  UNL     1     127.606  54.098  30.912  1.00  0.00     0.167 HD
ENDROOT
BRANCH   1   8
HETATM    8  C5  UNL     1     125.744  52.418  32.224  1.00  0.00     0.132 C 
HETATM    9  N2  UNL     1     125.131  52.847  31.186  1.00  0.00    -0.394 N 
ATOM     10  H2  UNL     1     125.650  53.325  30.450  1.00  0.00     0.159 HD
BRANCH   9  11
HETATM   11  C4  UNL     1     123.723  52.657  31.058  1.00  0.00     0.151 C 
BRANCH  11  12
HETATM   12  C3  UNL     1     122.964  53.904  30.724  1.00  0.00     0.200 C 
BRANCH  12  13
HETATM   13  C2  UNL     1     123.883  54.904  30.045  1.00  0.00     0.030 C 
HETATM   14  C1  UNL     1     123.057  55.552  28.934  1.00  0.00     0.007 C 
ENDBRANCH  12  13
BRANCH  12  15
HETATM   15  N1  UNL     1     122.355  54.547  31.834  1.00  0.00    -0.073 N 
ATOM     16  H13 UNL     1     122.657  54.160  32.728  1.00  0.00     0.274 HD
ATOM     17  H12 UNL     1     122.695  55.498  31.973  1.00  0.00     0.274 HD
ATOM     18  H11 UNL     1     121.344  54.505  31.708  1.00  0.00     0.274 HD
ENDBRANCH  12  15
ENDBRANCH  11  12
ENDBRANCH   9  11
ENDBRANCH   1   8
BRANCH   4  19
HETATM   19  C8  UNL     1     130.492  51.952  33.778  1.00  0.00     0.287 C 
BRANCH  19  20
HETATM   20  N4  UNL     1     131.607  52.846  33.537  1.00  0.00    -0.074 N 
ATOM     21  H43 UNL     1     132.068  52.641  32.651  1.00  0.00     0.274 HD
ATOM     22  H42 UNL     1     131.291  53.793  33.333  1.00  0.00     0.274 HD
ATOM     23  H41 UNL     1     132.266  52.829  34.316  1.00  0.00     0.274 HD
ENDBRANCH  19  20
ENDBRANCH   4  19
TORSDOF 7
ENDMDL
MODEL 3
REMARK VINA RESULT: -5.058091705      1.446      6.366
REMARK  7 active torsions:
REMARK  status: ('A' for Active; 'I' for Inactive)
REMARK    1  A    between atoms: C2_2  and  C3_3 
REMARK    2  A    between atoms: C3_3  and  N1_4 
REMARK    3  A    between atoms: C3_3  and  C4_8 
REMARK    4  A    between atoms: C4_8  and  N2_9 
REMARK    5  A    between atoms: C5_11  and  C6_12 
REMARK    6  A    between atoms: C7_15  and  C8_16 
REMARK    7  A    between atoms: C8_16  and  N4_17 
ROOT
HETATM    1  C6  UNL     1     124.491  53.652  31.334  1.00  0.00     0.120 A 
HETATM    2  N3  UNL     1     124.489  54.163  30.073  1.00  0.00    -0.342 N 
ATOM      3  H3  UNL     1     125.193  53.962  29.363  1.00  0.00     0.167 HD
HETATM    4  C7  UNL     1     123.432  54.969  29.898  1.00  0.00     0.051 A 
HETATM    5  C9  UNL     1     122.755  54.953  31.101  1.00  0.00     0.116 A 
HETATM    6  N5  UNL     1     123.411  54.152  31.954  1.00  0.00    -0.349 N 
ATOM      7  H5  UNL     1     123.134  53.955  32.915  1.00  0.00     0.167 HD
ENDROOT
BRANCH   1   8
HETATM    8  C5  UNL     1     125.478  52.738  31.896  1.00  0.00     0.132 C 
HETATM    9  N2  UNL     1     126.715  53.063  31.897  1.00  0.00    -0.394 N 
ATOM     10  H2  UNL     1     127.006  53.958  31.505  1.00  0.00     0.159 HD
BRANCH   9  11
HETATM   11  C4  UNL     1     127.688  52.175  32.446  1.00  0.00     0.151 C 
BRANCH  11  12
HETATM   12  C3  UNL     1     129.095  52.678  32.362  1.00  0.00     0.200 C 
BRANCH  12  13
HETATM   13  C2  UNL     1     129.889  52.199  33.564  1.00  0.00     0.030 C 
HETATM   14  C1  UNL     1     131.336  52.623  33.311  1.00  0.00     0.007 C 
ENDBRANCH  12  13
BRANCH  12  15
HETATM   15  N1  UNL     1     129.220  54.091  32.286  1.00  0.00    -0.073 N 
ATOM     16  H13 UNL     1     129.683  54.491  33.102  1.00  0.00     0.274 HD
ATOM     17  H12 UNL     1     129.897  54.389  31.584  1.00  0.00     0.274 HD
ATOM     18  H11 UNL     1     128.292  54.483  32.129  1.00  0.00     0.274 HD
ENDBRANCH  12  15
ENDBRANCH  11  12
ENDBRANCH   9  11
ENDBRANCH   1   8
BRANCH   4  19
HETATM   19  C8  UNL     1     123.059  55.725  28.671  1.00  0.00     0.287 C 
BRANCH  19  20
HETATM   20  N4  UNL     1     124.167  56.528  28.196  1.00  0.00    -0.074 N 
ATOM     21  H43 UNL     1     123.848  57.416  27.808  1.00  0.00     0.274 HD
ATOM     22  H42 UNL     1     124.728  56.887  28.967  1.00  0.00     0.274 HD
ATOM     23  H41 UNL     1     124.737  56.009  27.527  1.00  0.00     0.274 HD
ENDBRANCH  19  20
ENDBRANCH   4  19
TORSDOF 7
ENDMDL
MODEL 4
REMARK VINA RESULT: -4.962522420      1.084      1.536
REMARK  7 active torsions:
REMARK  status: ('A' for Active; 'I' for Inactive)
REMARK    1  A    between atoms: C2_2  and  C3_3 
REMARK    2  A    between atoms: C3_3  and  N1_4 
REMARK    3  A    between atoms: C3_3  and  C4_8 
REMARK    4  A    between atoms: C4_8  and  N2_9 
REMARK    5  A    between atoms: C5_11  and  C6_12 
REMARK    6  A    between atoms: C7_15  and  C8_16 
REMARK    7  A    between atoms: C8_16  and  N4_17 
ROOT
HETATM    1  C6  UNL     1     127.259  52.941  31.921  1.00  0.00     0.120 A 
HETATM    2  N3  UNL     1     128.607  52.948  32.103  1.00  0.00    -0.342 N 
ATOM      3  H3  UNL     1     129.273  53.429  31.499  1.00  0.00     0.167 HD
HETATM    4  C7  UNL     1     128.935  52.231  33.188  1.00  0.00     0.051 A 
HETATM    5  C9  UNL     1     127.738  51.764  33.694  1.00  0.00     0.116 A 
HETATM    6  N5  UNL     1     126.739  52.204  32.914  1.00  0.00    -0.349 N 
ATOM      7  H5  UNL     1     125.748  52.010  33.054  1.00  0.00     0.167 HD
ENDROOT
BRANCH   1   8
HETATM    8  C5  UNL     1     126.526  53.608  30.851  1.00  0.00     0.132 C 
HETATM    9  N2  UNL     1     125.310  53.286  30.618  1.00  0.00    -0.394 N 
ATOM     10  H2  UNL     1     124.859  52.565  31.180  1.00  0.00     0.159 HD
BRANCH   9  11
HETATM   11  C4  UNL     1     124.585  53.934  29.574  1.00  0.00     0.151 C 
BRANCH  11  12
HETATM   12  C3  UNL     1     123.311  54.579  30.021  1.00  0.00     0.200 C 
BRANCH  12  13
HETATM   13  C2  UNL     1     123.119  55.902  29.302  1.00  0.00     0.030 C 
HETATM   14  C1  UNL     1     124.232  55.980  28.257  1.00  0.00     0.007 C 
ENDBRANCH  12  13
BRANCH  12  15
HETATM   15  N1  UNL     1     123.221  54.819  31.418  1.00  0.00    -0.073 N 
ATOM     16  H13 UNL     1     122.278  55.070  31.716  1.00  0.00     0.274 HD
ATOM     17  H12 UNL     1     123.317  53.968  31.971  1.00  0.00     0.274 HD
ATOM     18  H11 UNL     1     123.913  55.527  31.663  1.00  0.00     0.274 HD
ENDBRANCH  12  15
ENDBRANCH  11  12
ENDBRANCH   9  11
ENDBRANCH   1   8
BRANCH   4  19
HETATM   19  C8  UNL     1     130.295  51.985  33.737  1.00  0.00     0.287 C 
BRANCH  19  20
HETATM   20  N4  UNL     1     131.214  53.035  33.347  1.00  0.00    -0.074 N 
ATOM     21  H43 UNL     1     131.560  52.898  32.398  1.00  0.00     0.274 HD
ATOM     22  H42 UNL     1     130.732  53.923  33.209  1.00  0.00     0.274 HD
ATOM     23  H41 UNL     1     131.979  53.123  34.017  1.00  0.00     0.274 HD
ENDBRANCH  19  20
ENDBRANCH   4  19
TORSDOF 7
ENDMDL
MODEL 5
REMARK VINA RESULT: -4.895153104      1.202      6.086
REMARK  7 active torsions:
REMARK  status: ('A' for Active; 'I' for Inactive)
REMARK    1  A    between atoms: C2_2  and  C3_3 
REMARK    2  A    between atoms: C3_3  and  N1_4 
REMARK    3  A    between atoms: C3_3  and  C4_8 
REMARK    4  A    between atoms: C4_8  and  N2_9 
REMARK    5  A    between atoms: C5_11  and  C6_12 
REMARK    6  A    between atoms: C7_15  and  C8_16 
REMARK    7  A    between atoms: C8_16  and  N4_17 
ROOT
HETATM    1  C6  UNL     1     125.505  53.836  30.676  1.00  0.00     0.120 A 
HETATM    2  N3  UNL     1     125.206  54.612  29.600  1.00  0.00    -0.342 N 
ATOM      3  H3  UNL     1     125.880  54.919  28.899  1.00  0.00     0.167 HD
HETATM    4  C7  UNL     1     123.900  54.917  29.592  1.00  0.00     0.051 A 
HETATM    5  C9  UNL     1     123.374  54.302  30.711  1.00  0.00     0.116 A 
HETATM    6  N5  UNL     1     124.360  53.655  31.351  1.00  0.00    -0.349 N 
ATOM      7  H5  UNL     1     124.256  53.115  32.209  1.00  0.00     0.167 HD
ENDROOT
BRANCH   1   8
HETATM    8  C5  UNL     1     126.819  53.305  31.023  1.00  0.00     0.132 C 
HETATM    9  N2  UNL     1     127.532  53.903  31.901  1.00  0.00    -0.394 N 
ATOM     10  H2  UNL     1     127.181  54.746  32.353  1.00  0.00     0.159 HD
BRANCH   9  11
HETATM   11  C4  UNL     1     128.818  53.391  32.247  1.00  0.00     0.151 C 
BRANCH  11  12
HETATM   12  C3  UNL     1     128.780  52.112  33.025  1.00  0.00     0.200 C 
BRANCH  12  13
HETATM   13  C2  UNL     1     127.480  52.019  33.806  1.00  0.00     0.030 C 
HETATM   14  C1  UNL     1     126.713  50.840  33.209  1.00  0.00     0.007 C 
ENDBRANCH  12  13
BRANCH  12  15
HETATM   15  N1  UNL     1     129.855  51.936  33.936  1.00  0.00    -0.073 N 
ATOM     16  H13 UNL     1     130.183  50.971  33.976  1.00  0.00     0.274 HD
ATOM     17  H12 UNL     1     130.722  52.361  33.609  1.00  0.00     0.274 HD
ATOM     18  H11 UNL     1     129.562  52.290  34.846  1.00  0.00     0.274 HD
ENDBRANCH  12  15
ENDBRANCH  11  12
ENDBRANCH   9  11
ENDBRANCH   1   8
BRANCH   4  19
HETATM   19  C8  UNL     1     123.165  55.741  28.596  1.00  0.00     0.287 C 
BRANCH  19  20
HETATM   20  N4  UNL     1     124.021  56.766  28.033  1.00  0.00    -0.074 N 
ATOM     21  H43 UNL     1     124.207  56.600  27.044  1.00  0.00     0.274 HD
ATOM     22  H42 UNL     1     123.534  57.658  27.951  1.00  0.00     0.274 HD
ATOM     23  H41 UNL     1     124.885  56.858  28.568  1.00  0.00     0.274 HD
ENDBRANCH  19  20
ENDBRANCH   4  19
TORSDOF 7
ENDMDL
