MODEL 1
REMARK VINA RESULT: -8.277543850      0.000      0.000
REMARK  7 active torsions:
REMARK  status: ('A' for Active; 'I' for Inactive)
REMARK    1  A    between atoms: C2_2  and  C3_3 
REMARK    2  A    between atoms: C2_2  and  C6_6 
REMARK    3  A    between atoms: C7_7  and  C8_8 
REMARK    4  A    between atoms: C8_8  and  C9_10 
REMARK    5  A    between atoms: C9_10  and  C10_11 
REMARK    6  A    between atoms: C10_11  and  C11_13 
REMARK    7  A    between atoms: C16_19  and  S2_20 
ROOT
HETATM    1  C6  UNL     1      23.416  47.361  61.090  1.00  0.00     0.011 A 
HETATM    2  C7  UNL     1      22.118  47.626  61.395  1.00  0.00     0.029 A 
HETATM    3  C15 UNL     1      21.355  48.158  60.382  1.00  0.00     0.067 A 
HETATM    4  S1  UNL     1      22.429  48.270  59.073  1.00  0.00    -0.093 SA
HETATM    5  C16 UNL     1      23.824  47.648  59.814  1.00  0.00     0.052 A 
ENDROOT
BRANCH   2   6
HETATM    6  C8  UNL     1      21.510  47.336  62.729  1.00  0.00     0.168 C 
HETATM    7  O1  UNL     1      21.178  46.182  63.068  1.00  0.00    -0.292 OA
BRANCH   6   8
HETATM    8  C9  UNL     1      21.282  48.429  63.699  1.00  0.00     0.167 C 
BRANCH   8   9
HETATM    9  C10 UNL     1      19.805  48.584  63.987  1.00  0.00     0.156 C 
HETATM   10  O2  UNL     1      19.305  47.895  64.905  1.00  0.00    -0.293 OA
BRANCH   9  11
HETATM   11  C11 UNL     1      19.050  49.524  63.185  1.00  0.00     0.052 C 
HETATM   12  C12 UNL     1      18.203  49.157  62.259  1.00  0.00    -0.084 C 
HETATM   13  C13 UNL     1      17.941  47.748  61.948  1.00  0.00     0.043 C 
HETATM   14  C14 UNL     1      17.478  50.210  61.489  1.00  0.00     0.043 C 
ENDBRANCH   9  11
ENDBRANCH   8   9
ENDBRANCH   6   8
ENDBRANCH   2   6
BRANCH   1  15
HETATM   15  C2  UNL     1      24.441  46.820  62.042  1.00  0.00    -0.033 C 
HETATM   16  C1  UNL     1      24.570  45.529  62.218  1.00  0.00     0.024 C 
BRANCH  15  17
HETATM   17  C3  UNL     1      25.303  47.729  62.779  1.00  0.00     0.007 C 
HETATM   18  C4  UNL     1      24.750  48.639  63.588  1.00  0.00    -0.030 C 
HETATM   19  C5  UNL     1      25.581  49.587  64.362  1.00  0.00     0.036 C 
ENDBRANCH  15  17
ENDBRANCH   1  15
BRANCH   5  20
HETATM   20  S2  UNL     1      25.480  47.412  59.105  1.00  0.00    -0.126 SA
HETATM   21  C17 UNL     1      25.583  48.539  57.673  1.00  0.00     0.096 C 
ENDBRANCH   5  20
TORSDOF 7
ENDMDL
MODEL 2
REMARK VINA RESULT: -7.700266308      2.026      3.575
REMARK  7 active torsions:
REMARK  status: ('A' for Active; 'I' for Inactive)
REMARK    1  A    between atoms: C2_2  and  C3_3 
REMARK    2  A    between atoms: C2_2  and  C6_6 
REMARK    3  A    between atoms: C7_7  and  C8_8 
REMARK    4  A    between atoms: C8_8  and  C9_10 
REMARK    5  A    between atoms: C9_10  and  C10_11 
REMARK    6  A    between atoms: C10_11  and  C11_13 
REMARK    7  A    between atoms: C16_19  and  S2_20 
ROOT
HETATM    1  C6  UNL     1      24.607  47.741  62.779  1.00  0.00     0.011 A 
HETATM    2  C7  UNL     1      23.745  48.482  63.524  1.00  0.00     0.029 A 
HETATM    3  C15 UNL     1      24.318  49.360  64.416  1.00  0.00     0.067 A 
HETATM    4  S1  UNL     1      25.986  49.138  64.197  1.00  0.00    -0.093 SA
HETATM    5  C16 UNL     1      25.945  47.946  62.990  1.00  0.00     0.052 A 
ENDROOT
BRANCH   2   6
HETATM    6  C8  UNL     1      22.260  48.404  63.387  1.00  0.00     0.168 C 
HETATM    7  O1  UNL     1      21.535  47.942  64.292  1.00  0.00    -0.292 OA
BRANCH   6   8
HETATM    8  C9  UNL     1      21.597  48.883  62.155  1.00  0.00     0.167 C 
BRANCH   8   9
HETATM    9  C10 UNL     1      20.471  47.953  61.762  1.00  0.00     0.156 C 
HETATM   10  O2  UNL     1      20.664  46.720  61.847  1.00  0.00    -0.293 OA
BRANCH   9  11
HETATM   11  C11 UNL     1      19.227  48.543  61.310  1.00  0.00     0.052 C 
HETATM   12  C12 UNL     1      18.210  48.765  62.103  1.00  0.00    -0.084 C 
HETATM   13  C13 UNL     1      18.242  48.435  63.531  1.00  0.00     0.043 C 
HETATM   14  C14 UNL     1      16.974  49.376  61.532  1.00  0.00     0.043 C 
ENDBRANCH   9  11
ENDBRANCH   8   9
ENDBRANCH   6   8
ENDBRANCH   2   6
BRANCH   1  15
HETATM   15  C2  UNL     1      24.214  46.696  61.778  1.00  0.00    -0.033 C 
HETATM   16  C1  UNL     1      24.002  45.459  62.154  1.00  0.00     0.024 C 
BRANCH  15  17
HETATM   17  C3  UNL     1      24.066  47.049  60.376  1.00  0.00     0.007 C 
HETATM   18  C4  UNL     1      23.170  46.394  59.630  1.00  0.00    -0.030 C 
HETATM   19  C5  UNL     1      22.979  46.714  58.198  1.00  0.00     0.036 C 
ENDBRANCH  15  17
ENDBRANCH   1  15
BRANCH   5  20
HETATM   20  S2  UNL     1      27.333  47.118  62.161  1.00  0.00    -0.126 SA
HETATM   21  C17 UNL     1      27.534  45.507  62.997  1.00  0.00     0.096 C 
ENDBRANCH   5  20
TORSDOF 7
ENDMDL
MODEL 3
REMARK VINA RESULT: -7.604938289      1.381      1.613
REMARK  7 active torsions:
REMARK  status: ('A' for Active; 'I' for Inactive)
REMARK    1  A    between atoms: C2_2  and  C3_3 
REMARK    2  A    between atoms: C2_2  and  C6_6 
REMARK    3  A    between atoms: C7_7  and  C8_8 
REMARK    4  A    between atoms: C8_8  and  C9_10 
REMARK    5  A    between atoms: C9_10  and  C10_11 
REMARK    6  A    between atoms: C10_11  and  C11_13 
REMARK    7  A    between atoms: C16_19  and  S2_20 
ROOT
HETATM    1  C6  UNL     1      24.212  47.483  60.743  1.00  0.00     0.011 A 
HETATM    2  C7  UNL     1      23.016  48.104  60.564  1.00  0.00     0.029 A 
HETATM    3  C15 UNL     1      22.747  48.542  59.287  1.00  0.00     0.067 A 
HETATM    4  S1  UNL     1      24.122  48.091  58.400  1.00  0.00    -0.093 SA
HETATM    5  C16 UNL     1      25.017  47.358  59.642  1.00  0.00     0.052 A 
ENDROOT
BRANCH   2   6
HETATM    6  C8  UNL     1      22.010  48.286  61.653  1.00  0.00     0.168 C 
HETATM    7  O1  UNL     1      22.191  49.084  62.595  1.00  0.00    -0.292 OA
BRANCH   6   8
HETATM    8  C9  UNL     1      20.749  47.512  61.642  1.00  0.00     0.167 C 
BRANCH   8   9
HETATM    9  C10 UNL     1      19.800  48.029  62.701  1.00  0.00     0.156 C 
HETATM   10  O2  UNL     1      19.705  47.389  63.773  1.00  0.00    -0.293 OA
BRANCH   9  11
HETATM   11  C11 UNL     1      19.054  49.237  62.417  1.00  0.00     0.052 C 
HETATM   12  C12 UNL     1      17.888  49.236  61.825  1.00  0.00    -0.084 C 
HETATM   13  C13 UNL     1      17.227  48.000  61.394  1.00  0.00     0.043 C 
HETATM   14  C14 UNL     1      17.206  50.541  61.579  1.00  0.00     0.043 C 
ENDBRANCH   9  11
ENDBRANCH   8   9
ENDBRANCH   6   8
ENDBRANCH   2   6
BRANCH   1  15
HETATM   15  C2  UNL     1      24.734  46.962  62.049  1.00  0.00    -0.033 C 
HETATM   16  C1  UNL     1      24.419  45.758  62.459  1.00  0.00     0.024 C 
BRANCH  15  17
HETATM   17  C3  UNL     1      25.596  47.792  62.873  1.00  0.00     0.007 C 
HETATM   18  C4  UNL     1      25.043  48.655  63.731  1.00  0.00    -0.030 C 
HETATM   19  C5  UNL     1      25.874  49.524  64.593  1.00  0.00     0.036 C 
ENDBRANCH  15  17
ENDBRANCH   1  15
BRANCH   5  20
HETATM   20  S2  UNL     1      26.660  46.587  59.558  1.00  0.00    -0.126 SA
HETATM   21  C17 UNL     1      26.369  44.785  59.500  1.00  0.00     0.096 C 
ENDBRANCH   5  20
TORSDOF 7
ENDMDL
MODEL 4
REMARK VINA RESULT: -7.578064320      1.447      2.111
REMARK  7 active torsions:
REMARK  status: ('A' for Active; 'I' for Inactive)
REMARK    1  A    between atoms: C2_2  and  C3_3 
REMARK    2  A    between atoms: C2_2  and  C6_6 
REMARK    3  A    between atoms: C7_7  and  C8_8 
REMARK    4  A    between atoms: C8_8  and  C9_10 
REMARK    5  A    between atoms: C9_10  and  C10_11 
REMARK    6  A    between atoms: C10_11  and  C11_13 
REMARK    7  A    between atoms: C16_19  and  S2_20 
ROOT
HETATM    1  C6  UNL     1      24.491  47.290  61.290  1.00  0.00     0.011 A 
HETATM    2  C7  UNL     1      23.196  47.562  61.600  1.00  0.00     0.029 A 
HETATM    3  C15 UNL     1      22.371  47.864  60.541  1.00  0.00     0.067 A 
HETATM    4  S1  UNL     1      23.388  47.762  59.186  1.00  0.00    -0.093 SA
HETATM    5  C16 UNL     1      24.836  47.342  59.965  1.00  0.00     0.052 A 
ENDROOT
BRANCH   2   6
HETATM    6  C8  UNL     1      22.653  47.511  62.991  1.00  0.00     0.168 C 
HETATM    7  O1  UNL     1      22.379  46.432  63.555  1.00  0.00    -0.292 OA
BRANCH   6   8
HETATM    8  C9  UNL     1      22.423  48.760  63.749  1.00  0.00     0.167 C 
BRANCH   8   9
HETATM    9  C10 UNL     1      20.988  48.839  64.220  1.00  0.00     0.156 C 
HETATM   10  O2  UNL     1      20.697  48.324  65.323  1.00  0.00    -0.293 OA
BRANCH   9  11
HETATM   11  C11 UNL     1      20.027  49.509  63.368  1.00  0.00     0.052 C 
HETATM   12  C12 UNL     1      19.208  48.870  62.573  1.00  0.00    -0.084 C 
HETATM   13  C13 UNL     1      19.189  47.407  62.475  1.00  0.00     0.043 C 
HETATM   14  C14 UNL     1      18.258  49.660  61.735  1.00  0.00     0.043 C 
ENDBRANCH   9  11
ENDBRANCH   8   9
ENDBRANCH   6   8
ENDBRANCH   2   6
BRANCH   1  15
HETATM   15  C2  UNL     1      25.574  46.977  62.278  1.00  0.00    -0.033 C 
HETATM   16  C1  UNL     1      26.100  47.926  63.013  1.00  0.00     0.024 C 
BRANCH  15  17
HETATM   17  C3  UNL     1      26.052  45.613  62.429  1.00  0.00     0.007 C 
HETATM   18  C4  UNL     1      27.345  45.400  62.695  1.00  0.00    -0.030 C 
HETATM   19  C5  UNL     1      27.883  44.032  62.858  1.00  0.00     0.036 C 
ENDBRANCH  15  17
ENDBRANCH   1  15
BRANCH   5  20
HETATM   20  S2  UNL     1      26.472  47.033  59.238  1.00  0.00    -0.126 SA
HETATM   21  C17 UNL     1      26.416  47.732  57.552  1.00  0.00     0.096 C 
ENDBRANCH   5  20
TORSDOF 7
ENDMDL
MODEL 5
REMARK VINA RESULT: -7.545316676      1.906      2.785
REMARK  7 active torsions:
REMARK  status: ('A' for Active; 'I' for Inactive)
REMARK    1  A    between atoms: C2_2  and  C3_3 
REMARK    2  A    between atoms: C2_2  and  C6_6 
REMARK    3  A    between atoms: C7_7  and  C8_8 
REMARK    4  A    between atoms: C8_8  and  C9_10 
REMARK    5  A    between atoms: C9_10  and  C10_11 
REMARK    6  A    between atoms: C10_11  and  C11_13 
REMARK    7  A    between atoms: C16_19  and  S2_20 
ROOT
HETATM    1  C6  UNL     1      25.574  47.007  60.340  1.00  0.00     0.011 A 
HETATM    2  C7  UNL     1      24.490  47.296  59.572  1.00  0.00     0.029 A 
HETATM    3  C15 UNL     1      24.748  47.612  58.258  1.00  0.00     0.067 A 
HETATM    4  S1  UNL     1      26.437  47.500  58.132  1.00  0.00    -0.093 SA
HETATM    5  C16 UNL     1      26.799  47.058  59.730  1.00  0.00     0.052 A 
ENDROOT
BRANCH   2   6
HETATM    6  C8  UNL     1      23.085  47.249  60.076  1.00  0.00     0.168 C 
HETATM    7  O1  UNL     1      22.376  46.228  59.966  1.00  0.00    -0.292 OA
BRANCH   6   8
HETATM    8  C9  UNL     1      22.487  48.431  60.733  1.00  0.00     0.167 C 
BRANCH   8   9
HETATM    9  C10 UNL     1      21.348  48.017  61.639  1.00  0.00     0.156 C 
HETATM   10  O2  UNL     1      21.616  47.326  62.647  1.00  0.00    -0.293 OA
BRANCH   9  11
HETATM   11  C11 UNL     1      20.009  48.444  61.289  1.00  0.00     0.052 C 
HETATM   12  C12 UNL     1      19.236  49.115  62.103  1.00  0.00    -0.084 C 
HETATM   13  C13 UNL     1      19.661  49.497  63.453  1.00  0.00     0.043 C 
HETATM   14  C14 UNL     1      17.871  49.503  61.641  1.00  0.00     0.043 C 
ENDBRANCH   9  11
ENDBRANCH   8   9
ENDBRANCH   6   8
ENDBRANCH   2   6
BRANCH   1  15
HETATM   15  C2  UNL     1      25.539  46.676  61.802  1.00  0.00    -0.033 C 
HETATM   16  C1  UNL     1      25.174  45.484  62.207  1.00  0.00     0.024 C 
BRANCH  15  17
HETATM   17  C3  UNL     1      25.911  47.679  62.786  1.00  0.00     0.007 C 
HETATM   18  C4  UNL     1      24.954  48.414  63.362  1.00  0.00    -0.030 C 
HETATM   19  C5  UNL     1      25.278  49.448  64.369  1.00  0.00     0.036 C 
ENDBRANCH  15  17
ENDBRANCH   1  15
BRANCH   5  20
HETATM   20  S2  UNL     1      28.420  46.728  60.481  1.00  0.00    -0.126 SA
HETATM   21  C17 UNL     1      29.120  45.310  59.568  1.00  0.00     0.096 C 
ENDBRANCH   5  20
TORSDOF 7
ENDMDL
