MODEL 1
REMARK VINA RESULT: -6.617946807      0.000      0.000
REMARK  20 active torsions:
REMARK  status: ('A' for Active; 'I' for Inactive)
REMARK    1  A    between atoms: C2_2  and  C4_4 
REMARK    2  A    between atoms: C6_7  and  O1_8 
REMARK    3  A    between atoms: C6_7  and  C7_10 
REMARK    4  A    between atoms: C7_10  and  O2_11 
REMARK    5  A    between atoms: C8_13  and  O3_14 
REMARK    6  A    between atoms: C10_17  and  O4_18 
REMARK    7  A    between atoms: C14_23  and  C15_24 
REMARK    8  A    between atoms: C15_24  and  C16_25 
REMARK    9  A    between atoms: C16_25  and  O5_26 
REMARK   10  A    between atoms: C18_29  and  N2_30 
REMARK   11  A    between atoms: N2_30  and  C19_32 
REMARK   12  A    between atoms: C19_32  and  C20_33 
REMARK   13  A    between atoms: C20_33  and  C21_34 
REMARK   14  A    between atoms: C21_34  and  N3_35 
REMARK   15  A    between atoms: N3_35  and  C22_38 
REMARK   16  A    between atoms: C22_38  and  C23_39 
REMARK   17  A    between atoms: C23_39  and  O6_40 
REMARK   18  A    between atoms: C23_39  and  C24_42 
REMARK   19  A    between atoms: C24_42  and  O7_43 
REMARK   20  A    between atoms: C25_45  and  O8_46 
ROOT
HETATM    1  C4  UNL     1       1.772  57.663 -45.329  1.00  0.00     0.098 C 
HETATM    2  C5  UNL     1       0.547  58.565 -45.210  1.00  0.00     0.073 C 
HETATM    3  N1  UNL     1      -0.397  59.278 -45.085  1.00  0.00    -0.196 NA
HETATM    4  C6  UNL     1       2.184  57.475 -43.925  1.00  0.00     0.126 C 
HETATM    5  C8  UNL     1       1.903  56.139 -43.277  1.00  0.00     0.159 C 
HETATM    6  C9  UNL     1       0.614  55.640 -43.755  1.00  0.00     0.073 C 
HETATM    7  C10 UNL     1       0.394  55.559 -45.207  1.00  0.00     0.070 C 
HETATM    8  C11 UNL     1       0.793  54.130 -45.644  1.00  0.00     0.044 C 
HETATM    9  C12 UNL     1       0.990  54.420 -47.074  1.00  0.00    -0.006 C 
HETATM   10  C13 UNL     1       1.214  53.434 -48.061  1.00  0.00     0.015 C 
HETATM   11  C14 UNL     1       2.421  52.782 -48.555  1.00  0.00    -0.032 C 
HETATM   12  C17 UNL     1       2.882  51.602 -47.732  1.00  0.00     0.037 C 
HETATM   13  C18 UNL     1       4.151  50.965 -48.121  1.00  0.00     0.106 C 
HETATM   14  C25 UNL     1       5.124  51.701 -48.962  1.00  0.00     0.148 C 
HETATM   15  C26 UNL     1       4.779  53.015 -49.524  1.00  0.00    -0.015 C 
HETATM   16  C27 UNL     1       4.842  53.178 -51.015  1.00  0.00     0.018 C 
HETATM   17  C28 UNL     1       6.039  53.891 -49.185  1.00  0.00     0.018 C 
HETATM   18  C29 UNL     1       3.570  53.714 -48.891  1.00  0.00     0.004 C 
HETATM   19  C30 UNL     1       4.011  54.682 -47.906  1.00  0.00     0.007 C 
HETATM   20  C31 UNL     1       3.197  55.025 -46.697  1.00  0.00     0.006 C 
HETATM   21  C32 UNL     1       1.933  55.635 -46.965  1.00  0.00     0.003 C 
HETATM   22  C33 UNL     1       1.147  56.517 -46.103  1.00  0.00     0.015 C 
HETATM   23  C34 UNL     1       0.093  57.049 -47.087  1.00  0.00     0.020 C 
ENDROOT
BRANCH   1  24
HETATM   24  C2  UNL     1       2.706  58.513 -46.096  1.00  0.00     0.004 C 
HETATM   25  C1  UNL     1       2.706  58.561 -47.563  1.00  0.00     0.011 C 
HETATM   26  C3  UNL     1       2.484  59.996 -45.699  1.00  0.00     0.011 C 
ENDBRANCH   1  24
BRANCH   4  27
HETATM   27  O1  UNL     1       1.352  58.314 -43.073  1.00  0.00    -0.383 OA
ATOM     28  H1  UNL     1       1.873  59.042 -42.754  1.00  0.00     0.210 HD
ENDBRANCH   4  27
BRANCH   4  29
HETATM   29  C7  UNL     1       3.508  57.886 -43.409  1.00  0.00     0.206 C 
BRANCH  29  30
HETATM   30  O2  UNL     1       3.850  57.593 -42.118  1.00  0.00    -0.398 OA
ATOM     31  H2  UNL     1       4.016  56.690 -41.870  1.00  0.00     0.209 HD
ENDBRANCH  29  30
ENDBRANCH   4  29
BRANCH   5  32
HETATM   32  O3  UNL     1       2.959  55.272 -43.189  1.00  0.00    -0.392 OA
ATOM     33  H3  UNL     1       2.796  54.454 -42.734  1.00  0.00     0.210 HD
ENDBRANCH   5  32
BRANCH   7  34
HETATM   34  O4  UNL     1      -0.993  55.574 -45.362  1.00  0.00    -0.389 OA
ATOM     35  H4  UNL     1      -1.285  54.733 -45.030  1.00  0.00     0.210 HD
ENDBRANCH   7  34
BRANCH  11  36
HETATM   36  C15 UNL     1       1.990  52.160 -49.877  1.00  0.00     0.036 C 
BRANCH  36  37
HETATM   37  C16 UNL     1       0.593  51.754 -50.081  1.00  0.00     0.165 C 
BRANCH  37  38
HETATM   38  O5  UNL     1       0.281  50.989 -51.193  1.00  0.00    -0.401 OA
ATOM     39  H5  UNL     1      -0.391  51.302 -51.786  1.00  0.00     0.209 HD
ENDBRANCH  37  38
ENDBRANCH  36  37
ENDBRANCH  11  36
BRANCH  13  40
HETATM   40  N2  UNL     1       3.966  49.606 -48.599  1.00  0.00    -0.414 N 
ATOM     41  H2  UNL     1       4.733  49.085 -49.024  1.00  0.00     0.153 HD
BRANCH  40  42
HETATM   42  C19 UNL     1       2.688  49.036 -48.454  1.00  0.00     0.116 C 
BRANCH  42  43
HETATM   43  C20 UNL     1       2.346  48.419 -49.821  1.00  0.00     0.046 C 
BRANCH  43  44
HETATM   44  C21 UNL     1       2.872  47.030 -49.951  1.00  0.00     0.234 C 
BRANCH  44  45
HETATM   45  N3  UNL     1       1.823  46.137 -50.323  1.00  0.00    -0.073 N 
ATOM     46  H32 UNL     1       0.926  46.447 -49.950  1.00  0.00     0.277 HD
ATOM     47  H31 UNL     1       1.618  46.207 -51.320  1.00  0.00     0.277 HD
BRANCH  45  48
HETATM   48  C22 UNL     1       2.103  44.775 -49.942  1.00  0.00     0.265 C 
BRANCH  48  49
HETATM   49  C23 UNL     1       1.001  44.246 -49.045  1.00  0.00     0.167 C 
BRANCH  49  50
HETATM   50  O6  UNL     1       1.064  42.839 -49.166  1.00  0.00    -0.392 OA
ATOM     51  H6  UNL     1       1.798  42.573 -48.625  1.00  0.00     0.210 HD
ENDBRANCH  49  50
BRANCH  49  52
HETATM   52  C24 UNL     1       1.283  44.550 -47.590  1.00  0.00     0.197 C 
BRANCH  52  53
HETATM   53  O7  UNL     1       0.879  45.852 -47.324  1.00  0.00    -0.398 OA
ATOM     54  H7  UNL     1       0.065  46.016 -47.786  1.00  0.00     0.209 HD
ENDBRANCH  52  53
ENDBRANCH  49  52
ENDBRANCH  48  49
ENDBRANCH  45  48
ENDBRANCH  44  45
ENDBRANCH  43  44
ENDBRANCH  42  43
ENDBRANCH  40  42
ENDBRANCH  13  40
BRANCH  14  55
HETATM   55  O8  UNL     1       5.589  50.876 -50.024  1.00  0.00    -0.393 OA
ATOM     56  H8  UNL     1       6.518  50.702 -49.929  1.00  0.00     0.210 HD
ENDBRANCH  14  55
TORSDOF 20
ENDMDL
MODEL 2
REMARK VINA RESULT: -6.499526162      0.807      1.062
REMARK  20 active torsions:
REMARK  status: ('A' for Active; 'I' for Inactive)
REMARK    1  A    between atoms: C2_2  and  C4_4 
REMARK    2  A    between atoms: C6_7  and  O1_8 
REMARK    3  A    between atoms: C6_7  and  C7_10 
REMARK    4  A    between atoms: C7_10  and  O2_11 
REMARK    5  A    between atoms: C8_13  and  O3_14 
REMARK    6  A    between atoms: C10_17  and  O4_18 
REMARK    7  A    between atoms: C14_23  and  C15_24 
REMARK    8  A    between atoms: C15_24  and  C16_25 
REMARK    9  A    between atoms: C16_25  and  O5_26 
REMARK   10  A    between atoms: C18_29  and  N2_30 
REMARK   11  A    between atoms: N2_30  and  C19_32 
REMARK   12  A    between atoms: C19_32  and  C20_33 
REMARK   13  A    between atoms: C20_33  and  C21_34 
REMARK   14  A    between atoms: C21_34  and  N3_35 
REMARK   15  A    between atoms: N3_35  and  C22_38 
REMARK   16  A    between atoms: C22_38  and  C23_39 
REMARK   17  A    between atoms: C23_39  and  O6_40 
REMARK   18  A    between atoms: C23_39  and  C24_42 
REMARK   19  A    between atoms: C24_42  and  O7_43 
REMARK   20  A    between atoms: C25_45  and  O8_46 
ROOT
HETATM    1  C4  UNL     1       1.816  57.756 -45.240  1.00  0.00     0.098 C 
HETATM    2  C5  UNL     1       0.632  58.718 -45.184  1.00  0.00     0.073 C 
HETATM    3  N1  UNL     1      -0.282  59.475 -45.106  1.00  0.00    -0.196 NA
HETATM    4  C6  UNL     1       2.108  57.504 -43.817  1.00  0.00     0.126 C 
HETATM    5  C8  UNL     1       1.711  56.165 -43.239  1.00  0.00     0.159 C 
HETATM    6  C9  UNL     1       0.439  55.750 -43.831  1.00  0.00     0.073 C 
HETATM    7  C10 UNL     1       0.330  55.725 -45.297  1.00  0.00     0.070 C 
HETATM    8  C11 UNL     1       0.688  54.292 -45.752  1.00  0.00     0.044 C 
HETATM    9  C12 UNL     1       1.010  54.615 -47.152  1.00  0.00    -0.006 C 
HETATM   10  C13 UNL     1       1.260  53.649 -48.153  1.00  0.00     0.015 C 
HETATM   11  C14 UNL     1       2.468  52.950 -48.576  1.00  0.00    -0.032 C 
HETATM   12  C17 UNL     1       2.805  51.723 -47.761  1.00  0.00     0.037 C 
HETATM   13  C18 UNL     1       4.066  51.032 -48.075  1.00  0.00     0.106 C 
HETATM   14  C25 UNL     1       5.137  51.741 -48.814  1.00  0.00     0.148 C 
HETATM   15  C26 UNL     1       4.903  53.089 -49.354  1.00  0.00    -0.015 C 
HETATM   16  C27 UNL     1       5.089  53.293 -50.830  1.00  0.00     0.018 C 
HETATM   17  C28 UNL     1       6.176  53.886 -48.891  1.00  0.00     0.018 C 
HETATM   18  C29 UNL     1       3.685  53.830 -48.791  1.00  0.00     0.004 C 
HETATM   19  C30 UNL     1       4.096  54.743 -47.742  1.00  0.00     0.007 C 
HETATM   20  C31 UNL     1       3.209  55.091 -46.587  1.00  0.00     0.006 C 
HETATM   21  C32 UNL     1       2.002  55.774 -46.929  1.00  0.00     0.003 C 
HETATM   22  C33 UNL     1       1.197  56.670 -46.099  1.00  0.00     0.015 C 
HETATM   23  C34 UNL     1       0.250  57.286 -47.142  1.00  0.00     0.020 C 
ENDROOT
BRANCH   1  24
HETATM   24  C2  UNL     1       2.848  58.580 -45.904  1.00  0.00     0.004 C 
HETATM   25  C1  UNL     1       2.966  58.670 -47.364  1.00  0.00     0.011 C 
HETATM   26  C3  UNL     1       2.667  60.060 -45.478  1.00  0.00     0.011 C 
ENDBRANCH   1  24
BRANCH   4  27
HETATM   27  O1  UNL     1       1.255  58.359 -43.002  1.00  0.00    -0.383 OA
ATOM     28  H1  UNL     1       1.804  58.905 -42.451  1.00  0.00     0.210 HD
ENDBRANCH   4  27
BRANCH   4  29
HETATM   29  C7  UNL     1       3.407  57.829 -43.188  1.00  0.00     0.206 C 
BRANCH  29  30
HETATM   30  O2  UNL     1       3.635  57.473 -41.887  1.00  0.00    -0.398 OA
ATOM     31  H2  UNL     1       3.073  57.817 -41.202  1.00  0.00     0.209 HD
ENDBRANCH  29  30
ENDBRANCH   4  29
BRANCH   5  32
HETATM   32  O3  UNL     1       2.712  55.242 -43.101  1.00  0.00    -0.392 OA
ATOM     33  H3  UNL     1       3.177  55.004 -43.895  1.00  0.00     0.210 HD
ENDBRANCH   5  32
BRANCH   7  34
HETATM   34  O4  UNL     1      -1.039  55.818 -45.556  1.00  0.00    -0.389 OA
ATOM     35  H4  UNL     1      -1.149  56.655 -45.992  1.00  0.00     0.210 HD
ENDBRANCH   7  34
BRANCH  11  36
HETATM   36  C15 UNL     1       2.110  52.392 -49.947  1.00  0.00     0.036 C 
BRANCH  36  37
HETATM   37  C16 UNL     1       0.867  51.633 -50.135  1.00  0.00     0.165 C 
BRANCH  37  38
HETATM   38  O5  UNL     1       0.824  50.666 -51.124  1.00  0.00    -0.401 OA
ATOM     39  H5  UNL     1       0.952  50.933 -52.027  1.00  0.00     0.209 HD
ENDBRANCH  37  38
ENDBRANCH  36  37
ENDBRANCH  11  36
BRANCH  13  40
HETATM   40  N2  UNL     1       3.851  49.700 -48.613  1.00  0.00    -0.414 N 
ATOM     41  H2  UNL     1       4.523  49.271 -49.250  1.00  0.00     0.153 HD
BRANCH  40  42
HETATM   42  C19 UNL     1       2.681  49.024 -48.222  1.00  0.00     0.116 C 
BRANCH  42  43
HETATM   43  C20 UNL     1       2.479  47.903 -49.255  1.00  0.00     0.046 C 
BRANCH  43  44
HETATM   44  C21 UNL     1       2.261  46.580 -48.605  1.00  0.00     0.234 C 
BRANCH  44  45
HETATM   45  N3  UNL     1       1.571  45.700 -49.491  1.00  0.00    -0.073 N 
ATOM     46  H32 UNL     1       0.673  45.414 -49.101  1.00  0.00     0.277 HD
ATOM     47  H31 UNL     1       1.239  46.197 -50.318  1.00  0.00     0.277 HD
BRANCH  45  48
HETATM   48  C22 UNL     1       2.369  44.555 -49.857  1.00  0.00     0.265 C 
BRANCH  48  49
HETATM   49  C23 UNL     1       2.767  43.778 -48.617  1.00  0.00     0.167 C 
BRANCH  49  50
HETATM   50  O6  UNL     1       1.923  42.645 -48.599  1.00  0.00    -0.392 OA
ATOM     51  H6  UNL     1       1.728  42.492 -47.682  1.00  0.00     0.210 HD
ENDBRANCH  49  50
BRANCH  49  52
HETATM   52  C24 UNL     1       4.177  43.242 -48.734  1.00  0.00     0.197 C 
BRANCH  52  53
HETATM   53  O7  UNL     1       4.126  41.855 -48.704  1.00  0.00    -0.398 OA
ATOM     54  H7  UNL     1       4.908  41.514 -49.123  1.00  0.00     0.209 HD
ENDBRANCH  52  53
ENDBRANCH  49  52
ENDBRANCH  48  49
ENDBRANCH  45  48
ENDBRANCH  44  45
ENDBRANCH  43  44
ENDBRANCH  42  43
ENDBRANCH  40  42
ENDBRANCH  13  40
BRANCH  14  55
HETATM   55  O8  UNL     1       5.641  50.927 -49.866  1.00  0.00    -0.393 OA
ATOM     56  H8  UNL     1       5.944  51.465 -50.588  1.00  0.00     0.210 HD
ENDBRANCH  14  55
TORSDOF 20
ENDMDL
MODEL 3
REMARK VINA RESULT: -6.393534790      6.607     10.994
REMARK  20 active torsions:
REMARK  status: ('A' for Active; 'I' for Inactive)
REMARK    1  A    between atoms: C2_2  and  C4_4 
REMARK    2  A    between atoms: C6_7  and  O1_8 
REMARK    3  A    between atoms: C6_7  and  C7_10 
REMARK    4  A    between atoms: C7_10  and  O2_11 
REMARK    5  A    between atoms: C8_13  and  O3_14 
REMARK    6  A    between atoms: C10_17  and  O4_18 
REMARK    7  A    between atoms: C14_23  and  C15_24 
REMARK    8  A    between atoms: C15_24  and  C16_25 
REMARK    9  A    between atoms: C16_25  and  O5_26 
REMARK   10  A    between atoms: C18_29  and  N2_30 
REMARK   11  A    between atoms: N2_30  and  C19_32 
REMARK   12  A    between atoms: C19_32  and  C20_33 
REMARK   13  A    between atoms: C20_33  and  C21_34 
REMARK   14  A    between atoms: C21_34  and  N3_35 
REMARK   15  A    between atoms: N3_35  and  C22_38 
REMARK   16  A    between atoms: C22_38  and  C23_39 
REMARK   17  A    between atoms: C23_39  and  O6_40 
REMARK   18  A    between atoms: C23_39  and  C24_42 
REMARK   19  A    between atoms: C24_42  and  O7_43 
REMARK   20  A    between atoms: C25_45  and  O8_46 
ROOT
HETATM    1  C4  UNL     1      -5.890  51.191 -56.636  1.00  0.00     0.098 C 
HETATM    2  C5  UNL     1      -6.219  51.228 -58.126  1.00  0.00     0.073 C 
HETATM    3  N1  UNL     1      -6.507  51.239 -59.280  1.00  0.00    -0.196 NA
HETATM    4  C6  UNL     1      -6.748  50.102 -56.133  1.00  0.00     0.126 C 
HETATM    5  C8  UNL     1      -6.091  48.786 -55.784  1.00  0.00     0.159 C 
HETATM    6  C9  UNL     1      -5.023  48.518 -56.747  1.00  0.00     0.073 C 
HETATM    7  C10 UNL     1      -4.004  49.556 -56.962  1.00  0.00     0.070 C 
HETATM    8  C11 UNL     1      -2.833  49.245 -56.001  1.00  0.00     0.044 C 
HETATM    9  C12 UNL     1      -2.229  50.587 -56.001  1.00  0.00    -0.006 C 
HETATM   10  C13 UNL     1      -0.984  50.898 -55.408  1.00  0.00     0.015 C 
HETATM   11  C14 UNL     1      -0.600  51.287 -54.057  1.00  0.00    -0.032 C 
HETATM   12  C17 UNL     1      -0.402  50.134 -53.101  1.00  0.00     0.037 C 
HETATM   13  C18 UNL     1      -0.112  50.467 -51.696  1.00  0.00     0.106 C 
HETATM   14  C25 UNL     1      -0.440  51.812 -51.169  1.00  0.00     0.148 C 
HETATM   15  C26 UNL     1      -0.933  52.866 -52.068  1.00  0.00    -0.015 C 
HETATM   16  C27 UNL     1      -0.156  54.148 -52.137  1.00  0.00     0.018 C 
HETATM   17  C28 UNL     1      -2.178  53.439 -51.300  1.00  0.00     0.018 C 
HETATM   18  C29 UNL     1      -1.436  52.391 -53.437  1.00  0.00     0.004 C 
HETATM   19  C30 UNL     1      -2.880  52.266 -53.423  1.00  0.00     0.007 C 
HETATM   20  C31 UNL     1      -3.607  51.260 -54.261  1.00  0.00     0.006 C 
HETATM   21  C32 UNL     1      -3.476  51.433 -55.673  1.00  0.00     0.003 C 
HETATM   22  C33 UNL     1      -4.388  51.001 -56.731  1.00  0.00     0.015 C 
HETATM   23  C34 UNL     1      -3.828  51.757 -57.947  1.00  0.00     0.020 C 
ENDROOT
BRANCH   1  24
HETATM   24  C2  UNL     1      -6.334  52.528 -56.190  1.00  0.00     0.004 C 
HETATM   25  C1  UNL     1      -5.474  53.714 -56.278  1.00  0.00     0.011 C 
HETATM   26  C3  UNL     1      -7.586  52.945 -57.007  1.00  0.00     0.011 C 
ENDBRANCH   1  24
BRANCH   4  27
HETATM   27  O1  UNL     1      -7.608  49.641 -57.214  1.00  0.00    -0.383 OA
ATOM     28  H1  UNL     1      -8.159  48.937 -56.892  1.00  0.00     0.210 HD
ENDBRANCH   4  27
BRANCH   4  29
HETATM   29  C7  UNL     1      -7.787  50.303 -55.099  1.00  0.00     0.206 C 
BRANCH  29  30
HETATM   30  O2  UNL     1      -8.487  49.227 -54.628  1.00  0.00    -0.398 OA
ATOM     31  H2  UNL     1      -9.418  49.159 -54.807  1.00  0.00     0.209 HD
ENDBRANCH  29  30
ENDBRANCH   4  29
BRANCH   5  32
HETATM   32  O3  UNL     1      -5.860  48.556 -54.455  1.00  0.00    -0.392 OA
ATOM     33  H3  UNL     1      -5.418  47.743 -54.238  1.00  0.00     0.210 HD
ENDBRANCH   5  32
BRANCH   7  34
HETATM   34  O4  UNL     1      -3.473  49.282 -58.224  1.00  0.00    -0.389 OA
ATOM     35  H4  UNL     1      -4.044  49.736 -58.833  1.00  0.00     0.210 HD
ENDBRANCH   7  34
BRANCH  11  36
HETATM   36  C15 UNL     1       0.798  51.868 -54.224  1.00  0.00     0.036 C 
BRANCH  36  37
HETATM   37  C16 UNL     1       1.829  51.116 -54.951  1.00  0.00     0.165 C 
BRANCH  37  38
HETATM   38  O5  UNL     1       3.091  51.009 -54.391  1.00  0.00    -0.401 OA
ATOM     39  H5  UNL     1       3.552  51.805 -54.154  1.00  0.00     0.209 HD
ENDBRANCH  37  38
ENDBRANCH  36  37
ENDBRANCH  11  36
BRANCH  13  40
HETATM   40  N2  UNL     1       1.222  50.056 -51.292  1.00  0.00    -0.414 N 
ATOM     41  H2  UNL     1       1.746  50.575 -50.588  1.00  0.00     0.153 HD
BRANCH  40  42
HETATM   42  C19 UNL     1       1.762  48.912 -51.909  1.00  0.00     0.116 C 
BRANCH  42  43
HETATM   43  C20 UNL     1       2.444  48.113 -50.786  1.00  0.00     0.046 C 
BRANCH  43  44
HETATM   44  C21 UNL     1       2.510  46.657 -51.100  1.00  0.00     0.234 C 
BRANCH  44  45
HETATM   45  N3  UNL     1       1.818  45.905 -50.105  1.00  0.00    -0.073 N 
ATOM     46  H32 UNL     1       0.829  46.153 -50.077  1.00  0.00     0.277 HD
ATOM     47  H31 UNL     1       1.732  44.925 -50.378  1.00  0.00     0.277 HD
BRANCH  45  48
HETATM   48  C22 UNL     1       2.424  46.032 -48.803  1.00  0.00     0.265 C 
BRANCH  48  49
HETATM   49  C23 UNL     1       1.802  45.040 -47.838  1.00  0.00     0.167 C 
BRANCH  49  50
HETATM   50  O6  UNL     1       0.554  45.599 -47.481  1.00  0.00    -0.392 OA
ATOM     51  H6  UNL     1       0.183  45.923 -48.293  1.00  0.00     0.210 HD
ENDBRANCH  49  50
BRANCH  49  52
HETATM   52  C24 UNL     1       1.488  43.729 -48.524  1.00  0.00     0.197 C 
BRANCH  52  53
HETATM   53  O7  UNL     1       0.147  43.729 -48.886  1.00  0.00    -0.398 OA
ATOM     54  H7  UNL     1      -0.061  44.571 -49.274  1.00  0.00     0.209 HD
ENDBRANCH  52  53
ENDBRANCH  49  52
ENDBRANCH  48  49
ENDBRANCH  45  48
ENDBRANCH  44  45
ENDBRANCH  43  44
ENDBRANCH  42  43
ENDBRANCH  40  42
ENDBRANCH  13  40
BRANCH  14  55
HETATM   55  O8  UNL     1       0.657  52.340 -50.432  1.00  0.00    -0.393 OA
ATOM     56  H8  UNL     1       1.133  52.976 -50.954  1.00  0.00     0.210 HD
ENDBRANCH  14  55
TORSDOF 20
ENDMDL
MODEL 4
REMARK VINA RESULT: -6.111111686      1.956      3.382
REMARK  20 active torsions:
REMARK  status: ('A' for Active; 'I' for Inactive)
REMARK    1  A    between atoms: C2_2  and  C4_4 
REMARK    2  A    between atoms: C6_7  and  O1_8 
REMARK    3  A    between atoms: C6_7  and  C7_10 
REMARK    4  A    between atoms: C7_10  and  O2_11 
REMARK    5  A    between atoms: C8_13  and  O3_14 
REMARK    6  A    between atoms: C10_17  and  O4_18 
REMARK    7  A    between atoms: C14_23  and  C15_24 
REMARK    8  A    between atoms: C15_24  and  C16_25 
REMARK    9  A    between atoms: C16_25  and  O5_26 
REMARK   10  A    between atoms: C18_29  and  N2_30 
REMARK   11  A    between atoms: N2_30  and  C19_32 
REMARK   12  A    between atoms: C19_32  and  C20_33 
REMARK   13  A    between atoms: C20_33  and  C21_34 
REMARK   14  A    between atoms: C21_34  and  N3_35 
REMARK   15  A    between atoms: N3_35  and  C22_38 
REMARK   16  A    between atoms: C22_38  and  C23_39 
REMARK   17  A    between atoms: C23_39  and  O6_40 
REMARK   18  A    between atoms: C23_39  and  C24_42 
REMARK   19  A    between atoms: C24_42  and  O7_43 
REMARK   20  A    between atoms: C25_45  and  O8_46 
ROOT
HETATM    1  C4  UNL     1       1.279  57.136 -46.383  1.00  0.00     0.098 C 
HETATM    2  C5  UNL     1       1.046  57.478 -44.914  1.00  0.00     0.073 C 
HETATM    3  N1  UNL     1       0.879  57.778 -43.775  1.00  0.00    -0.196 NA
HETATM    4  C6  UNL     1       2.295  58.121 -46.797  1.00  0.00     0.126 C 
HETATM    5  C8  UNL     1       3.713  57.637 -46.993  1.00  0.00     0.159 C 
HETATM    6  C9  UNL     1       4.016  56.627 -45.980  1.00  0.00     0.073 C 
HETATM    7  C10 UNL     1       3.101  55.484 -45.842  1.00  0.00     0.070 C 
HETATM    8  C11 UNL     1       3.658  54.351 -46.734  1.00  0.00     0.044 C 
HETATM    9  C12 UNL     1       2.412  53.576 -46.853  1.00  0.00    -0.006 C 
HETATM   10  C13 UNL     1       2.326  52.293 -47.439  1.00  0.00     0.015 C 
HETATM   11  C14 UNL     1       2.132  51.842 -48.812  1.00  0.00    -0.032 C 
HETATM   12  C17 UNL     1       3.393  51.783 -49.641  1.00  0.00     0.037 C 
HETATM   13  C18 UNL     1       3.247  51.432 -51.064  1.00  0.00     0.106 C 
HETATM   14  C25 UNL     1       1.933  51.574 -51.732  1.00  0.00     0.148 C 
HETATM   15  C26 UNL     1       0.737  51.938 -50.957  1.00  0.00    -0.015 C 
HETATM   16  C27 UNL     1      -0.435  51.000 -50.997  1.00  0.00     0.018 C 
HETATM   17  C28 UNL     1       0.091  53.086 -51.813  1.00  0.00     0.018 C 
HETATM   18  C29 UNL     1       0.999  52.518 -49.562  1.00  0.00     0.004 C 
HETATM   19  C30 UNL     1       0.938  53.966 -49.603  1.00  0.00     0.007 C 
HETATM   20  C31 UNL     1       1.750  54.830 -48.688  1.00  0.00     0.006 C 
HETATM   21  C32 UNL     1       1.451  54.697 -47.298  1.00  0.00     0.003 C 
HETATM   22  C33 UNL     1       1.650  55.673 -46.227  1.00  0.00     0.015 C 
HETATM   23  C34 UNL     1       0.851  55.036 -45.079  1.00  0.00     0.020 C 
ENDROOT
BRANCH   1  24
HETATM   24  C2  UNL     1      -0.051  57.395 -46.972  1.00  0.00     0.004 C 
HETATM   25  C1  UNL     1      -1.087  56.360 -47.065  1.00  0.00     0.011 C 
HETATM   26  C3  UNL     1      -0.753  58.519 -46.166  1.00  0.00     0.011 C 
ENDBRANCH   1  24
BRANCH   4  27
HETATM   27  O1  UNL     1       2.527  59.050 -45.698  1.00  0.00    -0.383 OA
ATOM     28  H1  UNL     1       2.421  59.938 -46.018  1.00  0.00     0.210 HD
ENDBRANCH   4  27
BRANCH   4  29
HETATM   29  C7  UNL     1       2.070  59.111 -47.874  1.00  0.00     0.206 C 
BRANCH  29  30
HETATM   30  O2  UNL     1       2.914  60.179 -47.996  1.00  0.00    -0.398 OA
ATOM     31  H2  UNL     1       3.125  60.514 -48.860  1.00  0.00     0.209 HD
ENDBRANCH  29  30
ENDBRANCH   4  29
BRANCH   5  32
HETATM   32  O3  UNL     1       4.107  57.419 -48.286  1.00  0.00    -0.392 OA
ATOM     33  H3  UNL     1       3.934  56.554 -48.639  1.00  0.00     0.210 HD
ENDBRANCH   5  32
BRANCH   7  34
HETATM   34  O4  UNL     1       3.309  55.012 -44.545  1.00  0.00    -0.389 OA
ATOM     35  H4  UNL     1       3.918  54.289 -44.643  1.00  0.00     0.210 HD
ENDBRANCH   7  34
BRANCH  11  36
HETATM   36  C15 UNL     1       1.721  50.382 -48.666  1.00  0.00     0.036 C 
BRANCH  36  37
HETATM   37  C16 UNL     1       2.121  49.618 -47.476  1.00  0.00     0.165 C 
BRANCH  37  38
HETATM   38  O5  UNL     1       2.127  48.236 -47.549  1.00  0.00    -0.401 OA
ATOM     39  H5  UNL     1       2.627  47.749 -46.903  1.00  0.00     0.209 HD
ENDBRANCH  37  38
ENDBRANCH  36  37
ENDBRANCH  11  36
BRANCH  13  40
HETATM   40  N2  UNL     1       3.866  50.158 -51.388  1.00  0.00    -0.414 N 
ATOM     41  H2  UNL     1       3.997  49.864 -52.356  1.00  0.00     0.153 HD
BRANCH  40  42
HETATM   42  C19 UNL     1       4.279  49.347 -50.315  1.00  0.00     0.116 C 
BRANCH  42  43
HETATM   43  C20 UNL     1       4.127  47.897 -50.804  1.00  0.00     0.046 C 
BRANCH  43  44
HETATM   44  C21 UNL     1       2.709  47.563 -51.121  1.00  0.00     0.234 C 
BRANCH  44  45
HETATM   45  N3  UNL     1       2.118  46.840 -50.043  1.00  0.00    -0.073 N 
ATOM     46  H32 UNL     1       2.464  47.173 -49.143  1.00  0.00     0.277 HD
ATOM     47  H31 UNL     1       1.132  47.078 -49.937  1.00  0.00     0.277 HD
BRANCH  45  48
HETATM   48  C22 UNL     1       2.299  45.415 -50.175  1.00  0.00     0.265 C 
BRANCH  48  49
HETATM   49  C23 UNL     1       2.565  44.794 -48.817  1.00  0.00     0.167 C 
BRANCH  49  50
HETATM   50  O6  UNL     1       3.214  45.801 -48.066  1.00  0.00    -0.392 OA
ATOM     51  H6  UNL     1       2.956  46.621 -48.470  1.00  0.00     0.210 HD
ENDBRANCH  49  50
BRANCH  49  52
HETATM   52  C24 UNL     1       1.275  44.498 -48.086  1.00  0.00     0.197 C 
BRANCH  52  53
HETATM   53  O7  UNL     1       0.700  45.702 -47.698  1.00  0.00    -0.398 OA
ATOM     54  H7  UNL     1      -0.237  45.653 -47.851  1.00  0.00     0.209 HD
ENDBRANCH  52  53
ENDBRANCH  49  52
ENDBRANCH  48  49
ENDBRANCH  45  48
ENDBRANCH  44  45
ENDBRANCH  43  44
ENDBRANCH  42  43
ENDBRANCH  40  42
ENDBRANCH  13  40
BRANCH  14  55
HETATM   55  O8  UNL     1       1.629  50.407 -52.488  1.00  0.00    -0.393 OA
ATOM     56  H8  UNL     1       0.928  50.583 -53.104  1.00  0.00     0.210 HD
ENDBRANCH  14  55
TORSDOF 20
ENDMDL
MODEL 5
REMARK VINA RESULT: -6.108765139      2.166      3.114
REMARK  20 active torsions:
REMARK  status: ('A' for Active; 'I' for Inactive)
REMARK    1  A    between atoms: C2_2  and  C4_4 
REMARK    2  A    between atoms: C6_7  and  O1_8 
REMARK    3  A    between atoms: C6_7  and  C7_10 
REMARK    4  A    between atoms: C7_10  and  O2_11 
REMARK    5  A    between atoms: C8_13  and  O3_14 
REMARK    6  A    between atoms: C10_17  and  O4_18 
REMARK    7  A    between atoms: C14_23  and  C15_24 
REMARK    8  A    between atoms: C15_24  and  C16_25 
REMARK    9  A    between atoms: C16_25  and  O5_26 
REMARK   10  A    between atoms: C18_29  and  N2_30 
REMARK   11  A    between atoms: N2_30  and  C19_32 
REMARK   12  A    between atoms: C19_32  and  C20_33 
REMARK   13  A    between atoms: C20_33  and  C21_34 
REMARK   14  A    between atoms: C21_34  and  N3_35 
REMARK   15  A    between atoms: N3_35  and  C22_38 
REMARK   16  A    between atoms: C22_38  and  C23_39 
REMARK   17  A    between atoms: C23_39  and  O6_40 
REMARK   18  A    between atoms: C23_39  and  C24_42 
REMARK   19  A    between atoms: C24_42  and  O7_43 
REMARK   20  A    between atoms: C25_45  and  O8_46 
ROOT
HETATM    1  C4  UNL     1       2.527  55.955 -46.969  1.00  0.00     0.098 C 
HETATM    2  C5  UNL     1       1.594  56.534 -45.909  1.00  0.00     0.073 C 
HETATM    3  N1  UNL     1       0.896  56.996 -45.063  1.00  0.00    -0.196 NA
HETATM    4  C6  UNL     1       3.806  55.817 -46.247  1.00  0.00     0.126 C 
HETATM    5  C8  UNL     1       4.246  54.430 -45.842  1.00  0.00     0.159 C 
HETATM    6  C9  UNL     1       3.071  53.656 -45.441  1.00  0.00     0.073 C 
HETATM    7  C10 UNL     1       1.937  53.580 -46.375  1.00  0.00     0.070 C 
HETATM    8  C11 UNL     1       2.138  52.305 -47.226  1.00  0.00     0.044 C 
HETATM    9  C12 UNL     1       1.263  52.687 -48.346  1.00  0.00    -0.006 C 
HETATM   10  C13 UNL     1       0.899  51.821 -49.401  1.00  0.00     0.015 C 
HETATM   11  C14 UNL     1       1.526  51.494 -50.677  1.00  0.00    -0.032 C 
HETATM   12  C17 UNL     1       2.594  50.428 -50.600  1.00  0.00     0.037 C 
HETATM   13  C18 UNL     1       3.333  50.127 -51.837  1.00  0.00     0.106 C 
HETATM   14  C25 UNL     1       3.348  51.104 -52.950  1.00  0.00     0.148 C 
HETATM   15  C26 UNL     1       2.522  52.319 -52.886  1.00  0.00    -0.015 C 
HETATM   16  C27 UNL     1       1.527  52.547 -53.987  1.00  0.00     0.018 C 
HETATM   17  C28 UNL     1       3.525  53.456 -53.298  1.00  0.00     0.018 C 
HETATM   18  C29 UNL     1       1.982  52.684 -51.499  1.00  0.00     0.004 C 
HETATM   19  C30 UNL     1       2.823  53.692 -50.884  1.00  0.00     0.007 C 
HETATM   20  C31 UNL     1       3.012  53.786 -49.401  1.00  0.00     0.006 C 
HETATM   21  C32 UNL     1       1.831  54.087 -48.654  1.00  0.00     0.003 C 
HETATM   22  C33 UNL     1       1.723  54.723 -47.342  1.00  0.00     0.015 C 
HETATM   23  C34 UNL     1       0.217  55.024 -47.271  1.00  0.00     0.020 C 
ENDROOT
BRANCH   1  24
HETATM   24  C2  UNL     1       2.547  57.031 -47.980  1.00  0.00     0.004 C 
HETATM   25  C1  UNL     1       1.540  57.133 -49.044  1.00  0.00     0.011 C 
HETATM   26  C3  UNL     1       2.436  58.403 -47.264  1.00  0.00     0.011 C 
ENDBRANCH   1  24
BRANCH   4  27
HETATM   27  O1  UNL     1       3.664  56.402 -44.920  1.00  0.00    -0.383 OA
ATOM     28  H1  UNL     1       4.517  56.432 -44.504  1.00  0.00     0.210 HD
ENDBRANCH   4  27
BRANCH   4  29
HETATM   29  C7  UNL     1       5.045  56.513 -46.659  1.00  0.00     0.206 C 
BRANCH  29  30
HETATM   30  O2  UNL     1       6.122  56.527 -45.818  1.00  0.00    -0.398 OA
ATOM     31  H2  UNL     1       6.847  57.117 -45.993  1.00  0.00     0.209 HD
ENDBRANCH  29  30
ENDBRANCH   4  29
BRANCH   5  32
HETATM   32  O3  UNL     1       5.192  53.837 -46.633  1.00  0.00    -0.392 OA
ATOM     33  H3  UNL     1       6.090  53.890 -46.327  1.00  0.00     0.210 HD
ENDBRANCH   5  32
BRANCH   7  34
HETATM   34  O4  UNL     1       0.835  53.270 -45.577  1.00  0.00    -0.389 OA
ATOM     35  H4  UNL     1       0.079  53.446 -46.125  1.00  0.00     0.210 HD
ENDBRANCH   7  34
BRANCH  11  36
HETATM   36  C15 UNL     1       0.410  50.837 -51.479  1.00  0.00     0.036 C 
BRANCH  36  37
HETATM   37  C16 UNL     1      -0.929  51.440 -51.513  1.00  0.00     0.165 C 
BRANCH  37  38
HETATM   38  O5  UNL     1      -2.033  50.604 -51.531  1.00  0.00    -0.401 OA
ATOM     39  H5  UNL     1      -2.518  50.475 -50.725  1.00  0.00     0.209 HD
ENDBRANCH  37  38
ENDBRANCH  36  37
ENDBRANCH  11  36
BRANCH  13  40
HETATM   40  N2  UNL     1       3.079  48.781 -52.323  1.00  0.00    -0.414 N 
ATOM     41  H2  UNL     1       2.191  48.536 -52.762  1.00  0.00     0.153 HD
BRANCH  40  42
HETATM   42  C19 UNL     1       4.103  47.830 -52.163  1.00  0.00     0.116 C 
BRANCH  42  43
HETATM   43  C20 UNL     1       3.567  46.804 -51.151  1.00  0.00     0.046 C 
BRANCH  43  44
HETATM   44  C21 UNL     1       2.111  46.545 -51.339  1.00  0.00     0.234 C 
BRANCH  44  45
HETATM   45  N3  UNL     1       1.597  45.789 -50.244  1.00  0.00    -0.073 N 
ATOM     46  H32 UNL     1       0.618  46.015 -50.067  1.00  0.00     0.277 HD
ATOM     47  H31 UNL     1       1.495  44.805 -50.491  1.00  0.00     0.277 HD
BRANCH  45  48
HETATM   48  C22 UNL     1       2.391  45.946 -49.049  1.00  0.00     0.265 C 
BRANCH  48  49
HETATM   49  C23 UNL     1       1.854  45.057 -47.945  1.00  0.00     0.167 C 
BRANCH  49  50
HETATM   50  O6  UNL     1       0.656  45.673 -47.517  1.00  0.00    -0.392 OA
ATOM     51  H6  UNL     1       0.385  45.187 -46.748  1.00  0.00     0.210 HD
ENDBRANCH  49  50
BRANCH  49  52
HETATM   52  C24 UNL     1       1.455  43.699 -48.478  1.00  0.00     0.197 C 
BRANCH  52  53
HETATM   53  O7  UNL     1       0.102  43.728 -48.791  1.00  0.00    -0.398 OA
ATOM     54  H7  UNL     1       0.009  43.955 -49.709  1.00  0.00     0.209 HD
ENDBRANCH  52  53
ENDBRANCH  49  52
ENDBRANCH  48  49
ENDBRANCH  45  48
ENDBRANCH  44  45
ENDBRANCH  43  44
ENDBRANCH  42  43
ENDBRANCH  40  42
ENDBRANCH  13  40
BRANCH  14  55
HETATM   55  O8  UNL     1       3.081  50.455 -54.187  1.00  0.00    -0.393 OA
ATOM     56  H8  UNL     1       2.204  50.660 -54.489  1.00  0.00     0.210 HD
ENDBRANCH  14  55
TORSDOF 20
ENDMDL
