MODEL 1
REMARK VINA RESULT: -5.527429183      0.000      0.000
REMARK  22 active torsions:
REMARK  status: ('A' for Active; 'I' for Inactive)
REMARK    1  A    between atoms: C3_3  and  O1_4 
REMARK    2  A    between atoms: C4_6  and  O2_7 
REMARK    3  A    between atoms: C5_9  and  C6_10 
REMARK    4  A    between atoms: C6_10  and  O3_11 
REMARK    5  A    between atoms: C7_13  and  O4_14 
REMARK    6  A    between atoms: C10_18  and  C11_19 
REMARK    7  A    between atoms: C10_18  and  C12_22 
REMARK    8  A    between atoms: C11_19  and  O5_20 
REMARK    9  A    between atoms: C12_22  and  C13_23 
REMARK   10  A    between atoms: C17_27  and  O6_28 
REMARK   11  A    between atoms: C19_31  and  O7_32 
REMARK   12  A    between atoms: C20_34  and  O8_35 
REMARK   13  A    between atoms: C21_37  and  C22_38 
REMARK   14  A    between atoms: C22_38  and  C24_40 
REMARK   15  A    between atoms: C24_40  and  C25_41 
REMARK   16  A    between atoms: C25_41  and  C26_42 
REMARK   17  A    between atoms: C26_42  and  C28_44 
REMARK   18  A    between atoms: C28_44  and  O9_45 
REMARK   19  A    between atoms: C28_44  and  C29_47 
REMARK   20  A    between atoms: C29_47  and  C30_48 
REMARK   21  A    between atoms: C30_48  and  C31_49 
REMARK   22  A    between atoms: C31_49  and  C32_50 
ROOT
HETATM    1  C1  UNL     1       1.622  53.476 -45.005  1.00  0.00     0.022 C 
HETATM    2  C2  UNL     1       1.722  54.697 -45.572  1.00  0.00    -0.027 C 
HETATM    3  C3  UNL     1       1.432  55.806 -44.722  1.00  0.00     0.180 C 
HETATM    4  C4  UNL     1       1.628  57.082 -45.370  1.00  0.00     0.167 C 
HETATM    5  C5  UNL     1       2.029  57.238 -46.777  1.00  0.00     0.071 C 
HETATM    6  C7  UNL     1       2.794  58.529 -46.812  1.00  0.00     0.135 C 
HETATM    7  C8  UNL     1       4.232  58.482 -46.598  1.00  0.00     0.034 C 
HETATM    8  C9  UNL     1       4.625  57.621 -47.742  1.00  0.00     0.017 C 
HETATM    9  C10 UNL     1       4.194  56.131 -47.565  1.00  0.00     0.018 C 
HETATM   10  C20 UNL     1       2.699  56.040 -47.480  1.00  0.00     0.110 C 
HETATM   11  C21 UNL     1       2.127  54.736 -47.049  1.00  0.00    -0.012 C 
ENDROOT
BRANCH   9  12
HETATM   12  C11 UNL     1       4.883  55.852 -46.176  1.00  0.00     0.177 C 
BRANCH  12  13
HETATM   13  O5  UNL     1       5.740  54.786 -46.188  1.00  0.00    -0.400 OA
ATOM     14  H5  UNL     1       6.126  54.594 -45.342  1.00  0.00     0.209 HD
ENDBRANCH  12  13
ENDBRANCH   9  12
BRANCH   9  15
HETATM   15  C12 UNL     1       5.170  55.555 -48.475  1.00  0.00     0.022 C 
BRANCH  15  16
HETATM   16  C13 UNL     1       5.063  54.515 -49.504  1.00  0.00     0.019 C 
HETATM   17  C14 UNL     1       5.608  54.906 -50.870  1.00  0.00    -0.010 C 
HETATM   18  C15 UNL     1       5.075  56.153 -51.488  1.00  0.00     0.010 C 
HETATM   19  C16 UNL     1       7.047  54.804 -51.136  1.00  0.00     0.036 C 
HETATM   20  C17 UNL     1       7.358  53.333 -51.331  1.00  0.00     0.120 C 
HETATM   21  C18 UNL     1       6.364  52.545 -50.499  1.00  0.00     0.063 C 
HETATM   22  C19 UNL     1       6.015  53.330 -49.237  1.00  0.00     0.125 C 
BRANCH  20  23
HETATM   23  O6  UNL     1       8.657  53.057 -50.980  1.00  0.00    -0.395 OA
ATOM     24  H6  UNL     1       9.196  52.928 -51.751  1.00  0.00     0.210 HD
ENDBRANCH  20  23
BRANCH  22  25
HETATM   25  O7  UNL     1       7.275  53.840 -48.866  1.00  0.00    -0.395 OA
ATOM     26  H7  UNL     1       7.743  53.170 -48.381  1.00  0.00     0.210 HD
ENDBRANCH  22  25
ENDBRANCH  15  16
ENDBRANCH   9  15
BRANCH  10  27
HETATM   27  O8  UNL     1       2.331  56.348 -48.799  1.00  0.00    -0.383 OA
ATOM     28  H8  UNL     1       1.393  56.419 -48.666  1.00  0.00     0.211 HD
ENDBRANCH  10  27
BRANCH   5  29
HETATM   29  C6  UNL     1       0.770  57.763 -47.485  1.00  0.00     0.182 C 
BRANCH  29  30
HETATM   30  O3  UNL     1       0.938  58.740 -48.404  1.00  0.00    -0.400 OA
ATOM     31  H3  UNL     1       0.749  58.522 -49.309  1.00  0.00     0.209 HD
ENDBRANCH  29  30
ENDBRANCH   5  29
BRANCH  11  32
HETATM   32  C22 UNL     1       1.054  53.931 -47.652  1.00  0.00    -0.074 C 
HETATM   33  C23 UNL     1      -0.298  54.550 -47.805  1.00  0.00     0.044 C 
BRANCH  32  34
HETATM   34  C24 UNL     1       1.281  53.022 -48.786  1.00  0.00     0.035 C 
BRANCH  34  35
HETATM   35  C25 UNL     1       2.492  52.167 -48.832  1.00  0.00     0.011 C 
BRANCH  35  36
HETATM   36  C26 UNL     1       2.803  51.244 -47.738  1.00  0.00     0.011 C 
HETATM   37  C27 UNL     1       1.820  50.423 -47.034  1.00  0.00     0.012 C 
BRANCH  36  38
HETATM   38  C28 UNL     1       3.970  50.342 -48.168  1.00  0.00     0.132 C 
BRANCH  38  39
HETATM   39  O9  UNL     1       4.037  49.243 -47.324  1.00  0.00    -0.394 OA
ATOM     40  H9  UNL     1       4.944  48.981 -47.220  1.00  0.00     0.210 HD
ENDBRANCH  38  39
BRANCH  38  41
HETATM   41  C29 UNL     1       3.801  49.823 -49.563  1.00  0.00     0.116 C 
BRANCH  41  42
HETATM   42  C30 UNL     1       3.228  48.685 -49.832  1.00  0.00    -0.150 C 
BRANCH  42  43
HETATM   43  C31 UNL     1       2.622  47.480 -50.115  1.00  0.00     0.089 C 
BRANCH  43  44
HETATM   44  C32 UNL     1       2.416  46.533 -48.981  1.00  0.00     0.120 C 
HETATM   45  N1  UNL     1       2.066  46.959 -47.685  1.00  0.00    -0.089 NA
HETATM   46  S1  UNL     1       2.606  44.928 -49.315  1.00  0.00    -0.063 SA
ENDBRANCH  43  44
ENDBRANCH  42  43
ENDBRANCH  41  42
ENDBRANCH  38  41
ENDBRANCH  36  38
ENDBRANCH  35  36
ENDBRANCH  34  35
ENDBRANCH  32  34
ENDBRANCH  11  32
BRANCH   6  47
HETATM   47  O4  UNL     1       2.217  59.503 -46.024  1.00  0.00    -0.395 OA
ATOM     48  H4  UNL     1       2.754  59.728 -45.274  1.00  0.00     0.210 HD
ENDBRANCH   6  47
BRANCH   4  49
HETATM   49  O2  UNL     1       2.346  57.914 -44.454  1.00  0.00    -0.392 OA
ATOM     50  H2  UNL     1       2.138  58.815 -44.672  1.00  0.00     0.210 HD
ENDBRANCH   4  49
BRANCH   3  51
HETATM   51  O1  UNL     1       0.212  55.676 -43.992  1.00  0.00    -0.388 OA
ATOM     52  H1  UNL     1       0.149  56.252 -43.238  1.00  0.00     0.210 HD
ENDBRANCH   3  51
TORSDOF 22
ENDMDL
MODEL 2
REMARK VINA RESULT: -5.466791165      2.026      3.044
REMARK  22 active torsions:
REMARK  status: ('A' for Active; 'I' for Inactive)
REMARK    1  A    between atoms: C3_3  and  O1_4 
REMARK    2  A    between atoms: C4_6  and  O2_7 
REMARK    3  A    between atoms: C5_9  and  C6_10 
REMARK    4  A    between atoms: C6_10  and  O3_11 
REMARK    5  A    between atoms: C7_13  and  O4_14 
REMARK    6  A    between atoms: C10_18  and  C11_19 
REMARK    7  A    between atoms: C10_18  and  C12_22 
REMARK    8  A    between atoms: C11_19  and  O5_20 
REMARK    9  A    between atoms: C12_22  and  C13_23 
REMARK   10  A    between atoms: C17_27  and  O6_28 
REMARK   11  A    between atoms: C19_31  and  O7_32 
REMARK   12  A    between atoms: C20_34  and  O8_35 
REMARK   13  A    between atoms: C21_37  and  C22_38 
REMARK   14  A    between atoms: C22_38  and  C24_40 
REMARK   15  A    between atoms: C24_40  and  C25_41 
REMARK   16  A    between atoms: C25_41  and  C26_42 
REMARK   17  A    between atoms: C26_42  and  C28_44 
REMARK   18  A    between atoms: C28_44  and  O9_45 
REMARK   19  A    between atoms: C28_44  and  C29_47 
REMARK   20  A    between atoms: C29_47  and  C30_48 
REMARK   21  A    between atoms: C30_48  and  C31_49 
REMARK   22  A    between atoms: C31_49  and  C32_50 
ROOT
HETATM    1  C1  UNL     1       1.640  50.872 -46.407  1.00  0.00     0.022 C 
HETATM    2  C2  UNL     1       2.047  52.123 -46.713  1.00  0.00    -0.027 C 
HETATM    3  C3  UNL     1       2.105  53.044 -45.624  1.00  0.00     0.180 C 
HETATM    4  C4  UNL     1       2.615  54.339 -46.005  1.00  0.00     0.167 C 
HETATM    5  C5  UNL     1       2.987  54.706 -47.381  1.00  0.00     0.071 C 
HETATM    6  C7  UNL     1       4.073  55.729 -47.221  1.00  0.00     0.135 C 
HETATM    7  C8  UNL     1       5.451  55.267 -47.167  1.00  0.00     0.034 C 
HETATM    8  C9  UNL     1       5.547  54.620 -48.500  1.00  0.00     0.017 C 
HETATM    9  C10 UNL     1       4.733  53.291 -48.597  1.00  0.00     0.018 C 
HETATM   10  C20 UNL     1       3.275  53.570 -48.384  1.00  0.00     0.110 C 
HETATM   11  C21 UNL     1       2.387  52.394 -48.181  1.00  0.00    -0.012 C 
ENDROOT
BRANCH   9  12
HETATM   12  C11 UNL     1       5.376  52.533 -47.374  1.00  0.00     0.177 C 
BRANCH  12  13
HETATM   13  O5  UNL     1       5.388  51.173 -47.512  1.00  0.00    -0.400 OA
ATOM     14  H5  UNL     1       4.577  50.814 -47.853  1.00  0.00     0.209 HD
ENDBRANCH  12  13
ENDBRANCH   9  12
BRANCH   9  15
HETATM   15  C12 UNL     1       5.478  52.708 -49.702  1.00  0.00     0.022 C 
BRANCH  15  16
HETATM   16  C13 UNL     1       5.894  53.247 -51.002  1.00  0.00     0.019 C 
HETATM   17  C14 UNL     1       7.367  53.061 -51.330  1.00  0.00    -0.010 C 
HETATM   18  C15 UNL     1       8.359  53.567 -50.338  1.00  0.00     0.010 C 
HETATM   19  C16 UNL     1       7.835  51.785 -51.883  1.00  0.00     0.036 C 
HETATM   20  C17 UNL     1       7.412  51.751 -53.339  1.00  0.00     0.120 C 
HETATM   21  C18 UNL     1       6.141  52.570 -53.460  1.00  0.00     0.063 C 
HETATM   22  C19 UNL     1       5.318  52.433 -52.181  1.00  0.00     0.125 C 
BRANCH  20  23
HETATM   23  O6  UNL     1       7.235  50.458 -53.767  1.00  0.00    -0.395 OA
ATOM     24  H6  UNL     1       7.362  50.393 -54.706  1.00  0.00     0.210 HD
ENDBRANCH  20  23
BRANCH  22  25
HETATM   25  O7  UNL     1       5.467  51.061 -51.896  1.00  0.00    -0.395 OA
ATOM     26  H7  UNL     1       5.559  50.590 -52.716  1.00  0.00     0.210 HD
ENDBRANCH  22  25
ENDBRANCH  15  16
ENDBRANCH   9  15
BRANCH  10  27
HETATM   27  O8  UNL     1       2.952  54.256 -49.565  1.00  0.00    -0.383 OA
ATOM     28  H8  UNL     1       3.195  55.131 -49.286  1.00  0.00     0.211 HD
ENDBRANCH  10  27
BRANCH   5  29
HETATM   29  C6  UNL     1       1.892  55.685 -47.833  1.00  0.00     0.182 C 
BRANCH  29  30
HETATM   30  O3  UNL     1       2.286  56.787 -48.508  1.00  0.00    -0.400 OA
ATOM     31  H3  UNL     1       1.617  57.274 -48.974  1.00  0.00     0.209 HD
ENDBRANCH  29  30
ENDBRANCH   5  29
BRANCH  11  32
HETATM   32  C22 UNL     1       1.112  52.052 -48.829  1.00  0.00    -0.074 C 
HETATM   33  C23 UNL     1       0.034  53.087 -48.866  1.00  0.00     0.044 C 
BRANCH  32  34
HETATM   34  C24 UNL     1       1.033  51.254 -50.061  1.00  0.00     0.035 C 
BRANCH  34  35
HETATM   35  C25 UNL     1       2.260  50.679 -50.664  1.00  0.00     0.011 C 
BRANCH  35  36
HETATM   36  C26 UNL     1       2.362  49.243 -50.937  1.00  0.00     0.011 C 
HETATM   37  C27 UNL     1       2.626  48.662 -52.252  1.00  0.00     0.012 C 
BRANCH  36  38
HETATM   38  C28 UNL     1       3.329  48.613 -49.924  1.00  0.00     0.132 C 
BRANCH  38  39
HETATM   39  O9  UNL     1       4.327  49.525 -49.612  1.00  0.00    -0.394 OA
ATOM     40  H9  UNL     1       4.508  49.488 -48.680  1.00  0.00     0.210 HD
ENDBRANCH  38  39
BRANCH  38  41
HETATM   41  C29 UNL     1       2.646  48.245 -48.642  1.00  0.00     0.116 C 
BRANCH  41  42
HETATM   42  C30 UNL     1       2.268  47.030 -48.364  1.00  0.00    -0.150 C 
BRANCH  42  43
HETATM   43  C31 UNL     1       1.869  45.745 -48.069  1.00  0.00     0.089 C 
BRANCH  43  44
HETATM   44  C32 UNL     1       1.468  44.872 -49.210  1.00  0.00     0.120 C 
HETATM   45  N1  UNL     1       0.317  44.061 -49.183  1.00  0.00    -0.089 NA
HETATM   46  S1  UNL     1       2.443  44.903 -50.542  1.00  0.00    -0.063 SA
ENDBRANCH  43  44
ENDBRANCH  42  43
ENDBRANCH  41  42
ENDBRANCH  38  41
ENDBRANCH  36  38
ENDBRANCH  35  36
ENDBRANCH  34  35
ENDBRANCH  32  34
ENDBRANCH  11  32
BRANCH   6  47
HETATM   47  O4  UNL     1       3.816  56.612 -46.192  1.00  0.00    -0.395 OA
ATOM     48  H4  UNL     1       2.979  57.050 -46.293  1.00  0.00     0.210 HD
ENDBRANCH   6  47
BRANCH   4  49
HETATM   49  O2  UNL     1       3.569  54.726 -45.012  1.00  0.00    -0.392 OA
ATOM     50  H2  UNL     1       3.213  55.483 -44.561  1.00  0.00     0.210 HD
ENDBRANCH   4  49
BRANCH   3  51
HETATM   51  O1  UNL     1       0.926  53.068 -44.818  1.00  0.00    -0.388 OA
ATOM     52  H1  UNL     1       1.096  53.062 -43.883  1.00  0.00     0.210 HD
ENDBRANCH   3  51
TORSDOF 22
ENDMDL
MODEL 3
REMARK VINA RESULT: -5.463097157      2.409      3.928
REMARK  22 active torsions:
REMARK  status: ('A' for Active; 'I' for Inactive)
REMARK    1  A    between atoms: C3_3  and  O1_4 
REMARK    2  A    between atoms: C4_6  and  O2_7 
REMARK    3  A    between atoms: C5_9  and  C6_10 
REMARK    4  A    between atoms: C6_10  and  O3_11 
REMARK    5  A    between atoms: C7_13  and  O4_14 
REMARK    6  A    between atoms: C10_18  and  C11_19 
REMARK    7  A    between atoms: C10_18  and  C12_22 
REMARK    8  A    between atoms: C11_19  and  O5_20 
REMARK    9  A    between atoms: C12_22  and  C13_23 
REMARK   10  A    between atoms: C17_27  and  O6_28 
REMARK   11  A    between atoms: C19_31  and  O7_32 
REMARK   12  A    between atoms: C20_34  and  O8_35 
REMARK   13  A    between atoms: C21_37  and  C22_38 
REMARK   14  A    between atoms: C22_38  and  C24_40 
REMARK   15  A    between atoms: C24_40  and  C25_41 
REMARK   16  A    between atoms: C25_41  and  C26_42 
REMARK   17  A    between atoms: C26_42  and  C28_44 
REMARK   18  A    between atoms: C28_44  and  O9_45 
REMARK   19  A    between atoms: C28_44  and  C29_47 
REMARK   20  A    between atoms: C29_47  and  C30_48 
REMARK   21  A    between atoms: C30_48  and  C31_49 
REMARK   22  A    between atoms: C31_49  and  C32_50 
ROOT
HETATM    1  C1  UNL     1      -0.252  55.653 -45.112  1.00  0.00     0.022 C 
HETATM    2  C2  UNL     1       0.689  56.222 -45.896  1.00  0.00    -0.027 C 
HETATM    3  C3  UNL     1       1.215  57.466 -45.437  1.00  0.00     0.180 C 
HETATM    4  C4  UNL     1       2.265  57.983 -46.283  1.00  0.00     0.167 C 
HETATM    5  C5  UNL     1       2.717  57.334 -47.524  1.00  0.00     0.071 C 
HETATM    6  C7  UNL     1       4.163  57.715 -47.646  1.00  0.00     0.135 C 
HETATM    7  C8  UNL     1       5.157  56.842 -47.045  1.00  0.00     0.034 C 
HETATM    8  C9  UNL     1       4.888  55.597 -47.808  1.00  0.00     0.017 C 
HETATM    9  C10 UNL     1       3.538  54.917 -47.416  1.00  0.00     0.018 C 
HETATM   10  C20 UNL     1       2.396  55.839 -47.722  1.00  0.00     0.110 C 
HETATM   11  C21 UNL     1       1.064  55.466 -47.174  1.00  0.00    -0.012 C 
ENDROOT
BRANCH   9  12
HETATM   12  C11 UNL     1       3.787  54.779 -45.866  1.00  0.00     0.177 C 
BRANCH  12  13
HETATM   13  O5  UNL     1       4.622  53.749 -45.530  1.00  0.00    -0.400 OA
ATOM     14  H5  UNL     1       4.197  53.055 -45.040  1.00  0.00     0.209 HD
ENDBRANCH  12  13
ENDBRANCH   9  12
BRANCH   9  15
HETATM   15  C12 UNL     1       3.877  53.577 -47.868  1.00  0.00     0.022 C 
BRANCH  15  16
HETATM   16  C13 UNL     1       3.097  52.543 -48.556  1.00  0.00     0.019 C 
HETATM   17  C14 UNL     1       3.845  51.246 -48.822  1.00  0.00    -0.010 C 
HETATM   18  C15 UNL     1       5.140  51.341 -49.556  1.00  0.00     0.010 C 
HETATM   19  C16 UNL     1       3.955  50.238 -47.763  1.00  0.00     0.036 C 
HETATM   20  C17 UNL     1       2.609  49.548 -47.665  1.00  0.00     0.120 C 
HETATM   21  C18 UNL     1       1.553  50.555 -48.081  1.00  0.00     0.063 C 
HETATM   22  C19 UNL     1       1.986  51.956 -47.659  1.00  0.00     0.125 C 
BRANCH  20  23
HETATM   23  O6  UNL     1       2.394  49.071 -46.396  1.00  0.00    -0.395 OA
ATOM     24  H6  UNL     1       1.715  49.569 -45.957  1.00  0.00     0.210 HD
ENDBRANCH  20  23
BRANCH  22  25
HETATM   25  O7  UNL     1       2.524  51.712 -46.380  1.00  0.00    -0.395 OA
ATOM     26  H7  UNL     1       2.493  50.777 -46.212  1.00  0.00     0.210 HD
ENDBRANCH  22  25
ENDBRANCH  15  16
ENDBRANCH   9  15
BRANCH  10  27
HETATM   27  O8  UNL     1       2.395  55.816 -49.126  1.00  0.00    -0.383 OA
ATOM     28  H8  UNL     1       2.182  54.899 -49.248  1.00  0.00     0.211 HD
ENDBRANCH  10  27
BRANCH   5  29
HETATM   29  C6  UNL     1       2.201  58.245 -48.650  1.00  0.00     0.182 C 
BRANCH  29  30
HETATM   30  O3  UNL     1       3.028  58.465 -49.696  1.00  0.00    -0.400 OA
ATOM     31  H3  UNL     1       2.628  58.722 -50.519  1.00  0.00     0.209 HD
ENDBRANCH  29  30
ENDBRANCH   5  29
BRANCH  11  32
HETATM   32  C22 UNL     1      -0.243  55.387 -47.843  1.00  0.00    -0.074 C 
HETATM   33  C23 UNL     1      -0.780  56.617 -48.503  1.00  0.00     0.044 C 
BRANCH  32  34
HETATM   34  C24 UNL     1      -0.668  54.217 -48.627  1.00  0.00     0.035 C 
BRANCH  34  35
HETATM   35  C25 UNL     1      -0.798  54.307 -50.101  1.00  0.00     0.011 C 
BRANCH  35  36
HETATM   36  C26 UNL     1      -1.478  53.255 -50.862  1.00  0.00     0.011 C 
HETATM   37  C27 UNL     1      -1.968  53.401 -52.230  1.00  0.00     0.012 C 
BRANCH  36  38
HETATM   38  C28 UNL     1      -0.646  51.967 -50.778  1.00  0.00     0.132 C 
BRANCH  38  39
HETATM   39  O9  UNL     1      -1.325  50.938 -51.415  1.00  0.00    -0.394 OA
ATOM     40  H9  UNL     1      -1.738  51.273 -52.202  1.00  0.00     0.210 HD
ENDBRANCH  38  39
BRANCH  38  41
HETATM   41  C29 UNL     1       0.685  52.107 -51.453  1.00  0.00     0.116 C 
BRANCH  41  42
HETATM   42  C30 UNL     1       1.462  51.094 -51.707  1.00  0.00    -0.150 C 
BRANCH  42  43
HETATM   43  C31 UNL     1       2.283  50.020 -51.976  1.00  0.00     0.089 C 
BRANCH  43  44
HETATM   44  C32 UNL     1       1.725  48.656 -51.748  1.00  0.00     0.120 C 
HETATM   45  N1  UNL     1       0.443  48.273 -52.186  1.00  0.00    -0.089 NA
HETATM   46  S1  UNL     1       2.697  47.583 -50.955  1.00  0.00    -0.063 SA
ENDBRANCH  43  44
ENDBRANCH  42  43
ENDBRANCH  41  42
ENDBRANCH  38  41
ENDBRANCH  36  38
ENDBRANCH  35  36
ENDBRANCH  34  35
ENDBRANCH  32  34
ENDBRANCH  11  32
BRANCH   6  47
HETATM   47  O4  UNL     1       4.392  59.029 -47.293  1.00  0.00    -0.395 OA
ATOM     48  H4  UNL     1       5.304  59.193 -47.081  1.00  0.00     0.210 HD
ENDBRANCH   6  47
BRANCH   4  49
HETATM   49  O2  UNL     1       3.323  58.417 -45.424  1.00  0.00    -0.392 OA
ATOM     50  H2  UNL     1       3.812  59.082 -45.895  1.00  0.00     0.210 HD
ENDBRANCH   4  49
BRANCH   3  51
HETATM   51  O1  UNL     1       0.219  58.415 -45.057  1.00  0.00    -0.388 OA
ATOM     52  H1  UNL     1       0.445  59.316 -45.257  1.00  0.00     0.210 HD
ENDBRANCH   3  51
TORSDOF 22
ENDMDL
MODEL 4
REMARK VINA RESULT: -5.453319256      3.263      4.913
REMARK  22 active torsions:
REMARK  status: ('A' for Active; 'I' for Inactive)
REMARK    1  A    between atoms: C3_3  and  O1_4 
REMARK    2  A    between atoms: C4_6  and  O2_7 
REMARK    3  A    between atoms: C5_9  and  C6_10 
REMARK    4  A    between atoms: C6_10  and  O3_11 
REMARK    5  A    between atoms: C7_13  and  O4_14 
REMARK    6  A    between atoms: C10_18  and  C11_19 
REMARK    7  A    between atoms: C10_18  and  C12_22 
REMARK    8  A    between atoms: C11_19  and  O5_20 
REMARK    9  A    between atoms: C12_22  and  C13_23 
REMARK   10  A    between atoms: C17_27  and  O6_28 
REMARK   11  A    between atoms: C19_31  and  O7_32 
REMARK   12  A    between atoms: C20_34  and  O8_35 
REMARK   13  A    between atoms: C21_37  and  C22_38 
REMARK   14  A    between atoms: C22_38  and  C24_40 
REMARK   15  A    between atoms: C24_40  and  C25_41 
REMARK   16  A    between atoms: C25_41  and  C26_42 
REMARK   17  A    between atoms: C26_42  and  C28_44 
REMARK   18  A    between atoms: C28_44  and  O9_45 
REMARK   19  A    between atoms: C28_44  and  C29_47 
REMARK   20  A    between atoms: C29_47  and  C30_48 
REMARK   21  A    between atoms: C30_48  and  C31_49 
REMARK   22  A    between atoms: C31_49  and  C32_50 
ROOT
HETATM    1  C1  UNL     1      -0.209  55.686 -45.008  1.00  0.00     0.022 C 
HETATM    2  C2  UNL     1       0.736  56.250 -45.790  1.00  0.00    -0.027 C 
HETATM    3  C3  UNL     1       1.284  57.480 -45.316  1.00  0.00     0.180 C 
HETATM    4  C4  UNL     1       2.338  57.991 -46.161  1.00  0.00     0.167 C 
HETATM    5  C5  UNL     1       2.772  57.353 -47.414  1.00  0.00     0.071 C 
HETATM    6  C7  UNL     1       4.224  57.713 -47.539  1.00  0.00     0.135 C 
HETATM    7  C8  UNL     1       5.207  56.816 -46.955  1.00  0.00     0.034 C 
HETATM    8  C9  UNL     1       4.914  55.586 -47.734  1.00  0.00     0.017 C 
HETATM    9  C10 UNL     1       3.556  54.922 -47.343  1.00  0.00     0.018 C 
HETATM   10  C20 UNL     1       2.426  55.866 -47.631  1.00  0.00     0.110 C 
HETATM   11  C21 UNL     1       1.092  55.507 -47.080  1.00  0.00    -0.012 C 
ENDROOT
BRANCH   9  12
HETATM   12  C11 UNL     1       3.811  54.758 -45.797  1.00  0.00     0.177 C 
BRANCH  12  13
HETATM   13  O5  UNL     1       4.587  53.679 -45.476  1.00  0.00    -0.400 OA
ATOM     14  H5  UNL     1       4.115  52.987 -45.028  1.00  0.00     0.209 HD
ENDBRANCH  12  13
ENDBRANCH   9  12
BRANCH   9  15
HETATM   15  C12 UNL     1       3.871  53.584 -47.816  1.00  0.00     0.022 C 
BRANCH  15  16
HETATM   16  C13 UNL     1       3.065  52.565 -48.497  1.00  0.00     0.019 C 
HETATM   17  C14 UNL     1       3.789  51.256 -48.776  1.00  0.00    -0.010 C 
HETATM   18  C15 UNL     1       5.076  51.333 -49.526  1.00  0.00     0.010 C 
HETATM   19  C16 UNL     1       3.897  50.243 -47.721  1.00  0.00     0.036 C 
HETATM   20  C17 UNL     1       2.541  49.575 -47.607  1.00  0.00     0.120 C 
HETATM   21  C18 UNL     1       1.496  50.599 -48.007  1.00  0.00     0.063 C 
HETATM   22  C19 UNL     1       1.957  51.993 -47.586  1.00  0.00     0.125 C 
BRANCH  20  23
HETATM   23  O6  UNL     1       2.336  49.097 -46.337  1.00  0.00    -0.395 OA
ATOM     24  H6  UNL     1       2.515  49.769 -45.690  1.00  0.00     0.210 HD
ENDBRANCH  20  23
BRANCH  22  25
HETATM   25  O7  UNL     1       2.508  51.735 -46.315  1.00  0.00    -0.395 OA
ATOM     26  H7  UNL     1       2.258  52.440 -45.729  1.00  0.00     0.210 HD
ENDBRANCH  22  25
ENDBRANCH  15  16
ENDBRANCH   9  15
BRANCH  10  27
HETATM   27  O8  UNL     1       2.417  55.863 -49.034  1.00  0.00    -0.383 OA
ATOM     28  H8  UNL     1       1.524  55.568 -49.165  1.00  0.00     0.211 HD
ENDBRANCH  10  27
BRANCH   5  29
HETATM   29  C6  UNL     1       2.265  58.288 -48.524  1.00  0.00     0.182 C 
BRANCH  29  30
HETATM   30  O3  UNL     1       3.127  58.594 -49.518  1.00  0.00    -0.400 OA
ATOM     31  H3  UNL     1       3.932  59.036 -49.274  1.00  0.00     0.209 HD
ENDBRANCH  29  30
ENDBRANCH   5  29
BRANCH  11  32
HETATM   32  C22 UNL     1      -0.220  55.458 -47.743  1.00  0.00    -0.074 C 
HETATM   33  C23 UNL     1      -0.725  56.696 -48.412  1.00  0.00     0.044 C 
BRANCH  32  34
HETATM   34  C24 UNL     1      -0.680  54.292 -48.513  1.00  0.00     0.035 C 
BRANCH  34  35
HETATM   35  C25 UNL     1      -0.559  54.273 -49.990  1.00  0.00     0.011 C 
BRANCH  35  36
HETATM   36  C26 UNL     1       0.316  53.306 -50.661  1.00  0.00     0.011 C 
HETATM   37  C27 UNL     1      -0.094  51.972 -51.093  1.00  0.00     0.012 C 
BRANCH  36  38
HETATM   38  C28 UNL     1       1.016  54.004 -51.836  1.00  0.00     0.132 C 
BRANCH  38  39
HETATM   39  O9  UNL     1       1.235  55.336 -51.516  1.00  0.00    -0.394 OA
ATOM     40  H9  UNL     1       0.662  55.884 -52.039  1.00  0.00     0.210 HD
ENDBRANCH  38  39
BRANCH  38  41
HETATM   41  C29 UNL     1       2.349  53.394 -52.143  1.00  0.00     0.116 C 
BRANCH  41  42
HETATM   42  C30 UNL     1       3.478  53.937 -51.784  1.00  0.00    -0.150 C 
BRANCH  42  43
HETATM   43  C31 UNL     1       4.670  54.513 -51.403  1.00  0.00     0.089 C 
BRANCH  43  44
HETATM   44  C32 UNL     1       4.774  55.998 -51.490  1.00  0.00     0.120 C 
HETATM   45  N1  UNL     1       3.677  56.822 -51.810  1.00  0.00    -0.089 NA
HETATM   46  S1  UNL     1       6.256  56.655 -51.180  1.00  0.00    -0.063 SA
ENDBRANCH  43  44
ENDBRANCH  42  43
ENDBRANCH  41  42
ENDBRANCH  38  41
ENDBRANCH  36  38
ENDBRANCH  35  36
ENDBRANCH  34  35
ENDBRANCH  32  34
ENDBRANCH  11  32
BRANCH   6  47
HETATM   47  O4  UNL     1       4.475  59.018 -47.169  1.00  0.00    -0.395 OA
ATOM     48  H4  UNL     1       4.272  59.181 -46.255  1.00  0.00     0.210 HD
ENDBRANCH   6  47
BRANCH   4  49
HETATM   49  O2  UNL     1       3.407  58.397 -45.302  1.00  0.00    -0.392 OA
ATOM     50  H2  UNL     1       4.105  58.723 -45.859  1.00  0.00     0.210 HD
ENDBRANCH   4  49
BRANCH   3  51
HETATM   51  O1  UNL     1       0.305  58.439 -44.917  1.00  0.00    -0.388 OA
ATOM     52  H1  UNL     1       0.455  58.809 -44.055  1.00  0.00     0.210 HD
ENDBRANCH   3  51
TORSDOF 22
ENDMDL
MODEL 5
REMARK VINA RESULT: -5.323052810      3.697      5.531
REMARK  22 active torsions:
REMARK  status: ('A' for Active; 'I' for Inactive)
REMARK    1  A    between atoms: C3_3  and  O1_4 
REMARK    2  A    between atoms: C4_6  and  O2_7 
REMARK    3  A    between atoms: C5_9  and  C6_10 
REMARK    4  A    between atoms: C6_10  and  O3_11 
REMARK    5  A    between atoms: C7_13  and  O4_14 
REMARK    6  A    between atoms: C10_18  and  C11_19 
REMARK    7  A    between atoms: C10_18  and  C12_22 
REMARK    8  A    between atoms: C11_19  and  O5_20 
REMARK    9  A    between atoms: C12_22  and  C13_23 
REMARK   10  A    between atoms: C17_27  and  O6_28 
REMARK   11  A    between atoms: C19_31  and  O7_32 
REMARK   12  A    between atoms: C20_34  and  O8_35 
REMARK   13  A    between atoms: C21_37  and  C22_38 
REMARK   14  A    between atoms: C22_38  and  C24_40 
REMARK   15  A    between atoms: C24_40  and  C25_41 
REMARK   16  A    between atoms: C25_41  and  C26_42 
REMARK   17  A    between atoms: C26_42  and  C28_44 
REMARK   18  A    between atoms: C28_44  and  O9_45 
REMARK   19  A    between atoms: C28_44  and  C29_47 
REMARK   20  A    between atoms: C29_47  and  C30_48 
REMARK   21  A    between atoms: C30_48  and  C31_49 
REMARK   22  A    between atoms: C31_49  and  C32_50 
ROOT
HETATM    1  C1  UNL     1       1.715  52.576 -45.638  1.00  0.00     0.022 C 
HETATM    2  C2  UNL     1       2.536  53.265 -46.460  1.00  0.00    -0.027 C 
HETATM    3  C3  UNL     1       3.468  54.138 -45.823  1.00  0.00     0.180 C 
HETATM    4  C4  UNL     1       4.361  54.788 -46.753  1.00  0.00     0.167 C 
HETATM    5  C5  UNL     1       4.293  54.622 -48.214  1.00  0.00     0.071 C 
HETATM    6  C7  UNL     1       5.706  54.807 -48.683  1.00  0.00     0.135 C 
HETATM    7  C8  UNL     1       6.559  53.633 -48.773  1.00  0.00     0.034 C 
HETATM    8  C9  UNL     1       5.788  52.842 -49.765  1.00  0.00     0.017 C 
HETATM    9  C10 UNL     1       4.457  52.265 -49.189  1.00  0.00     0.018 C 
HETATM   10  C20 UNL     1       3.554  53.389 -48.772  1.00  0.00     0.110 C 
HETATM   11  C21 UNL     1       2.359  53.027 -47.963  1.00  0.00    -0.012 C 
ENDROOT
BRANCH   9  12
HETATM   12  C11 UNL     1       5.052  51.495 -47.950  1.00  0.00     0.177 C 
BRANCH  12  13
HETATM   13  O5  UNL     1       4.600  50.210 -47.829  1.00  0.00    -0.400 OA
ATOM     14  H5  UNL     1       4.820  49.802 -47.000  1.00  0.00     0.209 HD
ENDBRANCH  12  13
ENDBRANCH   9  12
BRANCH   9  15
HETATM   15  C12 UNL     1       4.307  51.178 -50.141  1.00  0.00     0.022 C 
BRANCH  15  16
HETATM   16  C13 UNL     1       3.285  50.888 -51.153  1.00  0.00     0.019 C 
HETATM   17  C14 UNL     1       3.671  49.823 -52.168  1.00  0.00    -0.010 C 
HETATM   18  C15 UNL     1       4.945  50.021 -52.916  1.00  0.00     0.010 C 
HETATM   19  C16 UNL     1       3.516  48.404 -51.830  1.00  0.00     0.036 C 
HETATM   20  C17 UNL     1       2.037  48.085 -51.920  1.00  0.00     0.120 C 
HETATM   21  C18 UNL     1       1.278  49.355 -51.586  1.00  0.00     0.063 C 
HETATM   22  C19 UNL     1       2.060  50.163 -50.553  1.00  0.00     0.125 C 
BRANCH  20  23
HETATM   23  O6  UNL     1       1.707  47.051 -51.080  1.00  0.00    -0.395 OA
ATOM     24  H6  UNL     1       0.961  47.280 -50.538  1.00  0.00     0.210 HD
ENDBRANCH  20  23
BRANCH  22  25
HETATM   25  O7  UNL     1       2.517  49.148 -49.689  1.00  0.00    -0.395 OA
ATOM     26  H7  UNL     1       2.150  49.298 -48.826  1.00  0.00     0.210 HD
ENDBRANCH  22  25
ENDBRANCH  15  16
ENDBRANCH   9  15
BRANCH  10  27
HETATM   27  O8  UNL     1       3.185  53.920 -50.017  1.00  0.00    -0.383 OA
ATOM     28  H8  UNL     1       3.612  53.278 -50.572  1.00  0.00     0.211 HD
ENDBRANCH  10  27
BRANCH   5  29
HETATM   29  C6  UNL     1       3.759  55.966 -48.734  1.00  0.00     0.182 C 
BRANCH  29  30
HETATM   30  O3  UNL     1       4.335  56.472 -49.847  1.00  0.00    -0.400 OA
ATOM     31  H3  UNL     1       4.100  57.358 -50.094  1.00  0.00     0.209 HD
ENDBRANCH  29  30
ENDBRANCH   5  29
BRANCH  11  32
HETATM   32  C22 UNL     1       0.950  53.408 -48.139  1.00  0.00    -0.074 C 
HETATM   33  C23 UNL     1       0.571  54.841 -47.945  1.00  0.00     0.044 C 
BRANCH  32  34
HETATM   34  C24 UNL     1       0.098  52.841 -49.195  1.00  0.00     0.035 C 
BRANCH  34  35
HETATM   35  C25 UNL     1      -0.685  53.729 -50.087  1.00  0.00     0.011 C 
BRANCH  35  36
HETATM   36  C26 UNL     1      -1.754  53.193 -50.934  1.00  0.00     0.011 C 
HETATM   37  C27 UNL     1      -2.463  53.951 -51.962  1.00  0.00     0.012 C 
BRANCH  36  38
HETATM   38  C28 UNL     1      -1.281  51.866 -51.548  1.00  0.00     0.132 C 
BRANCH  38  39
HETATM   39  O9  UNL     1      -2.275  50.910 -51.399  1.00  0.00    -0.394 OA
ATOM     40  H9  UNL     1      -2.061  50.346 -50.665  1.00  0.00     0.210 HD
ENDBRANCH  38  39
BRANCH  38  41
HETATM   41  C29 UNL     1      -0.999  51.990 -53.014  1.00  0.00     0.116 C 
BRANCH  41  42
HETATM   42  C30 UNL     1      -1.340  51.081 -53.882  1.00  0.00    -0.150 C 
BRANCH  42  43
HETATM   43  C31 UNL     1      -1.700  50.118 -54.800  1.00  0.00     0.089 C 
BRANCH  43  44
HETATM   44  C32 UNL     1      -3.046  49.494 -54.647  1.00  0.00     0.120 C 
HETATM   45  N1  UNL     1      -3.635  49.248 -53.391  1.00  0.00    -0.089 NA
HETATM   46  S1  UNL     1      -3.842  49.103 -56.039  1.00  0.00    -0.063 SA
ENDBRANCH  43  44
ENDBRANCH  42  43
ENDBRANCH  41  42
ENDBRANCH  38  41
ENDBRANCH  36  38
ENDBRANCH  35  36
ENDBRANCH  34  35
ENDBRANCH  32  34
ENDBRANCH  11  32
BRANCH   6  47
HETATM   47  O4  UNL     1       6.352  55.828 -48.016  1.00  0.00    -0.395 OA
ATOM     48  H4  UNL     1       7.052  56.211 -48.532  1.00  0.00     0.210 HD
ENDBRANCH   6  47
BRANCH   4  49
HETATM   49  O2  UNL     1       5.680  54.692 -46.208  1.00  0.00    -0.392 OA
ATOM     50  H2  UNL     1       6.248  55.225 -46.753  1.00  0.00     0.210 HD
ENDBRANCH   4  49
BRANCH   3  51
HETATM   51  O1  UNL     1       2.885  54.995 -44.840  1.00  0.00    -0.388 OA
ATOM     52  H1  UNL     1       3.480  55.653 -44.499  1.00  0.00     0.210 HD
ENDBRANCH   3  51
TORSDOF 22
ENDMDL
