MODEL 1
REMARK VINA RESULT: -5.536081440      0.000      0.000
REMARK  3 active torsions:
REMARK  status: ('A' for Active; 'I' for Inactive)
REMARK    1  A    between atoms: C2_2  and  O1_3 
REMARK    2  A    between atoms: C2_2  and  C3_5 
REMARK    3  A    between atoms: C4_6  and  C5_7 
ROOT
HETATM    1  C5  UNL     1       1.191 -11.858  14.598  1.00  0.00     0.101 C 
HETATM    2  C6  UNL     1       2.667 -11.645  14.733  1.00  0.00     0.053 C 
HETATM    3  O2  UNL     1       0.485 -10.870  15.278  1.00  0.00    -0.371 OA
HETATM    4  C7  UNL     1      -0.862 -10.874  14.979  1.00  0.00     0.201 C 
HETATM    5  C8  UNL     1      -1.160 -10.949  13.510  1.00  0.00     0.146 C 
HETATM    6  C9  UNL     1      -0.520  -9.810  12.739  1.00  0.00     0.036 C 
HETATM    7  C10 UNL     1       0.952 -10.223  12.806  1.00  0.00     0.038 C 
HETATM    8  C11 UNL     1       0.844 -11.690  13.121  1.00  0.00     0.160 C 
HETATM    9  O3  UNL     1      -0.491 -12.047  12.987  1.00  0.00    -0.375 OA
ENDROOT
BRANCH   1  10
HETATM   10  C4  UNL     1       0.819 -13.205  15.049  1.00  0.00     0.011 C 
HETATM   11  C3  UNL     1       1.554 -13.874  15.930  1.00  0.00     0.003 C 
BRANCH  11  12
HETATM   12  C2  UNL     1       1.188 -15.230  16.391  1.00  0.00     0.136 C 
HETATM   13  C1  UNL     1       1.745 -15.373  17.815  1.00  0.00     0.043 C 
BRANCH  12  14
HETATM   14  O1  UNL     1       1.857 -16.172  15.614  1.00  0.00    -0.392 OA
ATOM     15  H1  UNL     1       2.247 -15.693  14.892  1.00  0.00     0.210 HD
ENDBRANCH  12  14
ENDBRANCH  11  12
ENDBRANCH   1  10
TORSDOF 3
ENDMDL
MODEL 2
REMARK VINA RESULT: -5.232223867      1.186      1.266
REMARK  3 active torsions:
REMARK  status: ('A' for Active; 'I' for Inactive)
REMARK    1  A    between atoms: C2_2  and  O1_3 
REMARK    2  A    between atoms: C2_2  and  C3_5 
REMARK    3  A    between atoms: C4_6  and  C5_7 
ROOT
HETATM    1  C5  UNL     1       1.747 -11.640  14.851  1.00  0.00     0.101 C 
HETATM    2  C6  UNL     1       3.185 -11.221  14.861  1.00  0.00     0.053 C 
HETATM    3  O2  UNL     1       0.918 -10.570  15.175  1.00  0.00    -0.371 OA
HETATM    4  C7  UNL     1      -0.414 -10.834  14.937  1.00  0.00     0.201 C 
HETATM    5  C8  UNL     1      -0.685 -11.442  13.592  1.00  0.00     0.146 C 
HETATM    6  C9  UNL     1      -0.178 -10.567  12.459  1.00  0.00     0.036 C 
HETATM    7  C10 UNL     1       1.332 -10.756  12.618  1.00  0.00     0.038 C 
HETATM    8  C11 UNL     1       1.399 -12.029  13.416  1.00  0.00     0.160 C 
HETATM    9  O3  UNL     1       0.119 -12.565  13.453  1.00  0.00    -0.375 OA
ENDROOT
BRANCH   1  10
HETATM   10  C4  UNL     1       1.536 -12.786  15.745  1.00  0.00     0.011 C 
HETATM   11  C3  UNL     1       2.552 -13.501  16.215  1.00  0.00     0.003 C 
BRANCH  11  12
HETATM   12  C2  UNL     1       2.350 -14.656  17.116  1.00  0.00     0.136 C 
HETATM   13  C1  UNL     1       1.200 -15.480  16.518  1.00  0.00     0.043 C 
BRANCH  12  14
HETATM   14  O1  UNL     1       1.900 -14.197  18.351  1.00  0.00    -0.392 OA
ATOM     15  H1  UNL     1       2.496 -14.553  19.000  1.00  0.00     0.210 HD
ENDBRANCH  12  14
ENDBRANCH  11  12
ENDBRANCH   1  10
TORSDOF 3
ENDMDL
MODEL 3
REMARK VINA RESULT: -5.213665493      2.044      2.971
REMARK  3 active torsions:
REMARK  status: ('A' for Active; 'I' for Inactive)
REMARK    1  A    between atoms: C2_2  and  O1_3 
REMARK    2  A    between atoms: C2_2  and  C3_5 
REMARK    3  A    between atoms: C4_6  and  C5_7 
ROOT
HETATM    1  C5  UNL     1       2.036 -11.928  15.184  1.00  0.00     0.101 C 
HETATM    2  C6  UNL     1       1.771 -11.840  13.713  1.00  0.00     0.053 C 
HETATM    3  O2  UNL     1       3.212 -11.261  15.516  1.00  0.00    -0.371 OA
HETATM    4  C7  UNL     1       3.369 -11.098  16.876  1.00  0.00     0.201 C 
HETATM    5  C8  UNL     1       2.145 -10.579  17.573  1.00  0.00     0.146 C 
HETATM    6  C9  UNL     1       1.682  -9.252  17.000  1.00  0.00     0.036 C 
HETATM    7  C10 UNL     1       1.132  -9.712  15.647  1.00  0.00     0.038 C 
HETATM    8  C11 UNL     1       0.909 -11.180  15.891  1.00  0.00     0.160 C 
HETATM    9  O3  UNL     1       1.079 -11.406  17.250  1.00  0.00    -0.375 OA
ENDROOT
BRANCH   1  10
HETATM   10  C4  UNL     1       2.059 -13.329  15.622  1.00  0.00     0.011 C 
HETATM   11  C3  UNL     1       0.992 -14.113  15.511  1.00  0.00     0.003 C 
BRANCH  11  12
HETATM   12  C2  UNL     1       1.005 -15.525  15.948  1.00  0.00     0.136 C 
HETATM   13  C1  UNL     1       1.532 -15.530  17.391  1.00  0.00     0.043 C 
BRANCH  12  14
HETATM   14  O1  UNL     1       1.937 -16.229  15.191  1.00  0.00    -0.392 OA
ATOM     15  H1  UNL     1       1.700 -17.146  15.261  1.00  0.00     0.210 HD
ENDBRANCH  12  14
ENDBRANCH  11  12
ENDBRANCH   1  10
TORSDOF 3
ENDMDL
MODEL 4
REMARK VINA RESULT: -5.189804278      1.631      4.704
REMARK  3 active torsions:
REMARK  status: ('A' for Active; 'I' for Inactive)
REMARK    1  A    between atoms: C2_2  and  O1_3 
REMARK    2  A    between atoms: C2_2  and  C3_5 
REMARK    3  A    between atoms: C4_6  and  C5_7 
ROOT
HETATM    1  C5  UNL     1       1.047 -12.060  14.013  1.00  0.00     0.101 C 
HETATM    2  C6  UNL     1       1.812 -11.279  12.989  1.00  0.00     0.053 C 
HETATM    3  O2  UNL     1       1.232 -13.427  13.833  1.00  0.00    -0.371 OA
HETATM    4  C7  UNL     1       0.758 -14.175  14.890  1.00  0.00     0.201 C 
HETATM    5  C8  UNL     1       1.182 -13.665  16.236  1.00  0.00     0.146 C 
HETATM    6  C9  UNL     1       2.692 -13.587  16.367  1.00  0.00     0.036 C 
HETATM    7  C10 UNL     1       2.989 -12.400  15.447  1.00  0.00     0.038 C 
HETATM    8  C11 UNL     1       1.647 -11.725  15.377  1.00  0.00     0.160 C 
HETATM    9  O3  UNL     1       0.829 -12.325  16.324  1.00  0.00    -0.375 OA
ENDROOT
BRANCH   1  10
HETATM   10  C4  UNL     1      -0.374 -11.691  13.988  1.00  0.00     0.011 C 
HETATM   11  C3  UNL     1      -0.792 -10.555  13.441  1.00  0.00     0.003 C 
BRANCH  11  12
HETATM   12  C2  UNL     1      -2.220 -10.175  13.410  1.00  0.00     0.136 C 
HETATM   13  C1  UNL     1      -2.452  -9.246  14.611  1.00  0.00     0.043 C 
BRANCH  12  14
HETATM   14  O1  UNL     1      -2.998 -11.307  13.637  1.00  0.00    -0.392 OA
ATOM     15  H1  UNL     1      -2.514 -11.843  14.254  1.00  0.00     0.210 HD
ENDBRANCH  12  14
ENDBRANCH  11  12
ENDBRANCH   1  10
TORSDOF 3
ENDMDL
MODEL 5
REMARK VINA RESULT: -5.095346373      1.646      2.312
REMARK  3 active torsions:
REMARK  status: ('A' for Active; 'I' for Inactive)
REMARK    1  A    between atoms: C2_2  and  O1_3 
REMARK    2  A    between atoms: C2_2  and  C3_5 
REMARK    3  A    between atoms: C4_6  and  C5_7 
ROOT
HETATM    1  C5  UNL     1       1.664 -11.828  16.161  1.00  0.00     0.101 C 
HETATM    2  C6  UNL     1       2.044 -11.201  17.467  1.00  0.00     0.053 C 
HETATM    3  O2  UNL     1       0.589 -11.158  15.585  1.00  0.00    -0.371 OA
HETATM    4  C7  UNL     1       0.363 -11.533  14.278  1.00  0.00     0.201 C 
HETATM    5  C8  UNL     1       1.601 -11.562  13.430  1.00  0.00     0.146 C 
HETATM    6  C9  UNL     1       2.309 -10.220  13.409  1.00  0.00     0.036 C 
HETATM    7  C10 UNL     1       2.874 -10.183  14.831  1.00  0.00     0.038 C 
HETATM    8  C11 UNL     1       2.843 -11.638  15.210  1.00  0.00     0.160 C 
HETATM    9  O3  UNL     1       2.543 -12.360  14.063  1.00  0.00    -0.375 OA
ENDROOT
BRANCH   1  10
HETATM   10  C4  UNL     1       1.387 -13.259  16.336  1.00  0.00     0.011 C 
HETATM   11  C3  UNL     1       2.094 -14.010  17.173  1.00  0.00     0.003 C 
BRANCH  11  12
HETATM   12  C2  UNL     1       1.823 -15.452  17.356  1.00  0.00     0.136 C 
HETATM   13  C1  UNL     1       0.727 -15.822  16.347  1.00  0.00     0.043 C 
BRANCH  12  14
HETATM   14  O1  UNL     1       1.275 -15.655  18.619  1.00  0.00    -0.392 OA
ATOM     15  H1  UNL     1       0.457 -16.119  18.484  1.00  0.00     0.210 HD
ENDBRANCH  12  14
ENDBRANCH  11  12
ENDBRANCH   1  10
TORSDOF 3
ENDMDL
