MODEL 1
REMARK VINA RESULT: -4.039144317      0.000      0.000
REMARK  3 active torsions:
REMARK  status: ('A' for Active; 'I' for Inactive)
REMARK    1  A    between atoms: C4_4  and  N1_5 
REMARK    2  A    between atoms: N1_5  and  C5_6 
REMARK    3  A    between atoms: N1_5  and  C6_9 
ROOT
HETATM    1  N1  UNL     1       1.573 -11.928  14.456  1.00  0.00    -0.351 N 
ENDROOT
BRANCH   1   2
HETATM    2  C4  UNL     1       1.835 -13.367  14.707  1.00  0.00     0.091 A 
HETATM    3  C2  UNL     1       1.359 -13.801  16.084  1.00  0.00     0.006 A 
HETATM    4  C1  UNL     1       2.187 -14.832  16.820  1.00  0.00     0.012 C 
HETATM    5  C3  UNL     1       0.692 -14.296  14.840  1.00  0.00     0.032 A 
ENDBRANCH   1   2
BRANCH   1   6
HETATM    6  C5  UNL     1       0.409 -11.669  13.720  1.00  0.00     0.183 C 
HETATM    7  N2  UNL     1       0.303 -11.931  12.346  1.00  0.00    -0.070 NA
HETATM    8  S1  UNL     1      -0.950 -11.025  14.421  1.00  0.00    -0.044 SA
ENDBRANCH   1   6
BRANCH   1   9
HETATM    9  C6  UNL     1       2.497 -10.978  14.981  1.00  0.00     0.078 C 
HETATM   10  C7  UNL     1       2.687  -9.843  13.976  1.00  0.00     0.032 C 
HETATM   11  C8  UNL     1       3.799 -11.541  15.449  1.00  0.00     0.032 C 
ENDBRANCH   1   9
TORSDOF 3
ENDMDL
MODEL 2
REMARK VINA RESULT: -3.900530386      1.536      1.536
REMARK  3 active torsions:
REMARK  status: ('A' for Active; 'I' for Inactive)
REMARK    1  A    between atoms: C4_4  and  N1_5 
REMARK    2  A    between atoms: N1_5  and  C5_6 
REMARK    3  A    between atoms: N1_5  and  C6_9 
ROOT
HETATM    1  N1  UNL     1       1.336 -12.054  14.867  1.00  0.00    -0.351 N 
ENDROOT
BRANCH   1   2
HETATM    2  C4  UNL     1       1.991 -13.374  15.044  1.00  0.00     0.091 A 
HETATM    3  C2  UNL     1       1.202 -14.281  15.974  1.00  0.00     0.006 A 
HETATM    4  C1  UNL     1       1.985 -15.200  16.888  1.00  0.00     0.012 C 
HETATM    5  C3  UNL     1       1.327 -14.586  14.515  1.00  0.00     0.032 A 
ENDBRANCH   1   2
BRANCH   1   6
HETATM    6  C5  UNL     1       0.731 -11.867  13.617  1.00  0.00     0.183 C 
HETATM    7  N2  UNL     1      -0.652 -11.992  13.414  1.00  0.00    -0.070 NA
HETATM    8  S1  UNL     1       1.610 -11.481  12.264  1.00  0.00    -0.044 SA
ENDBRANCH   1   6
BRANCH   1   9
HETATM    9  C6  UNL     1       1.375 -11.137  15.958  1.00  0.00     0.078 C 
HETATM   10  C7  UNL     1       0.842  -9.780  15.502  1.00  0.00     0.032 C 
HETATM   11  C8  UNL     1       2.693 -11.021  16.652  1.00  0.00     0.032 C 
ENDBRANCH   1   9
TORSDOF 3
ENDMDL
MODEL 3
REMARK VINA RESULT: -3.888455876      1.315      1.864
REMARK  3 active torsions:
REMARK  status: ('A' for Active; 'I' for Inactive)
REMARK    1  A    between atoms: C4_4  and  N1_5 
REMARK    2  A    between atoms: N1_5  and  C5_6 
REMARK    3  A    between atoms: N1_5  and  C6_9 
ROOT
HETATM    1  N1  UNL     1       1.673 -12.164  15.760  1.00  0.00    -0.351 N 
ENDROOT
BRANCH   1   2
HETATM    2  C4  UNL     1       1.497 -13.389  16.580  1.00  0.00     0.091 A 
HETATM    3  C2  UNL     1       1.654 -14.654  15.751  1.00  0.00     0.006 A 
HETATM    4  C1  UNL     1       0.772 -15.834  16.100  1.00  0.00     0.012 C 
HETATM    5  C3  UNL     1       2.655 -14.282  16.799  1.00  0.00     0.032 A 
ENDBRANCH   1   2
BRANCH   1   6
HETATM    6  C5  UNL     1       0.507 -11.719  15.122  1.00  0.00     0.183 C 
HETATM    7  N2  UNL     1       0.024 -12.291  13.935  1.00  0.00    -0.070 NA
HETATM    8  S1  UNL     1      -0.402 -10.468  15.723  1.00  0.00    -0.044 SA
ENDBRANCH   1   6
BRANCH   1   9
HETATM    9  C6  UNL     1       2.969 -11.572  15.711  1.00  0.00     0.078 C 
HETATM   10  C7  UNL     1       3.254 -10.859  17.032  1.00  0.00     0.032 C 
HETATM   11  C8  UNL     1       3.230 -10.697  14.530  1.00  0.00     0.032 C 
ENDBRANCH   1   9
TORSDOF 3
ENDMDL
MODEL 4
REMARK VINA RESULT: -3.869241040      1.039      1.578
REMARK  3 active torsions:
REMARK  status: ('A' for Active; 'I' for Inactive)
REMARK    1  A    between atoms: C4_4  and  N1_5 
REMARK    2  A    between atoms: N1_5  and  C5_6 
REMARK    3  A    between atoms: N1_5  and  C6_9 
ROOT
HETATM    1  N1  UNL     1       1.149 -11.579  14.940  1.00  0.00    -0.351 N 
ENDROOT
BRANCH   1   2
HETATM    2  C4  UNL     1       1.183 -12.780  15.813  1.00  0.00     0.091 A 
HETATM    3  C2  UNL     1       1.586 -14.029  15.046  1.00  0.00     0.006 A 
HETATM    4  C1  UNL     1       0.928 -15.335  15.437  1.00  0.00     0.012 C 
HETATM    5  C3  UNL     1       2.480 -13.435  16.088  1.00  0.00     0.032 A 
ENDBRANCH   1   2
BRANCH   1   6
HETATM    6  C5  UNL     1      -0.078 -11.359  14.301  1.00  0.00     0.183 C 
HETATM    7  N2  UNL     1      -0.447 -12.012  13.114  1.00  0.00    -0.070 NA
HETATM    8  S1  UNL     1      -1.205 -10.300  14.901  1.00  0.00    -0.044 SA
ENDBRANCH   1   6
BRANCH   1   9
HETATM    9  C6  UNL     1       2.330 -10.787  14.846  1.00  0.00     0.078 C 
HETATM   10  C7  UNL     1       2.400  -9.834  16.039  1.00  0.00     0.032 C 
HETATM   11  C8  UNL     1       2.527 -10.079  13.546  1.00  0.00     0.032 C 
ENDBRANCH   1   9
TORSDOF 3
ENDMDL
MODEL 5
REMARK VINA RESULT: -3.818023017      1.607      2.615
REMARK  3 active torsions:
REMARK  status: ('A' for Active; 'I' for Inactive)
REMARK    1  A    between atoms: C4_4  and  N1_5 
REMARK    2  A    between atoms: N1_5  and  C5_6 
REMARK    3  A    between atoms: N1_5  and  C6_9 
ROOT
HETATM    1  N1  UNL     1       1.747 -12.476  14.567  1.00  0.00    -0.351 N 
ENDROOT
BRANCH   1   2
HETATM    2  C4  UNL     1       1.900 -13.917  14.890  1.00  0.00     0.091 A 
HETATM    3  C2  UNL     1       1.223 -14.280  16.202  1.00  0.00     0.006 A 
HETATM    4  C1  UNL     1       1.892 -15.324  17.070  1.00  0.00     0.012 C 
HETATM    5  C3  UNL     1       0.703 -14.786  14.894  1.00  0.00     0.032 A 
ENDBRANCH   1   2
BRANCH   1   6
HETATM    6  C5  UNL     1       2.575 -11.623  15.310  1.00  0.00     0.183 C 
HETATM    7  N2  UNL     1       3.970 -11.765  15.354  1.00  0.00    -0.070 NA
HETATM    8  S1  UNL     1       1.965 -10.367  16.206  1.00  0.00    -0.044 SA
ENDBRANCH   1   6
BRANCH   1   9
HETATM    9  C6  UNL     1       0.810 -12.112  13.557  1.00  0.00     0.078 C 
HETATM   10  C7  UNL     1       1.502 -11.243  12.509  1.00  0.00     0.032 C 
HETATM   11  C8  UNL     1      -0.460 -11.499  14.051  1.00  0.00     0.032 C 
ENDBRANCH   1   9
TORSDOF 3
ENDMDL
