MODEL 1
REMARK VINA RESULT: -6.907705123      0.000      0.000
REMARK  11 active torsions:
REMARK  status: ('A' for Active; 'I' for Inactive)
REMARK    1  A    between atoms: N1_2  and  C2_4 
REMARK    2  A    between atoms: C3_5  and  C4_6 
REMARK    3  A    between atoms: C4_6  and  O1_7 
REMARK    4  A    between atoms: C4_6  and  N2_9 
REMARK    5  A    between atoms: C5_11  and  C7_14 
REMARK       I    between atoms: N4_18  and  C10_19 
REMARK    6  A    between atoms: C10_19  and  C11_21 
REMARK    7  A    between atoms: C11_21  and  N5_22 
REMARK    8  A    between atoms: C11_21  and  C16_31 
REMARK       I    between atoms: N5_22  and  C12_24 
REMARK       I    between atoms: C12_24  and  N6_26 
REMARK    9  A    between atoms: N6_26  and  C13_28 
REMARK   10  A    between atoms: C20_35  and  C21_36 
REMARK   11  A    between atoms: C21_36  and  O5_37 
ROOT
HETATM    1  N2  UNL     1      19.898  12.942  13.597  1.00  0.00    -0.329 N 
ATOM      2  H2  UNL     1      18.986  13.360  13.415  1.00  0.00     0.168 HD
HETATM    3  C5  UNL     1      19.823  12.042  14.450  1.00  0.00     0.161 C 
HETATM    4  C6  UNL     1      18.492  11.777  14.996  1.00  0.00     0.121 C 
HETATM    5  N3  UNL     1      17.461  11.547  15.461  1.00  0.00    -0.190 NA
ENDROOT
BRANCH   3   6
HETATM    6  C7  UNL     1      20.897  11.234  14.968  1.00  0.00     0.182 C 
HETATM    7  C8  UNL     1      21.604  11.408  16.246  1.00  0.00     0.099 C 
HETATM    8  O2  UNL     1      21.266  10.261  14.218  1.00  0.00    -0.290 OA
ENDBRANCH   3   6
BRANCH   1   9
HETATM    9  C4  UNL     1      20.882  13.526  12.832  1.00  0.00     0.124 C 
BRANCH   9  10
HETATM   10  C3  UNL     1      21.305  14.909  12.683  1.00  0.00     0.103 C 
HETATM   11  C2  UNL     1      21.479  15.338  11.255  1.00  0.00     0.114 C 
HETATM   12  C20 UNL     1      20.016  15.281  10.790  1.00  0.00     0.134 C 
HETATM   13  N4  UNL     1      19.219  15.687  11.922  1.00  0.00    -0.337 N 
HETATM   14  C9  UNL     1      20.138  15.903  13.041  1.00  0.00     0.141 C 
HETATM   15  C10 UNL     1      17.832  15.937  11.943  1.00  0.00     0.267 C 
HETATM   16  O3  UNL     1      17.196  15.221  11.076  1.00  0.00    -0.266 OA
BRANCH  11  17
HETATM   17  N1  UNL     1      22.370  14.659  10.459  1.00  0.00    -0.418 N 
HETATM   18  C1  UNL     1      23.710  15.072  10.348  1.00  0.00     0.140 C 
ATOM     19  H1  UNL     1      22.054  13.841   9.939  1.00  0.00     0.153 HD
ENDBRANCH  11  17
BRANCH  12  20
HETATM   20  C21 UNL     1      19.980  16.247   9.628  1.00  0.00     0.191 C 
BRANCH  20  21
HETATM   21  O5  UNL     1      20.877  17.254   9.780  1.00  0.00    -0.399 OA
ATOM     22  H5  UNL     1      21.628  16.986  10.295  1.00  0.00     0.209 HD
ENDBRANCH  20  21
ENDBRANCH  12  20
BRANCH  15  23
HETATM   23  C11 UNL     1      17.082  16.864  12.803  1.00  0.00     0.089 C 
BRANCH  23  24
HETATM   24  N5  UNL     1      16.884  18.195  12.333  1.00  0.00    -0.307 N 
HETATM   25  C12 UNL     1      16.059  18.696  11.313  1.00  0.00     0.320 C 
HETATM   26  O4  UNL     1      15.309  17.900  10.664  1.00  0.00    -0.247 OA
HETATM   27  N6  UNL     1      16.028  20.067  10.949  1.00  0.00    -0.339 N 
ATOM     28  H6  UNL     1      16.555  20.715  11.535  1.00  0.00     0.164 HD
ATOM     29  H5  UNL     1      17.435  18.903  12.820  1.00  0.00     0.170 HD
BRANCH  27  30
HETATM   30  C13 UNL     1      15.327  20.622   9.840  1.00  0.00     0.078 C 
HETATM   31  C14 UNL     1      14.953  22.101  10.067  1.00  0.00     0.032 C 
HETATM   32  C15 UNL     1      16.047  20.529   8.544  1.00  0.00     0.032 C 
ENDBRANCH  27  30
ENDBRANCH  23  24
BRANCH  23  33
HETATM   33  C16 UNL     1      16.110  16.262  13.744  1.00  0.00    -0.003 C 
HETATM   34  C17 UNL     1      16.872  15.223  14.578  1.00  0.00     0.021 C 
HETATM   35  C18 UNL     1      15.729  17.325  14.803  1.00  0.00     0.021 C 
HETATM   36  C19 UNL     1      14.814  15.749  13.235  1.00  0.00     0.021 C 
ENDBRANCH  23  33
ENDBRANCH  15  23
ENDBRANCH   9  10
BRANCH   9  37
HETATM   37  O1  UNL     1      21.569  12.682  12.113  1.00  0.00    -0.349 OA
ATOM     38  H1  UNL     1      21.247  11.789  12.154  1.00  0.00     0.219 HD
ENDBRANCH   9  37
ENDBRANCH   1   9
TORSDOF 11
ENDMDL
MODEL 2
REMARK VINA RESULT: -6.839089770      2.567      5.954
REMARK  11 active torsions:
REMARK  status: ('A' for Active; 'I' for Inactive)
REMARK    1  A    between atoms: N1_2  and  C2_4 
REMARK    2  A    between atoms: C3_5  and  C4_6 
REMARK    3  A    between atoms: C4_6  and  O1_7 
REMARK    4  A    between atoms: C4_6  and  N2_9 
REMARK    5  A    between atoms: C5_11  and  C7_14 
REMARK       I    between atoms: N4_18  and  C10_19 
REMARK    6  A    between atoms: C10_19  and  C11_21 
REMARK    7  A    between atoms: C11_21  and  N5_22 
REMARK    8  A    between atoms: C11_21  and  C16_31 
REMARK       I    between atoms: N5_22  and  C12_24 
REMARK       I    between atoms: C12_24  and  N6_26 
REMARK    9  A    between atoms: N6_26  and  C13_28 
REMARK   10  A    between atoms: C20_35  and  C21_36 
REMARK   11  A    between atoms: C21_36  and  O5_37 
ROOT
HETATM    1  N2  UNL     1      21.314  16.651   9.114  1.00  0.00    -0.329 N 
ATOM      2  H2  UNL     1      20.394  17.043   8.911  1.00  0.00     0.168 HD
HETATM    3  C5  UNL     1      22.180  17.102   8.347  1.00  0.00     0.161 C 
HETATM    4  C6  UNL     1      21.721  18.067   7.348  1.00  0.00     0.121 C 
HETATM    5  N3  UNL     1      21.395  18.822   6.537  1.00  0.00    -0.190 NA
ENDROOT
BRANCH   3   6
HETATM    6  C7  UNL     1      23.583  16.780   8.323  1.00  0.00     0.182 C 
HETATM    7  C8  UNL     1      24.284  15.928   7.350  1.00  0.00     0.099 C 
HETATM    8  O2  UNL     1      24.285  17.301   9.262  1.00  0.00    -0.290 OA
ENDBRANCH   3   6
BRANCH   1   9
HETATM    9  C4  UNL     1      21.262  15.763  10.165  1.00  0.00     0.124 C 
BRANCH   9  10
HETATM   10  C3  UNL     1      20.191  14.921  10.675  1.00  0.00     0.103 C 
HETATM   11  C2  UNL     1      20.034  14.980  12.167  1.00  0.00     0.114 C 
HETATM   12  C20 UNL     1      19.552  16.431  12.317  1.00  0.00     0.134 C 
HETATM   13  N4  UNL     1      18.735  16.704  11.160  1.00  0.00    -0.337 N 
HETATM   14  C9  UNL     1      18.780  15.514  10.310  1.00  0.00     0.141 C 
HETATM   15  C10 UNL     1      17.949  17.850  10.922  1.00  0.00     0.267 C 
HETATM   16  O3  UNL     1      18.444  18.903  11.483  1.00  0.00    -0.266 OA
BRANCH  11  17
HETATM   17  N1  UNL     1      21.099  14.634  12.963  1.00  0.00    -0.418 N 
HETATM   18  C1  UNL     1      21.447  13.288  13.171  1.00  0.00     0.140 C 
ATOM     19  H1  UNL     1      21.648  15.368  13.411  1.00  0.00     0.153 HD
ENDBRANCH  11  17
BRANCH  12  20
HETATM   20  C21 UNL     1      18.792  16.414  13.623  1.00  0.00     0.191 C 
BRANCH  20  21
HETATM   21  O5  UNL     1      18.126  15.245  13.805  1.00  0.00    -0.399 OA
ATOM     22  H5  UNL     1      17.186  15.360  13.742  1.00  0.00     0.209 HD
ENDBRANCH  20  21
ENDBRANCH  12  20
BRANCH  15  23
HETATM   23  C11 UNL     1      16.708  17.963  10.143  1.00  0.00     0.089 C 
BRANCH  23  24
HETATM   24  N5  UNL     1      15.470  17.860  10.843  1.00  0.00    -0.307 N 
HETATM   25  C12 UNL     1      15.010  16.897  11.756  1.00  0.00     0.320 C 
HETATM   26  O4  UNL     1      15.770  15.933  12.090  1.00  0.00    -0.247 OA
HETATM   27  N6  UNL     1      13.710  16.933  12.325  1.00  0.00    -0.339 N 
ATOM     28  H6  UNL     1      13.142  17.758  12.132  1.00  0.00     0.164 HD
ATOM     29  H5  UNL     1      14.808  18.611  10.649  1.00  0.00     0.170 HD
BRANCH  27  30
HETATM   30  C13 UNL     1      13.128  15.922  13.143  1.00  0.00     0.078 C 
HETATM   31  C14 UNL     1      11.822  16.395  13.814  1.00  0.00     0.032 C 
HETATM   32  C15 UNL     1      12.840  14.646  12.438  1.00  0.00     0.032 C 
ENDBRANCH  27  30
ENDBRANCH  23  24
BRANCH  23  33
HETATM   33  C16 UNL     1      16.780  18.738   8.883  1.00  0.00    -0.003 C 
HETATM   34  C17 UNL     1      15.647  18.235   7.977  1.00  0.00     0.021 C 
HETATM   35  C18 UNL     1      16.349  20.195   9.178  1.00  0.00     0.021 C 
HETATM   36  C19 UNL     1      18.074  18.860   8.168  1.00  0.00     0.021 C 
ENDBRANCH  23  33
ENDBRANCH  15  23
ENDBRANCH   9  10
BRANCH   9  37
HETATM   37  O1  UNL     1      22.383  15.649  10.820  1.00  0.00    -0.349 OA
ATOM     38  H1  UNL     1      22.639  16.435  11.287  1.00  0.00     0.219 HD
ENDBRANCH   9  37
ENDBRANCH   1   9
TORSDOF 11
ENDMDL
MODEL 3
REMARK VINA RESULT: -6.809430402      2.222      6.348
REMARK  11 active torsions:
REMARK  status: ('A' for Active; 'I' for Inactive)
REMARK    1  A    between atoms: N1_2  and  C2_4 
REMARK    2  A    between atoms: C3_5  and  C4_6 
REMARK    3  A    between atoms: C4_6  and  O1_7 
REMARK    4  A    between atoms: C4_6  and  N2_9 
REMARK    5  A    between atoms: C5_11  and  C7_14 
REMARK       I    between atoms: N4_18  and  C10_19 
REMARK    6  A    between atoms: C10_19  and  C11_21 
REMARK    7  A    between atoms: C11_21  and  N5_22 
REMARK    8  A    between atoms: C11_21  and  C16_31 
REMARK       I    between atoms: N5_22  and  C12_24 
REMARK       I    between atoms: C12_24  and  N6_26 
REMARK    9  A    between atoms: N6_26  and  C13_28 
REMARK   10  A    between atoms: C20_35  and  C21_36 
REMARK   11  A    between atoms: C21_36  and  O5_37 
ROOT
HETATM    1  N2  UNL     1      15.938  15.536  13.741  1.00  0.00    -0.329 N 
ATOM      2  H2  UNL     1      16.767  15.692  14.315  1.00  0.00     0.168 HD
HETATM    3  C5  UNL     1      15.288  14.556  14.140  1.00  0.00     0.161 C 
HETATM    4  C6  UNL     1      15.824  13.855  15.307  1.00  0.00     0.121 C 
HETATM    5  N3  UNL     1      16.221  13.267  16.217  1.00  0.00    -0.190 NA
ENDROOT
BRANCH   3   6
HETATM    6  C7  UNL     1      14.071  14.026  13.581  1.00  0.00     0.182 C 
HETATM    7  C8  UNL     1      13.640  14.079  12.176  1.00  0.00     0.099 C 
HETATM    8  O2  UNL     1      13.287  13.448  14.416  1.00  0.00    -0.290 OA
ENDBRANCH   3   6
BRANCH   1   9
HETATM    9  C4  UNL     1      15.841  16.468  12.732  1.00  0.00     0.124 C 
BRANCH   9  10
HETATM   10  C3  UNL     1      16.526  16.595  11.456  1.00  0.00     0.103 C 
HETATM   11  C2  UNL     1      17.232  17.909  11.277  1.00  0.00     0.114 C 
HETATM   12  C20 UNL     1      18.327  17.759  12.344  1.00  0.00     0.134 C 
HETATM   13  N4  UNL     1      18.688  16.363  12.355  1.00  0.00    -0.337 N 
HETATM   14  C9  UNL     1      17.807  15.682  11.406  1.00  0.00     0.141 C 
HETATM   15  C10 UNL     1      19.752  15.762  13.059  1.00  0.00     0.267 C 
HETATM   16  O3  UNL     1      20.025  16.391  14.154  1.00  0.00    -0.266 OA
BRANCH  11  17
HETATM   17  N1  UNL     1      16.503  19.071  11.348  1.00  0.00    -0.418 N 
HETATM   18  C1  UNL     1      16.261  19.851  10.204  1.00  0.00     0.140 C 
ATOM     19  H1  UNL     1      16.130  19.374  12.249  1.00  0.00     0.153 HD
ENDBRANCH  11  17
BRANCH  12  20
HETATM   20  C21 UNL     1      19.421  18.679  11.853  1.00  0.00     0.191 C 
BRANCH  20  21
HETATM   21  O5  UNL     1      19.608  18.572  10.513  1.00  0.00    -0.399 OA
ATOM     22  H5  UNL     1      19.884  17.698  10.262  1.00  0.00     0.209 HD
ENDBRANCH  20  21
ENDBRANCH  12  20
BRANCH  15  23
HETATM   23  C11 UNL     1      20.527  14.566  12.701  1.00  0.00     0.089 C 
BRANCH  23  24
HETATM   24  N5  UNL     1      21.795  14.756  12.077  1.00  0.00    -0.307 N 
HETATM   25  C12 UNL     1      22.143  15.417  10.889  1.00  0.00     0.320 C 
HETATM   26  O4  UNL     1      21.240  15.993  10.201  1.00  0.00    -0.247 OA
HETATM   27  N6  UNL     1      23.472  15.464  10.392  1.00  0.00    -0.339 N 
ATOM     28  H6  UNL     1      24.205  15.088  10.994  1.00  0.00     0.164 HD
ATOM     29  H5  UNL     1      22.581  14.342  12.579  1.00  0.00     0.170 HD
BRANCH  27  30
HETATM   30  C13 UNL     1      23.875  15.991   9.132  1.00  0.00     0.078 C 
HETATM   31  C14 UNL     1      24.005  17.527   9.156  1.00  0.00     0.032 C 
HETATM   32  C15 UNL     1      25.150  15.435   8.608  1.00  0.00     0.032 C 
ENDBRANCH  27  30
ENDBRANCH  23  24
BRANCH  23  33
HETATM   33  C16 UNL     1      20.273  13.344  13.497  1.00  0.00    -0.003 C 
HETATM   34  C17 UNL     1      19.199  12.536  12.756  1.00  0.00     0.021 C 
HETATM   35  C18 UNL     1      21.513  12.423  13.394  1.00  0.00     0.021 C 
HETATM   36  C19 UNL     1      20.003  13.457  14.952  1.00  0.00     0.021 C 
ENDBRANCH  23  33
ENDBRANCH  15  23
ENDBRANCH   9  10
BRANCH   9  37
HETATM   37  O1  UNL     1      14.964  17.406  12.958  1.00  0.00    -0.349 OA
ATOM     38  H1  UNL     1      14.862  17.626  13.876  1.00  0.00     0.219 HD
ENDBRANCH   9  37
ENDBRANCH   1   9
TORSDOF 11
ENDMDL
MODEL 4
REMARK VINA RESULT: -6.756718087      2.425      5.709
REMARK  11 active torsions:
REMARK  status: ('A' for Active; 'I' for Inactive)
REMARK    1  A    between atoms: N1_2  and  C2_4 
REMARK    2  A    between atoms: C3_5  and  C4_6 
REMARK    3  A    between atoms: C4_6  and  O1_7 
REMARK    4  A    between atoms: C4_6  and  N2_9 
REMARK    5  A    between atoms: C5_11  and  C7_14 
REMARK       I    between atoms: N4_18  and  C10_19 
REMARK    6  A    between atoms: C10_19  and  C11_21 
REMARK    7  A    between atoms: C11_21  and  N5_22 
REMARK    8  A    between atoms: C11_21  and  C16_31 
REMARK       I    between atoms: N5_22  and  C12_24 
REMARK       I    between atoms: C12_24  and  N6_26 
REMARK    9  A    between atoms: N6_26  and  C13_28 
REMARK   10  A    between atoms: C20_35  and  C21_36 
REMARK   11  A    between atoms: C21_36  and  O5_37 
ROOT
HETATM    1  N2  UNL     1      20.923  16.046   9.742  1.00  0.00    -0.329 N 
ATOM      2  H2  UNL     1      19.966  16.386   9.652  1.00  0.00     0.168 HD
HETATM    3  C5  UNL     1      21.707  16.706   9.040  1.00  0.00     0.161 C 
HETATM    4  C6  UNL     1      21.118  17.794   8.259  1.00  0.00     0.121 C 
HETATM    5  N3  UNL     1      20.690  18.653   7.618  1.00  0.00    -0.190 NA
ENDROOT
BRANCH   3   6
HETATM    6  C7  UNL     1      23.128  16.517   8.900  1.00  0.00     0.182 C 
HETATM    7  C8  UNL     1      24.195  17.416   9.367  1.00  0.00     0.099 C 
HETATM    8  O2  UNL     1      23.485  15.442   8.299  1.00  0.00    -0.290 OA
ENDBRANCH   3   6
BRANCH   1   9
HETATM    9  C4  UNL     1      20.999  14.979  10.609  1.00  0.00     0.124 C 
BRANCH   9  10
HETATM   10  C3  UNL     1      19.974  14.190  11.272  1.00  0.00     0.103 C 
HETATM   11  C2  UNL     1      20.066  14.216  12.771  1.00  0.00     0.114 C 
HETATM   12  C20 UNL     1      19.711  15.689  13.025  1.00  0.00     0.134 C 
HETATM   13  N4  UNL     1      18.735  16.044  12.023  1.00  0.00    -0.337 N 
HETATM   14  C9  UNL     1      18.563  14.878  11.156  1.00  0.00     0.141 C 
HETATM   15  C10 UNL     1      17.997  17.242  11.938  1.00  0.00     0.267 C 
HETATM   16  O3  UNL     1      18.644  18.247  12.430  1.00  0.00    -0.266 OA
BRANCH  11  17
HETATM   17  N1  UNL     1      21.223  13.783  13.374  1.00  0.00    -0.418 N 
HETATM   18  C1  UNL     1      21.380  12.443  13.771  1.00  0.00     0.140 C 
ATOM     19  H1  UNL     1      21.981  14.446  13.538  1.00  0.00     0.153 HD
ENDBRANCH  11  17
BRANCH  12  20
HETATM   20  C21 UNL     1      19.175  15.681  14.437  1.00  0.00     0.191 C 
BRANCH  20  21
HETATM   21  O5  UNL     1      20.112  16.072  15.337  1.00  0.00    -0.399 OA
ATOM     22  H5  UNL     1      20.941  16.274  14.920  1.00  0.00     0.209 HD
ENDBRANCH  20  21
ENDBRANCH  12  20
BRANCH  15  23
HETATM   23  C11 UNL     1      16.655  17.454  11.376  1.00  0.00     0.089 C 
BRANCH  23  24
HETATM   24  N5  UNL     1      15.534  17.237  12.230  1.00  0.00    -0.307 N 
HETATM   25  C12 UNL     1      14.816  16.066  12.522  1.00  0.00     0.320 C 
HETATM   26  O4  UNL     1      15.172  14.962  12.000  1.00  0.00    -0.247 OA
HETATM   27  N6  UNL     1      13.680  16.050  13.374  1.00  0.00    -0.339 N 
ATOM     28  H6  UNL     1      13.458  16.915  13.867  1.00  0.00     0.164 HD
ATOM     29  H5  UNL     1      15.197  18.072  12.709  1.00  0.00     0.170 HD
BRANCH  27  30
HETATM   30  C13 UNL     1      12.823  14.936  13.603  1.00  0.00     0.078 C 
HETATM   31  C14 UNL     1      13.331  14.035  14.747  1.00  0.00     0.032 C 
HETATM   32  C15 UNL     1      11.411  15.291  13.897  1.00  0.00     0.032 C 
ENDBRANCH  27  30
ENDBRANCH  23  24
BRANCH  23  33
HETATM   33  C16 UNL     1      16.548  18.402  10.245  1.00  0.00    -0.003 C 
HETATM   34  C17 UNL     1      17.496  17.904   9.145  1.00  0.00     0.021 C 
HETATM   35  C18 UNL     1      15.156  18.230   9.590  1.00  0.00     0.021 C 
HETATM   36  C19 UNL     1      16.674  19.860  10.493  1.00  0.00     0.021 C 
ENDBRANCH  23  33
ENDBRANCH  15  23
ENDBRANCH   9  10
BRANCH   9  37
HETATM   37  O1  UNL     1      22.217  14.599  10.878  1.00  0.00    -0.349 OA
ATOM     38  H1  UNL     1      22.365  13.668  10.763  1.00  0.00     0.219 HD
ENDBRANCH   9  37
ENDBRANCH   1   9
TORSDOF 11
ENDMDL
MODEL 5
REMARK VINA RESULT: -6.716741489      2.086      4.607
REMARK  11 active torsions:
REMARK  status: ('A' for Active; 'I' for Inactive)
REMARK    1  A    between atoms: N1_2  and  C2_4 
REMARK    2  A    between atoms: C3_5  and  C4_6 
REMARK    3  A    between atoms: C4_6  and  O1_7 
REMARK    4  A    between atoms: C4_6  and  N2_9 
REMARK    5  A    between atoms: C5_11  and  C7_14 
REMARK       I    between atoms: N4_18  and  C10_19 
REMARK    6  A    between atoms: C10_19  and  C11_21 
REMARK    7  A    between atoms: C11_21  and  N5_22 
REMARK    8  A    between atoms: C11_21  and  C16_31 
REMARK       I    between atoms: N5_22  and  C12_24 
REMARK       I    between atoms: C12_24  and  N6_26 
REMARK    9  A    between atoms: N6_26  and  C13_28 
REMARK   10  A    between atoms: C20_35  and  C21_36 
REMARK   11  A    between atoms: C21_36  and  O5_37 
ROOT
HETATM    1  N2  UNL     1      21.339  14.775  11.377  1.00  0.00    -0.329 N 
ATOM      2  H2  UNL     1      20.387  15.127  11.275  1.00  0.00     0.168 HD
HETATM    3  C5  UNL     1      22.158  15.504  10.793  1.00  0.00     0.161 C 
HETATM    4  C6  UNL     1      21.609  16.673  10.105  1.00  0.00     0.121 C 
HETATM    5  N3  UNL     1      21.213  17.598   9.539  1.00  0.00    -0.190 NA
ENDROOT
BRANCH   3   6
HETATM    6  C7  UNL     1      23.584  15.327  10.708  1.00  0.00     0.182 C 
HETATM    7  C8  UNL     1      24.390  15.167   9.488  1.00  0.00     0.099 C 
HETATM    8  O2  UNL     1      24.205  15.307  11.831  1.00  0.00    -0.290 OA
ENDBRANCH   3   6
BRANCH   1   9
HETATM    9  C4  UNL     1      21.372  13.621  12.125  1.00  0.00     0.124 C 
BRANCH   9  10
HETATM   10  C3  UNL     1      20.327  12.693  12.528  1.00  0.00     0.103 C 
HETATM   11  C2  UNL     1      20.233  12.496  14.014  1.00  0.00     0.114 C 
HETATM   12  C20 UNL     1      19.752  13.895  14.428  1.00  0.00     0.134 C 
HETATM   13  N4  UNL     1      18.886  14.351  13.369  1.00  0.00    -0.337 N 
HETATM   14  C9  UNL     1      18.899  13.323  12.328  1.00  0.00     0.141 C 
HETATM   15  C10 UNL     1      18.086  15.513  13.362  1.00  0.00     0.267 C 
HETATM   16  O3  UNL     1      18.600  16.460  14.073  1.00  0.00    -0.266 OA
BRANCH  11  17
HETATM   17  N1  UNL     1      21.332  12.031  14.695  1.00  0.00    -0.418 N 
HETATM   18  C1  UNL     1      21.497  10.662  14.966  1.00  0.00     0.140 C 
ATOM     19  H1  UNL     1      22.042  12.693  15.011  1.00  0.00     0.153 HD
ENDBRANCH  11  17
BRANCH  12  20
HETATM   20  C21 UNL     1      19.048  13.648  15.742  1.00  0.00     0.191 C 
BRANCH  20  21
HETATM   21  O5  UNL     1      19.911  13.667  16.790  1.00  0.00    -0.399 OA
ATOM     22  H5  UNL     1      20.105  12.792  17.104  1.00  0.00     0.209 HD
ENDBRANCH  20  21
ENDBRANCH  12  20
BRANCH  15  23
HETATM   23  C11 UNL     1      16.812  15.743  12.665  1.00  0.00     0.089 C 
BRANCH  23  24
HETATM   24  N5  UNL     1      16.865  16.212  11.319  1.00  0.00    -0.307 N 
HETATM   25  C12 UNL     1      17.285  17.443  10.792  1.00  0.00     0.320 C 
HETATM   26  O4  UNL     1      17.733  18.343  11.573  1.00  0.00    -0.247 OA
HETATM   27  N6  UNL     1      17.221  17.753   9.408  1.00  0.00    -0.339 N 
ATOM     28  H6  UNL     1      16.955  16.998   8.776  1.00  0.00     0.164 HD
ATOM     29  H5  UNL     1      16.544  15.539  10.622  1.00  0.00     0.170 HD
BRANCH  27  30
HETATM   30  C13 UNL     1      17.495  19.022   8.822  1.00  0.00     0.078 C 
HETATM   31  C14 UNL     1      18.471  18.917   7.633  1.00  0.00     0.032 C 
HETATM   32  C15 UNL     1      16.293  19.762   8.359  1.00  0.00     0.032 C 
ENDBRANCH  27  30
ENDBRANCH  23  24
BRANCH  23  33
HETATM   33  C16 UNL     1      15.648  14.954  13.126  1.00  0.00    -0.003 C 
HETATM   34  C17 UNL     1      14.471  15.928  13.274  1.00  0.00     0.021 C 
HETATM   35  C18 UNL     1      15.183  14.042  11.965  1.00  0.00     0.021 C 
HETATM   36  C19 UNL     1      15.790  14.045  14.291  1.00  0.00     0.021 C 
ENDBRANCH  23  33
ENDBRANCH  15  23
ENDBRANCH   9  10
BRANCH   9  37
HETATM   37  O1  UNL     1      22.562  13.291  12.544  1.00  0.00    -0.349 OA
ATOM     38  H1  UNL     1      22.563  12.794  13.353  1.00  0.00     0.219 HD
ENDBRANCH   9  37
ENDBRANCH   1   9
TORSDOF 11
ENDMDL
