MODEL 1
REMARK VINA RESULT: -4.741642239      0.000      0.000
REMARK  6 active torsions:
REMARK  status: ('A' for Active; 'I' for Inactive)
REMARK    1  A    between atoms: C3_4  and  O2_5 
REMARK    2  A    between atoms: O2_5  and  C4_6 
REMARK    3  A    between atoms: C6_8  and  O3_9 
REMARK    4  A    between atoms: C7_11  and  O4_12 
REMARK    5  A    between atoms: C8_14  and  O5_15 
REMARK    6  A    between atoms: C10_18  and  O6_19 
ROOT
HETATM    1  C4  UNL     1       4.491   3.800  11.537  1.00  0.00     0.158 C 
HETATM    2  C5  UNL     1       4.860   2.950  10.335  1.00  0.00     0.069 C 
HETATM    3  C6  UNL     1       5.135   3.961   9.215  1.00  0.00     0.152 C 
HETATM    4  C7  UNL     1       5.807   5.072  10.018  1.00  0.00     0.178 C 
HETATM    5  C8  UNL     1       4.872   5.218  11.197  1.00  0.00     0.178 C 
ENDROOT
BRANCH   1   6
HETATM    6  O2  UNL     1       5.189   3.313  12.623  1.00  0.00    -0.353 OA
BRANCH   6   7
HETATM    7  C3  UNL     1       4.596   2.247  13.245  1.00  0.00     0.263 C 
HETATM    8  O1  UNL     1       3.531   2.595  14.072  1.00  0.00    -0.354 OA
HETATM    9  C2  UNL     1       4.199   2.908  15.249  1.00  0.00     0.149 C 
HETATM   10  C1  UNL     1       5.141   4.051  15.133  1.00  0.00     0.042 C 
HETATM   11  C10 UNL     1       5.012   1.630  15.470  1.00  0.00     0.151 C 
HETATM   12  C9  UNL     1       5.503   1.380  14.038  1.00  0.00     0.095 C 
BRANCH  11  13
HETATM   13  O6  UNL     1       4.203   0.600  15.910  1.00  0.00    -0.393 OA
ATOM     14  H6  UNL     1       4.183  -0.110  15.279  1.00  0.00     0.210 HD
ENDBRANCH  11  13
ENDBRANCH   6   7
ENDBRANCH   1   6
BRANCH   5  15
HETATM   15  O5  UNL     1       5.615   5.815  12.224  1.00  0.00    -0.390 OA
ATOM     16  H5  UNL     1       5.441   6.747  12.288  1.00  0.00     0.210 HD
ENDBRANCH   5  15
BRANCH   3  17
HETATM   17  O3  UNL     1       6.026   3.426   8.289  1.00  0.00    -0.393 OA
ATOM     18  H3  UNL     1       5.912   3.843   7.443  1.00  0.00     0.210 HD
ENDBRANCH   3  17
BRANCH   4  19
HETATM   19  O4  UNL     1       7.000   4.541  10.500  1.00  0.00    -0.390 OA
ATOM     20  H4  UNL     1       7.131   4.918  11.362  1.00  0.00     0.210 HD
ENDBRANCH   4  19
TORSDOF 6
ENDMDL
MODEL 2
REMARK VINA RESULT: -4.570539035      4.157      7.737
REMARK  6 active torsions:
REMARK  status: ('A' for Active; 'I' for Inactive)
REMARK    1  A    between atoms: C3_4  and  O2_5 
REMARK    2  A    between atoms: O2_5  and  C4_6 
REMARK    3  A    between atoms: C6_8  and  O3_9 
REMARK    4  A    between atoms: C7_11  and  O4_12 
REMARK    5  A    between atoms: C8_14  and  O5_15 
REMARK    6  A    between atoms: C10_18  and  O6_19 
ROOT
HETATM    1  C4  UNL     1       1.189   1.373  16.462  1.00  0.00     0.158 C 
HETATM    2  C5  UNL     1       2.171   0.845  17.492  1.00  0.00     0.069 C 
HETATM    3  C6  UNL     1       1.290   0.325  18.635  1.00  0.00     0.152 C 
HETATM    4  C7  UNL     1       0.127  -0.254  17.834  1.00  0.00     0.178 C 
HETATM    5  C8  UNL     1      -0.172   0.864  16.861  1.00  0.00     0.178 C 
ENDROOT
BRANCH   1   6
HETATM    6  O2  UNL     1       1.586   0.902  15.227  1.00  0.00    -0.353 OA
BRANCH   6   7
HETATM    7  C3  UNL     1       1.336   1.759  14.189  1.00  0.00     0.263 C 
HETATM    8  O1  UNL     1       0.240   1.399  13.408  1.00  0.00    -0.354 OA
HETATM    9  C2  UNL     1       0.828   0.501  12.525  1.00  0.00     0.149 C 
HETATM   10  C1  UNL     1       1.405  -0.705  13.171  1.00  0.00     0.042 C 
HETATM   11  C10 UNL     1       1.975   1.350  11.969  1.00  0.00     0.151 C 
HETATM   12  C9  UNL     1       2.473   1.999  13.266  1.00  0.00     0.095 C 
BRANCH  11  13
HETATM   13  O6  UNL     1       1.503   2.298  11.082  1.00  0.00    -0.393 OA
ATOM     14  H6  UNL     1       1.830   2.137  10.205  1.00  0.00     0.210 HD
ENDBRANCH  11  13
ENDBRANCH   6   7
ENDBRANCH   1   6
BRANCH   5  15
HETATM   15  O5  UNL     1      -0.846   0.282  15.779  1.00  0.00    -0.390 OA
ATOM     16  H5  UNL     1      -1.098   0.930  15.131  1.00  0.00     0.210 HD
ENDBRANCH   5  15
BRANCH   3  17
HETATM   17  O3  UNL     1       1.948  -0.684  19.332  1.00  0.00    -0.393 OA
ATOM     18  H3  UNL     1       1.377  -1.434  19.444  1.00  0.00     0.210 HD
ENDBRANCH   3  17
BRANCH   4  19
HETATM   19  O4  UNL     1       0.647  -1.314  17.098  1.00  0.00    -0.390 OA
ATOM     20  H4  UNL     1      -0.098  -1.814  16.786  1.00  0.00     0.210 HD
ENDBRANCH   4  19
TORSDOF 6
ENDMDL
MODEL 3
REMARK VINA RESULT: -4.490920149      3.709      5.367
REMARK  6 active torsions:
REMARK  status: ('A' for Active; 'I' for Inactive)
REMARK    1  A    between atoms: C3_4  and  O2_5 
REMARK    2  A    between atoms: O2_5  and  C4_6 
REMARK    3  A    between atoms: C6_8  and  O3_9 
REMARK    4  A    between atoms: C7_11  and  O4_12 
REMARK    5  A    between atoms: C8_14  and  O5_15 
REMARK    6  A    between atoms: C10_18  and  O6_19 
ROOT
HETATM    1  C4  UNL     1       2.254   0.642  13.723  1.00  0.00     0.158 C 
HETATM    2  C5  UNL     1       3.055   1.916  13.529  1.00  0.00     0.069 C 
HETATM    3  C6  UNL     1       2.842   2.288  12.057  1.00  0.00     0.152 C 
HETATM    4  C7  UNL     1       1.381   1.877  11.887  1.00  0.00     0.178 C 
HETATM    5  C8  UNL     1       1.367   0.500  12.513  1.00  0.00     0.178 C 
ENDROOT
BRANCH   1   6
HETATM    6  O2  UNL     1       1.531   0.776  14.892  1.00  0.00    -0.353 OA
BRANCH   6   7
HETATM    7  C3  UNL     1       2.034   0.069  15.951  1.00  0.00     0.263 C 
HETATM    8  O1  UNL     1       1.316  -1.084  16.254  1.00  0.00    -0.354 OA
HETATM    9  C2  UNL     1       0.318  -0.567  17.073  1.00  0.00     0.149 C 
HETATM   10  C1  UNL     1      -0.570   0.419  16.408  1.00  0.00     0.042 C 
HETATM   11  C10 UNL     1       1.156   0.165  18.125  1.00  0.00     0.151 C 
HETATM   12  C9  UNL     1       2.194   0.833  17.214  1.00  0.00     0.095 C 
BRANCH  11  13
HETATM   13  O6  UNL     1       1.752  -0.730  18.993  1.00  0.00    -0.393 OA
ATOM     14  H6  UNL     1       1.849  -0.351  19.858  1.00  0.00     0.210 HD
ENDBRANCH  11  13
ENDBRANCH   6   7
ENDBRANCH   1   6
BRANCH   5  15
HETATM   15  O5  UNL     1       0.038   0.239  12.871  1.00  0.00    -0.390 OA
ATOM     16  H5  UNL     1      -0.537   0.237  12.114  1.00  0.00     0.210 HD
ENDBRANCH   5  15
BRANCH   3  17
HETATM   17  O3  UNL     1       2.982   3.661  11.880  1.00  0.00    -0.393 OA
ATOM     18  H3  UNL     1       2.214   4.018  11.450  1.00  0.00     0.210 HD
ENDBRANCH   3  17
BRANCH   4  19
HETATM   19  O4  UNL     1       0.640   2.714  12.714  1.00  0.00    -0.390 OA
ATOM     20  H4  UNL     1       0.241   2.156  13.372  1.00  0.00     0.210 HD
ENDBRANCH   4  19
TORSDOF 6
ENDMDL
MODEL 4
REMARK VINA RESULT: -4.470835064      4.623      8.224
REMARK  6 active torsions:
REMARK  status: ('A' for Active; 'I' for Inactive)
REMARK    1  A    between atoms: C3_4  and  O2_5 
REMARK    2  A    between atoms: O2_5  and  C4_6 
REMARK    3  A    between atoms: C6_8  and  O3_9 
REMARK    4  A    between atoms: C7_11  and  O4_12 
REMARK    5  A    between atoms: C8_14  and  O5_15 
REMARK    6  A    between atoms: C10_18  and  O6_19 
ROOT
HETATM    1  C4  UNL     1       0.821   1.213  17.492  1.00  0.00     0.158 C 
HETATM    2  C5  UNL     1       1.968   1.598  18.409  1.00  0.00     0.069 C 
HETATM    3  C6  UNL     1       1.550   1.078  19.789  1.00  0.00     0.152 C 
HETATM    4  C7  UNL     1       0.860  -0.223  19.387  1.00  0.00     0.178 C 
HETATM    5  C8  UNL     1      -0.032   0.232  18.253  1.00  0.00     0.178 C 
ENDROOT
BRANCH   1   6
HETATM    6  O2  UNL     1       1.367   0.661  16.350  1.00  0.00    -0.353 OA
BRANCH   6   7
HETATM    7  C3  UNL     1       0.976   1.268  15.187  1.00  0.00     0.263 C 
HETATM    8  O1  UNL     1       0.242   0.444  14.337  1.00  0.00    -0.354 OA
HETATM    9  C2  UNL     1       1.262  -0.208  13.654  1.00  0.00     0.149 C 
HETATM   10  C1  UNL     1       2.146  -1.032  14.515  1.00  0.00     0.042 C 
HETATM   11  C10 UNL     1       2.068   0.984  13.129  1.00  0.00     0.151 C 
HETATM   12  C9  UNL     1       2.066   1.872  14.380  1.00  0.00     0.095 C 
BRANCH  11  13
HETATM   13  O6  UNL     1       1.416   1.597  12.077  1.00  0.00    -0.393 OA
ATOM     14  H6  UNL     1       1.708   2.495  11.973  1.00  0.00     0.210 HD
ENDBRANCH  11  13
ENDBRANCH   6   7
ENDBRANCH   1   6
BRANCH   5  15
HETATM   15  O5  UNL     1      -0.319  -0.908  17.490  1.00  0.00    -0.390 OA
ATOM     16  H5  UNL     1      -0.455  -1.673  18.037  1.00  0.00     0.210 HD
ENDBRANCH   5  15
BRANCH   3  17
HETATM   17  O3  UNL     1       2.674   0.809  20.565  1.00  0.00    -0.393 OA
ATOM     18  H3  UNL     1       3.452   0.780  20.020  1.00  0.00     0.210 HD
ENDBRANCH   3  17
BRANCH   4  19
HETATM   19  O4  UNL     1       1.845  -1.036  18.836  1.00  0.00    -0.390 OA
ATOM     20  H4  UNL     1       1.392  -1.752  18.406  1.00  0.00     0.210 HD
ENDBRANCH   4  19
TORSDOF 6
ENDMDL
MODEL 5
REMARK VINA RESULT: -4.441916658      3.431      4.239
REMARK  6 active torsions:
REMARK  status: ('A' for Active; 'I' for Inactive)
REMARK    1  A    between atoms: C3_4  and  O2_5 
REMARK    2  A    between atoms: O2_5  and  C4_6 
REMARK    3  A    between atoms: C6_8  and  O3_9 
REMARK    4  A    between atoms: C7_11  and  O4_12 
REMARK    5  A    between atoms: C8_14  and  O5_15 
REMARK    6  A    between atoms: C10_18  and  O6_19 
ROOT
HETATM    1  C4  UNL     1       1.454   1.114  13.355  1.00  0.00     0.158 C 
HETATM    2  C5  UNL     1       1.362  -0.176  12.560  1.00  0.00     0.069 C 
HETATM    3  C6  UNL     1       0.419   0.154  11.397  1.00  0.00     0.152 C 
HETATM    4  C7  UNL     1       0.845   1.591  11.106  1.00  0.00     0.178 C 
HETATM    5  C8  UNL     1       0.865   2.199  12.491  1.00  0.00     0.178 C 
ENDROOT
BRANCH   1   6
HETATM    6  O2  UNL     1       2.787   1.334  13.641  1.00  0.00    -0.353 OA
BRANCH   6   7
HETATM    7  C3  UNL     1       3.188   0.864  14.863  1.00  0.00     0.263 C 
HETATM    8  O1  UNL     1       3.362   1.858  15.823  1.00  0.00    -0.354 OA
HETATM    9  C2  UNL     1       4.663   2.263  15.552  1.00  0.00     0.149 C 
HETATM   10  C1  UNL     1       4.858   2.833  14.195  1.00  0.00     0.042 C 
HETATM   11  C10 UNL     1       5.405   0.925  15.627  1.00  0.00     0.151 C 
HETATM   12  C9  UNL     1       4.419   0.036  14.859  1.00  0.00     0.095 C 
BRANCH  11  13
HETATM   13  O6  UNL     1       5.542   0.509  16.937  1.00  0.00    -0.393 OA
ATOM     14  H6  UNL     1       5.217  -0.377  17.048  1.00  0.00     0.210 HD
ENDBRANCH  11  13
ENDBRANCH   6   7
ENDBRANCH   1   6
BRANCH   5  15
HETATM   15  O5  UNL     1       1.703   3.319  12.422  1.00  0.00    -0.390 OA
ATOM     16  H5  UNL     1       1.280   4.049  11.984  1.00  0.00     0.210 HD
ENDBRANCH   5  15
BRANCH   3  17
HETATM   17  O3  UNL     1       0.696  -0.663  10.304  1.00  0.00    -0.393 OA
ATOM     18  H3  UNL     1       0.741  -1.572  10.575  1.00  0.00     0.210 HD
ENDBRANCH   3  17
BRANCH   4  19
HETATM   19  O4  UNL     1       2.162   1.528  10.664  1.00  0.00    -0.390 OA
ATOM     20  H4  UNL     1       2.218   2.098   9.906  1.00  0.00     0.210 HD
ENDBRANCH   4  19
TORSDOF 6
ENDMDL
