MODEL 1
REMARK VINA RESULT: -5.299159733      0.000      0.000
REMARK  6 active torsions:
REMARK  status: ('A' for Active; 'I' for Inactive)
REMARK    1  A    between atoms: C3_3  and  C4_4 
REMARK    2  A    between atoms: C4_4  and  O1_5 
REMARK    3  A    between atoms: C5_8  and  C6_9 
REMARK    4  A    between atoms: C7_10  and  O3_11 
REMARK    5  A    between atoms: C9_13  and  O4_14 
REMARK    6  A    between atoms: C11_17  and  O5_18 
ROOT
HETATM    1  C1  UNL     1       3.097  -4.364  12.881  1.00  0.00     0.112 C 
HETATM    2  C2  UNL     1       2.685  -3.065  13.418  1.00  0.00    -0.105 C 
HETATM    3  C3  UNL     1       2.326  -1.997  13.869  1.00  0.00    -0.036 C 
ENDROOT
BRANCH   3   4
HETATM    4  C4  UNL     1       1.868  -0.704  14.436  1.00  0.00     0.257 C 
HETATM    5  O2  UNL     1       1.308  -0.864  15.677  1.00  0.00    -0.331 OA
HETATM    6  C5  UNL     1       0.540   0.287  15.951  1.00  0.00     0.179 C 
HETATM    7  C9  UNL     1       1.502   1.435  16.090  1.00  0.00     0.153 C 
HETATM    8  C10 UNL     1       2.936   1.078  15.793  1.00  0.00     0.073 C 
HETATM    9  C11 UNL     1       3.102   0.149  14.611  1.00  0.00     0.196 C 
BRANCH   4  10
HETATM   10  O1  UNL     1       0.948  -0.182  13.556  1.00  0.00    -0.353 OA
ATOM     11  H1  UNL     1       1.019   0.764  13.608  1.00  0.00     0.214 HD
ENDBRANCH   4  10
BRANCH   6  12
HETATM   12  C6  UNL     1      -0.222  -0.030  17.167  1.00  0.00     0.031 C 
HETATM   13  C7  UNL     1      -1.556  -0.115  17.198  1.00  0.00     0.132 C 
BRANCH  13  14
HETATM   14  O3  UNL     1      -2.213   0.117  15.985  1.00  0.00    -0.368 OA
HETATM   15  C8  UNL     1      -3.565  -0.324  15.870  1.00  0.00     0.208 C 
ENDBRANCH  13  14
ENDBRANCH   6  12
BRANCH   7  16
HETATM   16  O4  UNL     1       1.089   2.550  15.350  1.00  0.00    -0.393 OA
ATOM     17  H4  UNL     1       0.962   2.335  14.433  1.00  0.00     0.210 HD
ENDBRANCH   7  16
BRANCH   9  18
HETATM   18  O5  UNL     1       4.243  -0.615  14.881  1.00  0.00    -0.389 OA
ATOM     19  H5  UNL     1       4.372  -0.757  15.811  1.00  0.00     0.210 HD
ENDBRANCH   9  18
ENDBRANCH   3   4
TORSDOF 6
ENDMDL
MODEL 2
REMARK VINA RESULT: -5.137717599      2.373      4.399
REMARK  6 active torsions:
REMARK  status: ('A' for Active; 'I' for Inactive)
REMARK    1  A    between atoms: C3_3  and  C4_4 
REMARK    2  A    between atoms: C4_4  and  O1_5 
REMARK    3  A    between atoms: C5_8  and  C6_9 
REMARK    4  A    between atoms: C7_10  and  O3_11 
REMARK    5  A    between atoms: C9_13  and  O4_14 
REMARK    6  A    between atoms: C11_17  and  O5_18 
ROOT
HETATM    1  C1  UNL     1       2.984  -4.418  12.913  1.00  0.00     0.112 C 
HETATM    2  C2  UNL     1       2.684  -3.073  13.406  1.00  0.00    -0.105 C 
HETATM    3  C3  UNL     1       2.452  -1.957  13.826  1.00  0.00    -0.036 C 
ENDROOT
BRANCH   3   4
HETATM    4  C4  UNL     1       2.194  -0.591  14.347  1.00  0.00     0.257 C 
HETATM    5  O2  UNL     1       3.206   0.274  14.021  1.00  0.00    -0.331 OA
HETATM    6  C5  UNL     1       3.108   1.390  14.880  1.00  0.00     0.179 C 
HETATM    7  C9  UNL     1       1.834   2.107  14.525  1.00  0.00     0.153 C 
HETATM    8  C10 UNL     1       0.999   1.404  13.485  1.00  0.00     0.073 C 
HETATM    9  C11 UNL     1       0.946  -0.097  13.657  1.00  0.00     0.196 C 
BRANCH   4  10
HETATM   10  O1  UNL     1       2.074  -0.699  15.713  1.00  0.00    -0.353 OA
ATOM     11  H1  UNL     1       1.474  -0.018  15.994  1.00  0.00     0.214 HD
ENDBRANCH   4  10
BRANCH   6  12
HETATM   12  C6  UNL     1       4.336   2.165  14.659  1.00  0.00     0.031 C 
HETATM   13  C7  UNL     1       5.471   1.955  15.334  1.00  0.00     0.132 C 
BRANCH  13  14
HETATM   14  O3  UNL     1       5.436   0.932  16.288  1.00  0.00    -0.368 OA
HETATM   15  C8  UNL     1       6.343   1.019  17.385  1.00  0.00     0.208 C 
ENDBRANCH  13  14
ENDBRANCH   6  12
BRANCH   7  16
HETATM   16  O4  UNL     1       1.079   2.417  15.663  1.00  0.00    -0.393 OA
ATOM     17  H4  UNL     1       1.607   2.840  16.330  1.00  0.00     0.210 HD
ENDBRANCH   7  16
BRANCH   9  18
HETATM   18  O5  UNL     1       0.804  -0.626  12.369  1.00  0.00    -0.389 OA
ATOM     19  H5  UNL     1       0.822  -1.576  12.365  1.00  0.00     0.210 HD
ENDBRANCH   9  18
ENDBRANCH   3   4
TORSDOF 6
ENDMDL
MODEL 3
REMARK VINA RESULT: -5.063316292      2.318      3.835
REMARK  6 active torsions:
REMARK  status: ('A' for Active; 'I' for Inactive)
REMARK    1  A    between atoms: C3_3  and  C4_4 
REMARK    2  A    between atoms: C4_4  and  O1_5 
REMARK    3  A    between atoms: C5_8  and  C6_9 
REMARK    4  A    between atoms: C7_10  and  O3_11 
REMARK    5  A    between atoms: C9_13  and  O4_14 
REMARK    6  A    between atoms: C11_17  and  O5_18 
ROOT
HETATM    1  C1  UNL     1       2.997  -4.606  12.714  1.00  0.00     0.112 C 
HETATM    2  C2  UNL     1       2.757  -3.314  13.360  1.00  0.00    -0.105 C 
HETATM    3  C3  UNL     1       2.540  -2.250  13.903  1.00  0.00    -0.036 C 
ENDROOT
BRANCH   3   4
HETATM    4  C4  UNL     1       2.256  -0.961  14.583  1.00  0.00     0.257 C 
HETATM    5  O2  UNL     1       3.368  -0.162  14.638  1.00  0.00    -0.331 OA
HETATM    6  C5  UNL     1       3.146   0.813  15.634  1.00  0.00     0.179 C 
HETATM    7  C9  UNL     1       2.036   1.701  15.141  1.00  0.00     0.153 C 
HETATM    8  C10 UNL     1       1.419   1.252  13.840  1.00  0.00     0.073 C 
HETATM    9  C11 UNL     1       1.233  -0.245  13.736  1.00  0.00     0.196 C 
BRANCH   4  10
HETATM   10  O1  UNL     1       1.819  -1.264  15.852  1.00  0.00    -0.353 OA
ATOM     11  H1  UNL     1       1.882  -0.467  16.366  1.00  0.00     0.214 HD
ENDBRANCH   4  10
BRANCH   6  12
HETATM   12  C6  UNL     1       4.439   1.486  15.820  1.00  0.00     0.031 C 
HETATM   13  C7  UNL     1       4.924   1.830  17.017  1.00  0.00     0.132 C 
BRANCH  13  14
HETATM   14  O3  UNL     1       4.123   1.510  18.118  1.00  0.00    -0.368 OA
HETATM   15  C8  UNL     1       3.595   2.587  18.889  1.00  0.00     0.208 C 
ENDBRANCH  13  14
ENDBRANCH   6  12
BRANCH   7  16
HETATM   16  O4  UNL     1       1.061   1.906  16.125  1.00  0.00    -0.393 OA
ATOM     17  H4  UNL     1       0.283   2.318  15.768  1.00  0.00     0.210 HD
ENDBRANCH   7  16
BRANCH   9  18
HETATM   18  O5  UNL     1       1.358  -0.553  12.376  1.00  0.00    -0.389 OA
ATOM     19  H5  UNL     1       0.798  -0.014  11.831  1.00  0.00     0.210 HD
ENDBRANCH   9  18
ENDBRANCH   3   4
TORSDOF 6
ENDMDL
MODEL 4
REMARK VINA RESULT: -5.015609197      1.027      1.110
REMARK  6 active torsions:
REMARK  status: ('A' for Active; 'I' for Inactive)
REMARK    1  A    between atoms: C3_3  and  C4_4 
REMARK    2  A    between atoms: C4_4  and  O1_5 
REMARK    3  A    between atoms: C5_8  and  C6_9 
REMARK    4  A    between atoms: C7_10  and  O3_11 
REMARK    5  A    between atoms: C9_13  and  O4_14 
REMARK    6  A    between atoms: C11_17  and  O5_18 
ROOT
HETATM    1  C1  UNL     1       3.080  -4.356  12.911  1.00  0.00     0.112 C 
HETATM    2  C2  UNL     1       2.666  -3.031  13.378  1.00  0.00    -0.105 C 
HETATM    3  C3  UNL     1       2.303  -1.939  13.764  1.00  0.00    -0.036 C 
ENDROOT
BRANCH   3   4
HETATM    4  C4  UNL     1       1.836  -0.614  14.245  1.00  0.00     0.257 C 
HETATM    5  O2  UNL     1       1.156  -0.716  15.430  1.00  0.00    -0.331 OA
HETATM    6  C5  UNL     1       0.403   0.466  15.595  1.00  0.00     0.179 C 
HETATM    7  C9  UNL     1       1.384   1.589  15.789  1.00  0.00     0.153 C 
HETATM    8  C10 UNL     1       2.828   1.181  15.641  1.00  0.00     0.073 C 
HETATM    9  C11 UNL     1       3.075   0.207  14.510  1.00  0.00     0.196 C 
BRANCH   4  10
HETATM   10  O1  UNL     1       1.020  -0.096  13.265  1.00  0.00    -0.353 OA
ATOM     11  H1  UNL     1       1.118   0.848  13.293  1.00  0.00     0.214 HD
ENDBRANCH   4  10
BRANCH   6  12
HETATM   12  C6  UNL     1      -0.481   0.212  16.741  1.00  0.00     0.031 C 
HETATM   13  C7  UNL     1      -1.627   0.867  16.946  1.00  0.00     0.132 C 
BRANCH  13  14
HETATM   14  O3  UNL     1      -1.960   1.833  15.990  1.00  0.00    -0.368 OA
HETATM   15  C8  UNL     1      -2.153   3.172  16.442  1.00  0.00     0.208 C 
ENDBRANCH  13  14
ENDBRANCH   6  12
BRANCH   7  16
HETATM   16  O4  UNL     1       1.079   2.690  14.978  1.00  0.00    -0.393 OA
ATOM     17  H4  UNL     1       0.152   2.898  15.003  1.00  0.00     0.210 HD
ENDBRANCH   7  16
BRANCH   9  18
HETATM   18  O5  UNL     1       4.160  -0.580  14.911  1.00  0.00    -0.389 OA
ATOM     19  H5  UNL     1       4.410  -0.419  15.813  1.00  0.00     0.210 HD
ENDBRANCH   9  18
ENDBRANCH   3   4
TORSDOF 6
ENDMDL
MODEL 5
REMARK VINA RESULT: -5.007484598      3.199      4.789
REMARK  6 active torsions:
REMARK  status: ('A' for Active; 'I' for Inactive)
REMARK    1  A    between atoms: C3_3  and  C4_4 
REMARK    2  A    between atoms: C4_4  and  O1_5 
REMARK    3  A    between atoms: C5_8  and  C6_9 
REMARK    4  A    between atoms: C7_10  and  O3_11 
REMARK    5  A    between atoms: C9_13  and  O4_14 
REMARK    6  A    between atoms: C11_17  and  O5_18 
ROOT
HETATM    1  C1  UNL     1       2.320   1.397   7.913  1.00  0.00     0.112 C 
HETATM    2  C2  UNL     1       1.846   1.186   9.281  1.00  0.00    -0.105 C 
HETATM    3  C3  UNL     1       1.435   1.004  10.409  1.00  0.00    -0.036 C 
ENDROOT
BRANCH   3   4
HETATM    4  C4  UNL     1       0.914   0.764  11.778  1.00  0.00     0.257 C 
HETATM    5  O2  UNL     1       1.888   0.283  12.614  1.00  0.00    -0.331 OA
HETATM    6  C5  UNL     1       1.246  -0.305  13.725  1.00  0.00     0.179 C 
HETATM    7  C9  UNL     1       0.577   0.807  14.486  1.00  0.00     0.153 C 
HETATM    8  C10 UNL     1       0.672   2.155  13.818  1.00  0.00     0.073 C 
HETATM    9  C11 UNL     1       0.488   2.109  12.318  1.00  0.00     0.196 C 
BRANCH   4  10
HETATM   10  O1  UNL     1      -0.115  -0.143  11.664  1.00  0.00    -0.353 OA
ATOM     11  H1  UNL     1       0.151  -0.925  12.134  1.00  0.00     0.214 HD
ENDBRANCH   4  10
BRANCH   6  12
HETATM   12  C6  UNL     1       2.304  -1.009  14.462  1.00  0.00     0.031 C 
HETATM   13  C7  UNL     1       2.792  -2.198  14.094  1.00  0.00     0.132 C 
BRANCH  13  14
HETATM   14  O3  UNL     1       2.235  -2.758  12.940  1.00  0.00    -0.368 OA
HETATM   15  C8  UNL     1       2.678  -4.058  12.555  1.00  0.00     0.208 C 
ENDBRANCH  13  14
ENDBRANCH   6  12
BRANCH   7  16
HETATM   16  O4  UNL     1      -0.748   0.489  14.810  1.00  0.00    -0.393 OA
ATOM     17  H4  UNL     1      -1.065   1.009  15.539  1.00  0.00     0.210 HD
ENDBRANCH   7  16
BRANCH   9  18
HETATM   18  O5  UNL     1       1.261   3.157  11.804  1.00  0.00    -0.389 OA
ATOM     19  H5  UNL     1       0.740   3.927  11.609  1.00  0.00     0.210 HD
ENDBRANCH   9  18
ENDBRANCH   3   4
TORSDOF 6
ENDMDL
