MODEL 1
REMARK VINA RESULT: -5.107098039      0.000      0.000
REMARK  6 active torsions:
REMARK  status: ('A' for Active; 'I' for Inactive)
REMARK    1  A    between atoms: O1_1  and  C1_3 
REMARK    2  A    between atoms: C4_7  and  O3_8 
REMARK    3  A    between atoms: O3_8  and  C5_9 
REMARK    4  A    between atoms: C7_11  and  O4_12 
REMARK    5  A    between atoms: C8_14  and  O5_15 
REMARK    6  A    between atoms: C10_18  and  O6_19 
ROOT
HETATM    1  C5  UNL     1       1.586   1.166  13.638  1.00  0.00     0.156 C 
HETATM    2  C6  UNL     1       0.914   1.902  12.495  1.00  0.00     0.069 C 
HETATM    3  C7  UNL     1       1.237   1.196  11.179  1.00  0.00     0.149 C 
HETATM    4  C8  UNL     1       0.406  -0.091  11.236  1.00  0.00     0.149 C 
HETATM    5  C9  UNL     1       1.066  -0.912  12.320  1.00  0.00     0.068 C 
HETATM    6  C10 UNL     1       1.093  -0.248  13.648  1.00  0.00     0.149 C 
ENDROOT
BRANCH   1   7
HETATM    7  O3  UNL     1       2.929   1.314  13.490  1.00  0.00    -0.350 OA
BRANCH   7   8
HETATM    8  C4  UNL     1       3.588   1.987  14.481  1.00  0.00     0.298 C 
HETATM    9  C1  UNL     1       5.013   2.307  14.192  1.00  0.00     0.198 C 
HETATM   10  C2  UNL     1       5.733   1.086  14.530  1.00  0.00     0.033 C 
HETATM   11  C3  UNL     1       4.965   0.371  15.331  1.00  0.00     0.137 C 
HETATM   12  O2  UNL     1       3.750   1.046  15.559  1.00  0.00    -0.330 OA
BRANCH   9  13
HETATM   13  O1  UNL     1       5.238   2.770  12.907  1.00  0.00    -0.387 OA
ATOM     14  H1  UNL     1       4.612   2.463  12.262  1.00  0.00     0.210 HD
ENDBRANCH   9  13
ENDBRANCH   7   8
ENDBRANCH   1   7
BRANCH   6  15
HETATM   15  O6  UNL     1       1.835  -1.070  14.496  1.00  0.00    -0.393 OA
ATOM     16  H6  UNL     1       1.960  -1.944  14.143  1.00  0.00     0.210 HD
ENDBRANCH   6  15
BRANCH   3  17
HETATM   17  O4  UNL     1       0.967   1.954  10.081  1.00  0.00    -0.393 OA
ATOM     18  H4  UNL     1       0.069   1.875   9.782  1.00  0.00     0.210 HD
ENDBRANCH   3  17
BRANCH   4  19
HETATM   19  O5  UNL     1       0.439  -0.775  10.046  1.00  0.00    -0.393 OA
ATOM     20  H5  UNL     1      -0.431  -0.912   9.691  1.00  0.00     0.210 HD
ENDBRANCH   4  19
TORSDOF 6
ENDMDL
MODEL 2
REMARK VINA RESULT: -4.954864973      3.417      4.963
REMARK  6 active torsions:
REMARK  status: ('A' for Active; 'I' for Inactive)
REMARK    1  A    between atoms: O1_1  and  C1_3 
REMARK    2  A    between atoms: C4_7  and  O3_8 
REMARK    3  A    between atoms: O3_8  and  C5_9 
REMARK    4  A    between atoms: C7_11  and  O4_12 
REMARK    5  A    between atoms: C8_14  and  O5_15 
REMARK    6  A    between atoms: C10_18  and  O6_19 
ROOT
HETATM    1  C5  UNL     1       0.344   0.817  15.904  1.00  0.00     0.156 C 
HETATM    2  C6  UNL     1      -0.863   1.733  15.848  1.00  0.00     0.069 C 
HETATM    3  C7  UNL     1      -2.139   0.894  15.900  1.00  0.00     0.149 C 
HETATM    4  C8  UNL     1      -2.203   0.406  17.351  1.00  0.00     0.149 C 
HETATM    5  C9  UNL     1      -1.057  -0.573  17.464  1.00  0.00     0.068 C 
HETATM    6  C10 UNL     1       0.273   0.016  17.169  1.00  0.00     0.149 C 
ENDROOT
BRANCH   1   7
HETATM    7  O3  UNL     1       0.364   0.091  14.756  1.00  0.00    -0.350 OA
BRANCH   7   8
HETATM    8  C4  UNL     1       1.443   0.266  13.935  1.00  0.00     0.298 C 
HETATM    9  C1  UNL     1       1.326  -0.363  12.590  1.00  0.00     0.198 C 
HETATM   10  C2  UNL     1       1.705  -1.753  12.807  1.00  0.00     0.033 C 
HETATM   11  C3  UNL     1       2.392  -1.815  13.932  1.00  0.00     0.137 C 
HETATM   12  O2  UNL     1       2.503  -0.530  14.499  1.00  0.00    -0.330 OA
BRANCH   9  13
HETATM   13  O1  UNL     1       0.089  -0.190  11.992  1.00  0.00    -0.387 OA
ATOM     14  H1  UNL     1      -0.202   0.713  11.942  1.00  0.00     0.210 HD
ENDBRANCH   9  13
ENDBRANCH   7   8
ENDBRANCH   1   7
BRANCH   6  15
HETATM   15  O6  UNL     1       1.195  -1.030  17.195  1.00  0.00    -0.393 OA
ATOM     16  H6  UNL     1       2.037  -0.786  16.828  1.00  0.00     0.210 HD
ENDBRANCH   6  15
BRANCH   3  17
HETATM   17  O4  UNL     1      -3.251   1.582  15.522  1.00  0.00    -0.393 OA
ATOM     18  H4  UNL     1      -3.226   2.500  15.765  1.00  0.00     0.210 HD
ENDBRANCH   3  17
BRANCH   4  19
HETATM   19  O5  UNL     1      -3.389  -0.228  17.627  1.00  0.00    -0.393 OA
ATOM     20  H5  UNL     1      -3.365  -0.678  18.463  1.00  0.00     0.210 HD
ENDBRANCH   4  19
TORSDOF 6
ENDMDL
MODEL 3
REMARK VINA RESULT: -4.797862169      2.865      4.626
REMARK  6 active torsions:
REMARK  status: ('A' for Active; 'I' for Inactive)
REMARK    1  A    between atoms: O1_1  and  C1_3 
REMARK    2  A    between atoms: C4_7  and  O3_8 
REMARK    3  A    between atoms: O3_8  and  C5_9 
REMARK    4  A    between atoms: C7_11  and  O4_12 
REMARK    5  A    between atoms: C8_14  and  O5_15 
REMARK    6  A    between atoms: C10_18  and  O6_19 
ROOT
HETATM    1  C5  UNL     1       1.940   0.189  14.535  1.00  0.00     0.156 C 
HETATM    2  C6  UNL     1       2.961  -0.922  14.376  1.00  0.00     0.069 C 
HETATM    3  C7  UNL     1       2.273  -2.164  13.814  1.00  0.00     0.149 C 
HETATM    4  C8  UNL     1       1.997  -1.803  12.350  1.00  0.00     0.149 C 
HETATM    5  C9  UNL     1       0.928  -0.736  12.426  1.00  0.00     0.068 C 
HETATM    6  C10 UNL     1       1.331   0.468  13.195  1.00  0.00     0.149 C 
ENDROOT
BRANCH   1   7
HETATM    7  O3  UNL     1       1.067  -0.188  15.504  1.00  0.00    -0.350 OA
BRANCH   7   8
HETATM    8  C4  UNL     1       0.842   0.705  16.514  1.00  0.00     0.298 C 
HETATM    9  C1  UNL     1       0.598   0.102  17.854  1.00  0.00     0.198 C 
HETATM   10  C2  UNL     1      -0.816  -0.250  17.839  1.00  0.00     0.033 C 
HETATM   11  C3  UNL     1      -1.401   0.457  16.890  1.00  0.00     0.137 C 
HETATM   12  O2  UNL     1      -0.452   1.281  16.252  1.00  0.00    -0.330 OA
BRANCH   9  13
HETATM   13  O1  UNL     1       1.449  -0.944  18.164  1.00  0.00    -0.387 OA
ATOM     14  H1  UNL     1       2.010  -0.787  18.914  1.00  0.00     0.210 HD
ENDBRANCH   9  13
ENDBRANCH   7   8
ENDBRANCH   1   7
BRANCH   6  15
HETATM   15  O6  UNL     1       0.208   1.292  13.276  1.00  0.00    -0.393 OA
ATOM     16  H6  UNL     1      -0.280   1.167  14.081  1.00  0.00     0.210 HD
ENDBRANCH   6  15
BRANCH   3  17
HETATM   17  O4  UNL     1       3.015  -3.298  13.949  1.00  0.00    -0.393 OA
ATOM     18  H4  UNL     1       2.690  -3.880  14.627  1.00  0.00     0.210 HD
ENDBRANCH   3  17
BRANCH   4  19
HETATM   19  O5  UNL     1       1.532  -2.880  11.636  1.00  0.00    -0.393 OA
ATOM     20  H5  UNL     1       1.920  -2.925  10.769  1.00  0.00     0.210 HD
ENDBRANCH   4  19
TORSDOF 6
ENDMDL
MODEL 4
REMARK VINA RESULT: -4.792443309      3.408      4.831
REMARK  6 active torsions:
REMARK  status: ('A' for Active; 'I' for Inactive)
REMARK    1  A    between atoms: O1_1  and  C1_3 
REMARK    2  A    between atoms: C4_7  and  O3_8 
REMARK    3  A    between atoms: O3_8  and  C5_9 
REMARK    4  A    between atoms: C7_11  and  O4_12 
REMARK    5  A    between atoms: C8_14  and  O5_15 
REMARK    6  A    between atoms: C10_18  and  O6_19 
ROOT
HETATM    1  C5  UNL     1       1.748   0.989  15.501  1.00  0.00     0.156 C 
HETATM    2  C6  UNL     1       2.884   0.060  15.115  1.00  0.00     0.069 C 
HETATM    3  C7  UNL     1       2.308  -1.223  14.520  1.00  0.00     0.149 C 
HETATM    4  C8  UNL     1       1.793  -0.794  13.142  1.00  0.00     0.149 C 
HETATM    5  C9  UNL     1       0.606   0.091  13.448  1.00  0.00     0.068 C 
HETATM    6  C10 UNL     1       0.935   1.278  14.277  1.00  0.00     0.149 C 
ENDROOT
BRANCH   1   7
HETATM    7  O3  UNL     1       1.072   0.409  16.526  1.00  0.00    -0.350 OA
BRANCH   7   8
HETATM    8  C4  UNL     1       1.036   1.094  17.708  1.00  0.00     0.298 C 
HETATM    9  C1  UNL     1       0.954   0.248  18.931  1.00  0.00     0.198 C 
HETATM   10  C2  UNL     1      -0.463  -0.064  19.060  1.00  0.00     0.033 C 
HETATM   11  C3  UNL     1      -1.140   0.826  18.359  1.00  0.00     0.137 C 
HETATM   12  O2  UNL     1      -0.252   1.737  17.754  1.00  0.00    -0.330 OA
BRANCH   9  13
HETATM   13  O1  UNL     1       1.788  -0.856  18.909  1.00  0.00    -0.387 OA
ATOM     14  H1  UNL     1       1.421  -1.636  19.309  1.00  0.00     0.210 HD
ENDBRANCH   9  13
ENDBRANCH   7   8
ENDBRANCH   1   7
BRANCH   6  15
HETATM   15  O6  UNL     1      -0.271   1.914  14.570  1.00  0.00    -0.393 OA
ATOM     16  H6  UNL     1      -0.320   2.791  14.210  1.00  0.00     0.210 HD
ENDBRANCH   6  15
BRANCH   3  17
HETATM   17  O4  UNL     1       3.212  -2.240  14.456  1.00  0.00    -0.393 OA
ATOM     18  H4  UNL     1       3.241  -2.662  13.605  1.00  0.00     0.210 HD
ENDBRANCH   3  17
BRANCH   4  19
HETATM   19  O5  UNL     1       1.394  -1.868  12.386  1.00  0.00    -0.393 OA
ATOM     20  H5  UNL     1       0.730  -1.628  11.750  1.00  0.00     0.210 HD
ENDBRANCH   4  19
TORSDOF 6
ENDMDL
MODEL 5
REMARK VINA RESULT: -4.772273409      3.288      5.378
REMARK  6 active torsions:
REMARK  status: ('A' for Active; 'I' for Inactive)
REMARK    1  A    between atoms: O1_1  and  C1_3 
REMARK    2  A    between atoms: C4_7  and  O3_8 
REMARK    3  A    between atoms: O3_8  and  C5_9 
REMARK    4  A    between atoms: C7_11  and  O4_12 
REMARK    5  A    between atoms: C8_14  and  O5_15 
REMARK    6  A    between atoms: C10_18  and  O6_19 
ROOT
HETATM    1  C5  UNL     1       0.865   0.847  15.933  1.00  0.00     0.156 C 
HETATM    2  C6  UNL     1      -0.617   0.848  16.255  1.00  0.00     0.069 C 
HETATM    3  C7  UNL     1      -0.933  -0.323  17.184  1.00  0.00     0.149 C 
HETATM    4  C8  UNL     1      -0.335   0.101  18.530  1.00  0.00     0.149 C 
HETATM    5  C9  UNL     1       1.159   0.058  18.303  1.00  0.00     0.068 C 
HETATM    6  C10 UNL     1       1.630   0.953  17.217  1.00  0.00     0.149 C 
ENDROOT
BRANCH   1   7
HETATM    7  O3  UNL     1       1.126  -0.261  15.190  1.00  0.00    -0.350 OA
BRANCH   7   8
HETATM    8  C4  UNL     1       2.041  -0.127  14.184  1.00  0.00     0.298 C 
HETATM    9  C1  UNL     1       1.571  -0.553  12.836  1.00  0.00     0.198 C 
HETATM   10  C2  UNL     1       1.758  -1.997  12.828  1.00  0.00     0.033 C 
HETATM   11  C3  UNL     1       2.629  -2.299  13.773  1.00  0.00     0.137 C 
HETATM   12  O2  UNL     1       3.049  -1.126  14.431  1.00  0.00    -0.330 OA
BRANCH   9  13
HETATM   13  O1  UNL     1       0.286  -0.137  12.531  1.00  0.00    -0.387 OA
ATOM     14  H1  UNL     1       0.065  -0.182  11.608  1.00  0.00     0.210 HD
ENDBRANCH   9  13
ENDBRANCH   7   8
ENDBRANCH   1   7
BRANCH   6  15
HETATM   15  O6  UNL     1       2.994   0.708  17.052  1.00  0.00    -0.393 OA
ATOM     16  H6  UNL     1       3.167  -0.115  16.610  1.00  0.00     0.210 HD
ENDBRANCH   6  15
BRANCH   3  17
HETATM   17  O4  UNL     1      -2.262  -0.606  17.260  1.00  0.00    -0.393 OA
ATOM     18  H4  UNL     1      -2.607  -0.556  18.144  1.00  0.00     0.210 HD
ENDBRANCH   3  17
BRANCH   4  19
HETATM   19  O5  UNL     1      -0.679  -0.764  19.539  1.00  0.00    -0.393 OA
ATOM     20  H5  UNL     1       0.080  -1.199  19.909  1.00  0.00     0.210 HD
ENDBRANCH   4  19
TORSDOF 6
ENDMDL
