MODEL 1
REMARK VINA RESULT: -8.701450417      0.000      0.000
REMARK  7 active torsions:
REMARK  status: ('A' for Active; 'I' for Inactive)
REMARK    1  A    between atoms: C2_2  and  N1_3 
REMARK    2  A    between atoms: C2_2  and  C3_7 
REMARK       I    between atoms: C3_7  and  N2_9 
REMARK    3  A    between atoms: N2_9  and  N3_11 
REMARK       I    between atoms: N3_11  and  C4_13 
REMARK    4  A    between atoms: C4_13  and  C5_15 
REMARK    5  A    between atoms: C7_17  and  O3_18 
REMARK    6  A    between atoms: N4_20  and  C8_21 
REMARK    7  A    between atoms: C12_28  and  O6_29 
ROOT
HETATM    1  C5  UNL     1      16.372  19.754  32.511  1.00  0.00     0.088 A 
HETATM    2  C6  UNL     1      16.669  18.389  32.595  1.00  0.00     0.077 A 
HETATM    3  C7  UNL     1      17.950  18.256  33.082  1.00  0.00     0.145 A 
HETATM    4  N4  UNL     1      18.466  19.488  33.306  1.00  0.00    -0.302 N 
HETATM    5  C12 UNL     1      17.514  20.381  32.961  1.00  0.00     0.160 A 
ENDROOT
BRANCH   1   6
HETATM    6  C4  UNL     1      15.124  20.334  32.048  1.00  0.00     0.274 C 
HETATM    7  N3  UNL     1      14.199  19.536  31.300  1.00  0.00    -0.263 N 
ATOM      8  H3  UNL     1      14.421  18.563  31.092  1.00  0.00     0.190 HD
HETATM    9  O2  UNL     1      14.849  21.517  32.293  1.00  0.00    -0.266 OA
BRANCH   7  10
HETATM   10  N2  UNL     1      12.999  20.083  30.855  1.00  0.00    -0.265 N 
HETATM   11  C3  UNL     1      11.758  19.536  31.258  1.00  0.00     0.266 C 
HETATM   12  O1  UNL     1      11.757  18.532  32.034  1.00  0.00    -0.269 OA
ATOM     13  H2  UNL     1      13.014  20.889  30.230  1.00  0.00     0.190 HD
BRANCH  11  14
HETATM   14  C2  UNL     1      10.453  20.075  30.819  1.00  0.00     0.272 C 
HETATM   15  C1  UNL     1      10.088  21.197  31.797  1.00  0.00     0.050 C 
BRANCH  14  16
HETATM   16  N1  UNL     1       9.417  19.063  30.918  1.00  0.00    -0.067 N 
ATOM     17  H13 UNL     1       9.679  18.180  30.478  1.00  0.00     0.275 HD
ATOM     18  H12 UNL     1       9.296  18.707  31.866  1.00  0.00     0.275 HD
ATOM     19  H11 UNL     1       8.564  19.464  30.530  1.00  0.00     0.275 HD
ENDBRANCH  14  16
ENDBRANCH  11  14
ENDBRANCH   7  10
ENDBRANCH   1   6
BRANCH   5  20
HETATM   20  O6  UNL     1      17.685  21.754  33.056  1.00  0.00    -0.345 OA
ATOM     21  H6  UNL     1      17.904  22.328  32.332  1.00  0.00     0.219 HD
ENDBRANCH   5  20
BRANCH   3  22
HETATM   22  O3  UNL     1      18.638  17.061  33.320  1.00  0.00    -0.346 OA
ATOM     23  H3  UNL     1      18.951  16.741  34.158  1.00  0.00     0.219 HD
ENDBRANCH   3  22
BRANCH   4  24
HETATM   24  C8  UNL     1      19.801  19.796  33.825  1.00  0.00     0.109 C 
HETATM   25  C9  UNL     1      19.881  19.533  35.291  1.00  0.00     0.041 C 
HETATM   26  C10 UNL     1      21.279  19.999  35.641  1.00  0.00     0.142 C 
HETATM   27  S1  UNL     1      22.199  19.130  34.358  1.00  0.00     0.146 S 
HETATM   28  O4  UNL     1      22.507  17.742  34.816  1.00  0.00    -0.228 OA
HETATM   29  O5  UNL     1      23.379  19.890  33.894  1.00  0.00    -0.228 OA
HETATM   30  C11 UNL     1      20.895  19.071  33.117  1.00  0.00     0.166 C 
ENDBRANCH   4  24
TORSDOF 7
ENDMDL
MODEL 2
REMARK VINA RESULT: -8.288744775      1.551      1.600
REMARK  7 active torsions:
REMARK  status: ('A' for Active; 'I' for Inactive)
REMARK    1  A    between atoms: C2_2  and  N1_3 
REMARK    2  A    between atoms: C2_2  and  C3_7 
REMARK       I    between atoms: C3_7  and  N2_9 
REMARK    3  A    between atoms: N2_9  and  N3_11 
REMARK       I    between atoms: N3_11  and  C4_13 
REMARK    4  A    between atoms: C4_13  and  C5_15 
REMARK    5  A    between atoms: C7_17  and  O3_18 
REMARK    6  A    between atoms: N4_20  and  C8_21 
REMARK    7  A    between atoms: C12_28  and  O6_29 
ROOT
HETATM    1  C5  UNL     1      16.766  19.151  32.397  1.00  0.00     0.088 A 
HETATM    2  C6  UNL     1      16.751  17.776  32.660  1.00  0.00     0.077 A 
HETATM    3  C7  UNL     1      18.051  17.354  32.820  1.00  0.00     0.145 A 
HETATM    4  N4  UNL     1      18.881  18.413  32.667  1.00  0.00    -0.302 N 
HETATM    5  C12 UNL     1      18.103  19.487  32.414  1.00  0.00     0.160 A 
ENDROOT
BRANCH   1   6
HETATM    6  C4  UNL     1      15.607  19.994  32.168  1.00  0.00     0.274 C 
HETATM    7  N3  UNL     1      14.450  19.456  31.516  1.00  0.00    -0.263 N 
ATOM      8  H3  UNL     1      14.445  18.483  31.213  1.00  0.00     0.190 HD
HETATM    9  O2  UNL     1      15.607  21.179  32.530  1.00  0.00    -0.266 OA
BRANCH   7  10
HETATM   10  N2  UNL     1      13.333  20.256  31.295  1.00  0.00    -0.265 N 
HETATM   11  C3  UNL     1      12.027  19.759  31.518  1.00  0.00     0.266 C 
HETATM   12  O1  UNL     1      11.891  18.565  31.924  1.00  0.00    -0.269 OA
ATOM     13  H2  UNL     1      13.457  21.215  30.967  1.00  0.00     0.190 HD
BRANCH  11  14
HETATM   14  C2  UNL     1      10.805  20.562  31.302  1.00  0.00     0.272 C 
HETATM   15  C1  UNL     1      10.483  21.244  32.636  1.00  0.00     0.050 C 
BRANCH  14  16
HETATM   16  N1  UNL     1       9.679  19.708  30.971  1.00  0.00    -0.067 N 
ATOM     17  H13 UNL     1       9.793  19.224  30.080  1.00  0.00     0.275 HD
ATOM     18  H12 UNL     1       9.618  18.881  31.564  1.00  0.00     0.275 HD
ATOM     19  H11 UNL     1       8.840  20.286  31.005  1.00  0.00     0.275 HD
ENDBRANCH  14  16
ENDBRANCH  11  14
ENDBRANCH   7  10
ENDBRANCH   1   6
BRANCH   5  20
HETATM   20  O6  UNL     1      18.606  20.762  32.200  1.00  0.00    -0.345 OA
ATOM     21  H6  UNL     1      18.112  21.567  32.293  1.00  0.00     0.219 HD
ENDBRANCH   5  20
BRANCH   3  22
HETATM   22  O3  UNL     1      18.483  16.051  33.095  1.00  0.00    -0.346 OA
ATOM     23  H3  UNL     1      19.380  15.738  33.102  1.00  0.00     0.219 HD
ENDBRANCH   3  22
BRANCH   4  24
HETATM   24  C8  UNL     1      20.343  18.401  32.760  1.00  0.00     0.109 C 
HETATM   25  C9  UNL     1      20.794  17.808  34.052  1.00  0.00     0.041 C 
HETATM   26  C10 UNL     1      22.298  17.977  33.993  1.00  0.00     0.142 C 
HETATM   27  S1  UNL     1      22.597  17.291  32.353  1.00  0.00     0.146 S 
HETATM   28  O4  UNL     1      22.730  15.807  32.447  1.00  0.00    -0.228 OA
HETATM   29  O5  UNL     1      23.720  17.956  31.658  1.00  0.00    -0.228 OA
HETATM   30  C11 UNL     1      21.004  17.700  31.620  1.00  0.00     0.166 C 
ENDBRANCH   4  24
TORSDOF 7
ENDMDL
MODEL 3
REMARK VINA RESULT: -8.120656951      2.304      3.005
REMARK  7 active torsions:
REMARK  status: ('A' for Active; 'I' for Inactive)
REMARK    1  A    between atoms: C2_2  and  N1_3 
REMARK    2  A    between atoms: C2_2  and  C3_7 
REMARK       I    between atoms: C3_7  and  N2_9 
REMARK    3  A    between atoms: N2_9  and  N3_11 
REMARK       I    between atoms: N3_11  and  C4_13 
REMARK    4  A    between atoms: C4_13  and  C5_15 
REMARK    5  A    between atoms: C7_17  and  O3_18 
REMARK    6  A    between atoms: N4_20  and  C8_21 
REMARK    7  A    between atoms: C12_28  and  O6_29 
ROOT
HETATM    1  C5  UNL     1      17.117  19.512  32.408  1.00  0.00     0.088 A 
HETATM    2  C6  UNL     1      18.256  19.947  31.720  1.00  0.00     0.077 A 
HETATM    3  C7  UNL     1      19.279  19.062  31.978  1.00  0.00     0.145 A 
HETATM    4  N4  UNL     1      18.822  18.089  32.802  1.00  0.00    -0.302 N 
HETATM    5  C12 UNL     1      17.525  18.366  33.056  1.00  0.00     0.160 A 
ENDROOT
BRANCH   1   6
HETATM    6  C4  UNL     1      15.816  20.157  32.408  1.00  0.00     0.274 C 
HETATM    7  N3  UNL     1      14.628  19.367  32.284  1.00  0.00    -0.263 N 
ATOM      8  H3  UNL     1      14.699  18.353  32.194  1.00  0.00     0.190 HD
HETATM    9  O2  UNL     1      15.722  21.388  32.512  1.00  0.00    -0.266 OA
BRANCH   7  10
HETATM   10  N2  UNL     1      13.376  19.976  32.286  1.00  0.00    -0.265 N 
HETATM   11  C3  UNL     1      12.427  19.689  31.276  1.00  0.00     0.266 C 
HETATM   12  O1  UNL     1      12.738  18.865  30.363  1.00  0.00    -0.269 OA
ATOM     13  H2  UNL     1      13.139  20.637  33.025  1.00  0.00     0.190 HD
BRANCH  11  14
HETATM   14  C2  UNL     1      11.084  20.303  31.227  1.00  0.00     0.272 C 
HETATM   15  C1  UNL     1      10.873  21.011  32.570  1.00  0.00     0.050 C 
BRANCH  14  16
HETATM   16  N1  UNL     1      10.055  19.285  31.110  1.00  0.00    -0.067 N 
ATOM     17  H13 UNL     1      10.326  18.394  31.527  1.00  0.00     0.275 HD
ATOM     18  H12 UNL     1       9.245  19.468  31.701  1.00  0.00     0.275 HD
ATOM     19  H11 UNL     1       9.819  19.206  30.121  1.00  0.00     0.275 HD
ENDBRANCH  14  16
ENDBRANCH  11  14
ENDBRANCH   7  10
ENDBRANCH   1   6
BRANCH   5  20
HETATM   20  O6  UNL     1      16.722  17.582  33.869  1.00  0.00    -0.345 OA
ATOM     21  H6  UNL     1      16.602  17.707  34.803  1.00  0.00     0.219 HD
ENDBRANCH   5  20
BRANCH   3  22
HETATM   22  O3  UNL     1      20.588  19.125  31.487  1.00  0.00    -0.346 OA
ATOM     23  H3  UNL     1      21.389  18.985  31.979  1.00  0.00     0.219 HD
ENDBRANCH   3  22
BRANCH   4  24
HETATM   24  C8  UNL     1      19.586  16.951  33.320  1.00  0.00     0.109 C 
HETATM   25  C9  UNL     1      19.948  17.156  34.752  1.00  0.00     0.041 C 
HETATM   26  C10 UNL     1      20.798  15.941  35.061  1.00  0.00     0.142 C 
HETATM   27  S1  UNL     1      19.706  14.658  34.419  1.00  0.00     0.146 S 
HETATM   28  O4  UNL     1      18.713  14.275  35.466  1.00  0.00    -0.228 OA
HETATM   29  O5  UNL     1      20.451  13.517  33.845  1.00  0.00    -0.228 OA
HETATM   30  C11 UNL     1      18.887  15.643  33.154  1.00  0.00     0.166 C 
ENDBRANCH   4  24
TORSDOF 7
ENDMDL
MODEL 4
REMARK VINA RESULT: -8.105811290      2.166      2.954
REMARK  7 active torsions:
REMARK  status: ('A' for Active; 'I' for Inactive)
REMARK    1  A    between atoms: C2_2  and  N1_3 
REMARK    2  A    between atoms: C2_2  and  C3_7 
REMARK       I    between atoms: C3_7  and  N2_9 
REMARK    3  A    between atoms: N2_9  and  N3_11 
REMARK       I    between atoms: N3_11  and  C4_13 
REMARK    4  A    between atoms: C4_13  and  C5_15 
REMARK    5  A    between atoms: C7_17  and  O3_18 
REMARK    6  A    between atoms: N4_20  and  C8_21 
REMARK    7  A    between atoms: C12_28  and  O6_29 
ROOT
HETATM    1  C5  UNL     1      16.424  20.257  32.600  1.00  0.00     0.088 A 
HETATM    2  C6  UNL     1      17.492  21.064  33.006  1.00  0.00     0.077 A 
HETATM    3  C7  UNL     1      18.626  20.286  33.056  1.00  0.00     0.145 A 
HETATM    4  N4  UNL     1      18.308  19.020  32.695  1.00  0.00    -0.302 N 
HETATM    5  C12 UNL     1      16.985  19.011  32.423  1.00  0.00     0.160 A 
ENDROOT
BRANCH   1   6
HETATM    6  C4  UNL     1      15.048  20.682  32.416  1.00  0.00     0.274 C 
HETATM    7  N3  UNL     1      13.992  19.714  32.437  1.00  0.00    -0.263 N 
ATOM      8  H3  UNL     1      14.210  18.728  32.579  1.00  0.00     0.190 HD
HETATM    9  O2  UNL     1      14.775  21.878  32.239  1.00  0.00    -0.266 OA
BRANCH   7  10
HETATM   10  N2  UNL     1      12.669  20.112  32.265  1.00  0.00    -0.265 N 
HETATM   11  C3  UNL     1      11.931  19.708  31.127  1.00  0.00     0.266 C 
HETATM   12  O1  UNL     1      12.497  18.973  30.262  1.00  0.00    -0.269 OA
ATOM     13  H2  UNL     1      12.226  20.704  32.968  1.00  0.00     0.190 HD
BRANCH  11  14
HETATM   14  C2  UNL     1      10.525  20.098  30.892  1.00  0.00     0.272 C 
HETATM   15  C1  UNL     1      10.178  21.155  31.947  1.00  0.00     0.050 C 
BRANCH  14  16
HETATM   16  N1  UNL     1       9.635  18.971  31.102  1.00  0.00    -0.067 N 
ATOM     17  H13 UNL     1       9.941  18.125  30.619  1.00  0.00     0.275 HD
ATOM     18  H12 UNL     1       9.675  18.602  32.052  1.00  0.00     0.275 HD
ATOM     19  H11 UNL     1       8.699  19.269  30.829  1.00  0.00     0.275 HD
ENDBRANCH  14  16
ENDBRANCH  11  14
ENDBRANCH   7  10
ENDBRANCH   1   6
BRANCH   5  20
HETATM   20  O6  UNL     1      16.297  17.877  32.018  1.00  0.00    -0.345 OA
ATOM     21  H6  UNL     1      15.634  17.428  32.530  1.00  0.00     0.219 HD
ENDBRANCH   5  20
BRANCH   3  22
HETATM   22  O3  UNL     1      19.914  20.699  33.415  1.00  0.00    -0.346 OA
ATOM     23  H3  UNL     1      20.222  21.594  33.502  1.00  0.00     0.219 HD
ENDBRANCH   3  22
BRANCH   4  24
HETATM   24  C8  UNL     1      19.221  17.877  32.612  1.00  0.00     0.109 C 
HETATM   25  C9  UNL     1      18.659  16.690  33.320  1.00  0.00     0.041 C 
HETATM   26  C10 UNL     1      19.774  15.671  33.205  1.00  0.00     0.142 C 
HETATM   27  S1  UNL     1      20.091  15.796  31.435  1.00  0.00     0.146 S 
HETATM   28  O4  UNL     1      19.150  14.904  30.694  1.00  0.00    -0.228 OA
HETATM   29  O5  UNL     1      21.515  15.584  31.099  1.00  0.00    -0.228 OA
HETATM   30  C11 UNL     1      19.586  17.510  31.213  1.00  0.00     0.166 C 
ENDBRANCH   4  24
TORSDOF 7
ENDMDL
MODEL 5
REMARK VINA RESULT: -8.104313374      2.098      2.973
REMARK  7 active torsions:
REMARK  status: ('A' for Active; 'I' for Inactive)
REMARK    1  A    between atoms: C2_2  and  N1_3 
REMARK    2  A    between atoms: C2_2  and  C3_7 
REMARK       I    between atoms: C3_7  and  N2_9 
REMARK    3  A    between atoms: N2_9  and  N3_11 
REMARK       I    between atoms: N3_11  and  C4_13 
REMARK    4  A    between atoms: C4_13  and  C5_15 
REMARK    5  A    between atoms: C7_17  and  O3_18 
REMARK    6  A    between atoms: N4_20  and  C8_21 
REMARK    7  A    between atoms: C12_28  and  O6_29 
ROOT
HETATM    1  C5  UNL     1      17.496  19.641  32.406  1.00  0.00     0.088 A 
HETATM    2  C6  UNL     1      18.697  20.336  32.227  1.00  0.00     0.077 A 
HETATM    3  C7  UNL     1      19.730  19.425  32.257  1.00  0.00     0.145 A 
HETATM    4  N4  UNL     1      19.219  18.186  32.448  1.00  0.00    -0.302 N 
HETATM    5  C12 UNL     1      17.878  18.324  32.537  1.00  0.00     0.160 A 
ENDROOT
BRANCH   1   6
HETATM    6  C4  UNL     1      16.165  20.221  32.438  1.00  0.00     0.274 C 
HETATM    7  N3  UNL     1      15.024  19.410  32.133  1.00  0.00    -0.263 N 
ATOM      8  H3  UNL     1      15.150  18.427  31.892  1.00  0.00     0.190 HD
HETATM    9  O2  UNL     1      16.004  21.416  32.727  1.00  0.00    -0.266 OA
BRANCH   7  10
HETATM   10  N2  UNL     1      13.745  19.957  32.165  1.00  0.00    -0.265 N 
HETATM   11  C3  UNL     1      12.764  19.566  31.222  1.00  0.00     0.266 C 
HETATM   12  O1  UNL     1      13.073  18.706  30.343  1.00  0.00    -0.269 OA
ATOM     13  H2  UNL     1      13.510  20.650  32.876  1.00  0.00     0.190 HD
BRANCH  11  14
HETATM   14  C2  UNL     1      11.390  20.111  31.207  1.00  0.00     0.272 C 
HETATM   15  C1  UNL     1      11.211  20.891  32.514  1.00  0.00     0.050 C 
BRANCH  14  16
HETATM   16  N1  UNL     1      10.411  19.040  31.206  1.00  0.00    -0.067 N 
ATOM     17  H13 UNL     1      10.699  18.237  30.645  1.00  0.00     0.275 HD
ATOM     18  H12 UNL     1      10.345  18.558  32.102  1.00  0.00     0.275 HD
ATOM     19  H11 UNL     1       9.524  19.440  30.902  1.00  0.00     0.275 HD
ENDBRANCH  14  16
ENDBRANCH  11  14
ENDBRANCH   7  10
ENDBRANCH   1   6
BRANCH   5  20
HETATM   20  O6  UNL     1      17.013  17.258  32.735  1.00  0.00    -0.345 OA
ATOM     21  H6  UNL     1      17.027  16.444  32.245  1.00  0.00     0.219 HD
ENDBRANCH   5  20
BRANCH   3  22
HETATM   22  O3  UNL     1      21.095  19.699  32.115  1.00  0.00    -0.346 OA
ATOM     23  H3  UNL     1      21.703  19.934  32.806  1.00  0.00     0.219 HD
ENDBRANCH   3  22
BRANCH   4  24
HETATM   24  C8  UNL     1      19.972  16.932  32.539  1.00  0.00     0.109 C 
HETATM   25  C9  UNL     1      20.784  16.703  31.310  1.00  0.00     0.041 C 
HETATM   26  C10 UNL     1      21.394  15.340  31.559  1.00  0.00     0.142 C 
HETATM   27  S1  UNL     1      22.042  15.616  33.218  1.00  0.00     0.146 S 
HETATM   28  O4  UNL     1      23.393  16.246  33.130  1.00  0.00    -0.228 OA
HETATM   29  O5  UNL     1      21.996  14.398  34.053  1.00  0.00    -0.228 OA
HETATM   30  C11 UNL     1      20.844  16.852  33.748  1.00  0.00     0.166 C 
ENDBRANCH   4  24
TORSDOF 7
ENDMDL
