MODEL 1
REMARK VINA RESULT: -5.573838651      0.000      0.000
REMARK  1 active torsions:
REMARK  status: ('A' for Active; 'I' for Inactive)
REMARK       I    between atoms: C2_2  and  N1_4 
REMARK    1  A    between atoms: N3_10  and  C7_12 
ROOT
HETATM    1  C1  UNL     1      48.133   0.758  20.390  1.00  0.00     0.119 C 
HETATM    2  C2  UNL     1      47.750   0.127  19.127  1.00  0.00     0.234 C 
HETATM    3  O1  UNL     1      48.327  -0.912  18.737  1.00  0.00    -0.272 OA
HETATM    4  N1  UNL     1      46.723   0.681  18.328  1.00  0.00    -0.246 N 
HETATM    5  C3  UNL     1      46.059   1.866  18.770  1.00  0.00     0.173 C 
HETATM    6  C4  UNL     1      44.565   1.804  18.618  1.00  0.00     0.162 C 
HETATM    7  N2  UNL     1      44.127   0.888  17.626  1.00  0.00    -0.219 N 
HETATM    8  C5  UNL     1      42.694   0.637  17.515  1.00  0.00     0.168 C 
HETATM    9  C6  UNL     1      44.999   0.178  16.708  1.00  0.00     0.691 C 
HETATM   10  N3  UNL     1      44.525  -0.308  15.641  1.00  0.00    -0.217 N 
ATOM     11  H3  UNL     1      43.528  -0.175  15.471  1.00  0.00     0.178 HD
HETATM   12  N4  UNL     1      46.355   0.086  17.104  1.00  0.00    -0.128 N 
ATOM     13  H4  UNL     1      47.042  -0.395  16.524  1.00  0.00     0.206 HD
ENDROOT
BRANCH  10  14
HETATM   14  C7  UNL     1      45.256  -1.021  14.663  1.00  0.00     0.036 C 
HETATM   15  C8  UNL     1      45.914  -0.015  13.698  1.00  0.00     0.038 C 
HETATM   16  C9  UNL     1      44.297  -1.836  13.837  1.00  0.00     0.038 C 
HETATM   17  C10 UNL     1      46.375  -1.874  15.219  1.00  0.00     0.038 C 
ENDBRANCH  10  14
TORSDOF 1
ENDMDL
MODEL 2
REMARK VINA RESULT: -5.508198709      0.075      1.103
REMARK  1 active torsions:
REMARK  status: ('A' for Active; 'I' for Inactive)
REMARK       I    between atoms: C2_2  and  N1_4 
REMARK    1  A    between atoms: N3_10  and  C7_12 
ROOT
HETATM    1  C1  UNL     1      48.171   0.745  20.337  1.00  0.00     0.119 C 
HETATM    2  C2  UNL     1      47.788   0.143  19.061  1.00  0.00     0.234 C 
HETATM    3  O1  UNL     1      48.385  -0.870  18.633  1.00  0.00    -0.272 OA
HETATM    4  N1  UNL     1      46.739   0.695  18.291  1.00  0.00    -0.246 N 
HETATM    5  C3  UNL     1      46.052   1.850  18.776  1.00  0.00     0.173 C 
HETATM    6  C4  UNL     1      44.558   1.757  18.640  1.00  0.00     0.162 C 
HETATM    7  N2  UNL     1      44.129   0.860  17.626  1.00  0.00    -0.219 N 
HETATM    8  C5  UNL     1      42.702   0.578  17.524  1.00  0.00     0.168 C 
HETATM    9  C6  UNL     1      45.007   0.198  16.677  1.00  0.00     0.691 C 
HETATM   10  N3  UNL     1      44.531  -0.267  15.601  1.00  0.00    -0.217 N 
ATOM     11  H3  UNL     1      43.529  -0.153  15.447  1.00  0.00     0.178 HD
HETATM   12  N4  UNL     1      46.370   0.127  17.054  1.00  0.00    -0.128 N 
ATOM     13  H4  UNL     1      47.060  -0.319  16.452  1.00  0.00     0.206 HD
ENDROOT
BRANCH  10  14
HETATM   14  C7  UNL     1      45.267  -0.933  14.594  1.00  0.00     0.036 C 
HETATM   15  C8  UNL     1      44.315  -1.850  13.801  1.00  0.00     0.038 C 
HETATM   16  C9  UNL     1      46.278  -1.836  15.249  1.00  0.00     0.038 C 
HETATM   17  C10 UNL     1      45.916  -0.012  13.584  1.00  0.00     0.038 C 
ENDBRANCH  10  14
TORSDOF 1
ENDMDL
MODEL 3
REMARK VINA RESULT: -5.095070522      3.385      5.567
REMARK  1 active torsions:
REMARK  status: ('A' for Active; 'I' for Inactive)
REMARK       I    between atoms: C2_2  and  N1_4 
REMARK    1  A    between atoms: N3_10  and  C7_12 
ROOT
HETATM    1  C1  UNL     1      51.126  -3.664  22.325  1.00  0.00     0.119 C 
HETATM    2  C2  UNL     1      49.958  -3.069  21.677  1.00  0.00     0.234 C 
HETATM    3  O1  UNL     1      48.804  -3.452  21.973  1.00  0.00    -0.272 OA
HETATM    4  N1  UNL     1      50.113  -2.053  20.705  1.00  0.00    -0.246 N 
HETATM    5  C3  UNL     1      51.429  -1.611  20.364  1.00  0.00     0.173 C 
HETATM    6  C4  UNL     1      51.551  -0.116  20.278  1.00  0.00     0.162 C 
HETATM    7  N2  UNL     1      50.323   0.547  20.016  1.00  0.00    -0.219 N 
HETATM    8  C5  UNL     1      50.307   2.004  20.075  1.00  0.00     0.168 C 
HETATM    9  C6  UNL     1      49.073  -0.119  19.693  1.00  0.00     0.691 C 
HETATM   10  N3  UNL     1      48.150   0.526  19.118  1.00  0.00    -0.217 N 
ATOM     11  H3  UNL     1      48.331   1.507  18.902  1.00  0.00     0.178 HD
HETATM   12  N4  UNL     1      48.994  -1.482  20.067  1.00  0.00    -0.128 N 
ATOM     13  H4  UNL     1      48.155  -2.031  19.881  1.00  0.00     0.206 HD
ENDROOT
BRANCH  10  14
HETATM   14  C7  UNL     1      46.888   0.006  18.747  1.00  0.00     0.036 C 
HETATM   15  C8  UNL     1      47.010  -0.669  17.366  1.00  0.00     0.038 C 
HETATM   16  C9  UNL     1      45.923   1.149  18.576  1.00  0.00     0.038 C 
HETATM   17  C10 UNL     1      46.345  -1.044  19.690  1.00  0.00     0.038 C 
ENDBRANCH  10  14
TORSDOF 1
ENDMDL
MODEL 4
REMARK VINA RESULT: -5.019242745      1.487      4.650
REMARK  1 active torsions:
REMARK  status: ('A' for Active; 'I' for Inactive)
REMARK       I    between atoms: C2_2  and  N1_4 
REMARK    1  A    between atoms: N3_10  and  C7_12 
ROOT
HETATM    1  C1  UNL     1      45.015  -1.701  14.097  1.00  0.00     0.119 C 
HETATM    2  C2  UNL     1      45.939  -1.447  15.202  1.00  0.00     0.234 C 
HETATM    3  O1  UNL     1      47.165  -1.658  15.065  1.00  0.00    -0.272 OA
HETATM    4  N1  UNL     1      45.463  -0.961  16.442  1.00  0.00    -0.246 N 
HETATM    5  C3  UNL     1      44.064  -0.716  16.602  1.00  0.00     0.173 C 
HETATM    6  C4  UNL     1      43.762   0.590  17.282  1.00  0.00     0.162 C 
HETATM    7  N2  UNL     1      44.822   1.073  18.094  1.00  0.00    -0.219 N 
HETATM    8  C5  UNL     1      44.689   2.409  18.666  1.00  0.00     0.168 C 
HETATM    9  C6  UNL     1      46.035   0.336  18.400  1.00  0.00     0.691 C 
HETATM   10  N3  UNL     1      46.733   0.666  19.403  1.00  0.00    -0.217 N 
ATOM     11  H3  UNL     1      46.401   1.452  19.963  1.00  0.00     0.178 HD
HETATM   12  N4  UNL     1      46.344  -0.724  17.515  1.00  0.00    -0.128 N 
ATOM     13  H4  UNL     1      47.177  -1.297  17.651  1.00  0.00     0.206 HD
ENDROOT
BRANCH  10  14
HETATM   14  C7  UNL     1      47.931   0.039  19.816  1.00  0.00     0.036 C 
HETATM   15  C8  UNL     1      48.621   0.924  20.873  1.00  0.00     0.038 C 
HETATM   16  C9  UNL     1      48.871  -0.030  18.642  1.00  0.00     0.038 C 
HETATM   17  C10 UNL     1      47.737  -1.318  20.454  1.00  0.00     0.038 C 
ENDBRANCH  10  14
TORSDOF 1
ENDMDL
MODEL 5
REMARK VINA RESULT: -5.016918421      2.669      5.747
REMARK  1 active torsions:
REMARK  status: ('A' for Active; 'I' for Inactive)
REMARK       I    between atoms: C2_2  and  N1_4 
REMARK    1  A    between atoms: N3_10  and  C7_12 
ROOT
HETATM    1  C1  UNL     1      45.026  -5.113  12.115  1.00  0.00     0.119 C 
HETATM    2  C2  UNL     1      45.347  -4.335  13.310  1.00  0.00     0.234 C 
HETATM    3  O1  UNL     1      45.996  -4.851  14.248  1.00  0.00    -0.272 OA
HETATM    4  N1  UNL     1      44.932  -2.988  13.426  1.00  0.00    -0.246 N 
HETATM    5  C3  UNL     1      44.193  -2.393  12.357  1.00  0.00     0.173 C 
HETATM    6  C4  UNL     1      44.668  -1.012  12.001  1.00  0.00     0.162 C 
HETATM    7  N2  UNL     1      45.343  -0.347  13.058  1.00  0.00    -0.219 N 
HETATM    8  C5  UNL     1      45.982   0.931  12.762  1.00  0.00     0.168 C 
HETATM    9  C6  UNL     1      45.449  -0.844  14.418  1.00  0.00     0.691 C 
HETATM   10  N3  UNL     1      45.725  -0.044  15.359  1.00  0.00    -0.217 N 
ATOM     11  H3  UNL     1      45.863   0.936  15.111  1.00  0.00     0.178 HD
HETATM   12  N4  UNL     1      45.228  -2.233  14.579  1.00  0.00    -0.128 N 
ATOM     13  H4  UNL     1      45.281  -2.672  15.498  1.00  0.00     0.206 HD
ENDROOT
BRANCH  10  14
HETATM   14  C7  UNL     1      45.859  -0.390  16.723  1.00  0.00     0.036 C 
HETATM   15  C8  UNL     1      44.480  -0.281  17.405  1.00  0.00     0.038 C 
HETATM   16  C9  UNL     1      46.746   0.623  17.396  1.00  0.00     0.038 C 
HETATM   17  C10 UNL     1      46.344  -1.802  16.964  1.00  0.00     0.038 C 
ENDBRANCH  10  14
TORSDOF 1
ENDMDL
