MODEL 1
REMARK VINA RESULT: -6.406995675      0.000      0.000
REMARK  6 active torsions:
REMARK  status: ('A' for Active; 'I' for Inactive)
REMARK    1  A    between atoms: C3_4  and  C4_5 
REMARK    2  A    between atoms: C4_5  and  C5_7 
REMARK    3  A    between atoms: C5_7  and  C6_10 
REMARK    4  A    between atoms: C9_14  and  C10_15 
REMARK    5  A    between atoms: C10_15  and  N2_16 
REMARK    6  A    between atoms: C12_20  and  C13_21 
ROOT
HETATM    1  C1  UNL     1      92.092  93.552 -42.850  1.00  0.00     0.155 C 
HETATM    2  N1  UNL     1      91.412  94.020 -44.026  1.00  0.00    -0.362 N 
HETATM    3  C2  UNL     1      91.005  95.314 -43.971  1.00  0.00     0.105 A 
HETATM    4  C3  UNL     1      90.328  95.945 -45.019  1.00  0.00     0.028 A 
HETATM    5  C7  UNL     1      90.091  95.173 -46.128  1.00  0.00     0.018 A 
HETATM    6  C8  UNL     1      90.519  93.842 -46.161  1.00  0.00     0.028 A 
HETATM    7  C9  UNL     1      91.182  93.264 -45.105  1.00  0.00     0.029 A 
ENDROOT
BRANCH   7   8
HETATM    8  C10 UNL     1      91.612  91.876 -45.185  1.00  0.00     0.186 C 
BRANCH   8   9
HETATM    9  N2  UNL     1      91.607  91.328 -46.541  1.00  0.00    -0.345 N 
HETATM   10  C11 UNL     1      92.639  90.855 -47.250  1.00  0.00     0.183 A 
HETATM   11  N3  UNL     1      92.226  90.452 -48.440  1.00  0.00    -0.349 N 
HETATM   12  C12 UNL     1      90.870  90.648 -48.569  1.00  0.00     0.077 A 
ATOM     13  H3  UNL     1      92.828  90.052 -49.160  1.00  0.00     0.166 HD
HETATM   14  C17 UNL     1      90.524  91.196 -47.362  1.00  0.00     0.124 A 
BRANCH  12  15
HETATM   15  C13 UNL     1      90.078  90.321 -49.743  1.00  0.00     0.079 A 
HETATM   16  C14 UNL     1      89.737  91.192 -50.783  1.00  0.00     0.121 A 
HETATM   17  N4  UNL     1      88.998  90.549 -51.700  1.00  0.00    -0.360 N 
HETATM   18  C15 UNL     1      88.866  89.288 -51.259  1.00  0.00     0.182 A 
ATOM     19  H4  UNL     1      88.613  90.940 -52.560  1.00  0.00     0.166 HD
HETATM   20  N5  UNL     1      89.528  89.164 -50.068  1.00  0.00    -0.344 N 
HETATM   21  C16 UNL     1      89.578  87.928 -49.332  1.00  0.00     0.157 C 
ENDBRANCH  12  15
ENDBRANCH   8   9
ENDBRANCH   7   8
BRANCH   4  22
HETATM   22  C4  UNL     1      89.937  97.354 -44.894  1.00  0.00     0.191 C 
HETATM   23  O1  UNL     1      88.698  97.617 -45.116  1.00  0.00    -0.290 OA
BRANCH  22  24
HETATM   24  C5  UNL     1      90.789  98.478 -44.554  1.00  0.00     0.149 C 
HETATM   25 BR1  UNL     1      89.864 100.154 -45.000  1.00  0.00    -0.063 Br
HETATM   26 BR2  UNL     1      91.115  98.513 -42.629  1.00  0.00    -0.063 Br
BRANCH  24  27
HETATM   27  C6  UNL     1      92.070  98.427 -45.328  1.00  0.00     0.126 C 
HETATM   28 BR3  UNL     1      92.379 100.169 -46.155  1.00  0.00    -0.093 Br
ENDBRANCH  24  27
ENDBRANCH  22  24
ENDBRANCH   4  22
TORSDOF 6
ENDMDL
MODEL 2
REMARK VINA RESULT: -6.298127197      6.415      9.907
REMARK  6 active torsions:
REMARK  status: ('A' for Active; 'I' for Inactive)
REMARK    1  A    between atoms: C3_4  and  C4_5 
REMARK    2  A    between atoms: C4_5  and  C5_7 
REMARK    3  A    between atoms: C5_7  and  C6_10 
REMARK    4  A    between atoms: C9_14  and  C10_15 
REMARK    5  A    between atoms: C10_15  and  N2_16 
REMARK    6  A    between atoms: C12_20  and  C13_21 
ROOT
HETATM    1  C1  UNL     1      93.847 102.715 -42.704  1.00  0.00     0.155 C 
HETATM    2  N1  UNL     1      92.922 102.549 -41.616  1.00  0.00    -0.362 N 
HETATM    3  C2  UNL     1      93.377 102.982 -40.412  1.00  0.00     0.105 A 
HETATM    4  C3  UNL     1      92.619 102.903 -39.239  1.00  0.00     0.028 A 
HETATM    5  C7  UNL     1      91.369 102.355 -39.371  1.00  0.00     0.018 A 
HETATM    6  C8  UNL     1      90.923 101.916 -40.621  1.00  0.00     0.028 A 
HETATM    7  C9  UNL     1      91.704 102.014 -41.748  1.00  0.00     0.029 A 
ENDROOT
BRANCH   7   8
HETATM    8  C10 UNL     1      91.198 101.547 -43.030  1.00  0.00     0.186 C 
BRANCH   8   9
HETATM    9  N2  UNL     1      90.785 100.143 -43.032  1.00  0.00    -0.345 N 
HETATM   10  C11 UNL     1      89.680  99.602 -43.557  1.00  0.00     0.183 A 
HETATM   11  N3  UNL     1      89.669  98.297 -43.348  1.00  0.00    -0.349 N 
HETATM   12  C12 UNL     1      90.795  97.912 -42.657  1.00  0.00     0.077 A 
ATOM     13  H3  UNL     1      88.930  97.664 -43.655  1.00  0.00     0.166 HD
HETATM   14  C17 UNL     1      91.465  99.094 -42.481  1.00  0.00     0.124 A 
BRANCH  12  15
HETATM   15  C13 UNL     1      91.116  96.552 -42.254  1.00  0.00     0.079 A 
HETATM   16  C14 UNL     1      91.385  96.114 -40.954  1.00  0.00     0.121 A 
HETATM   17  N4  UNL     1      91.640  94.797 -40.954  1.00  0.00    -0.360 N 
HETATM   18  C15 UNL     1      91.537  94.394 -42.230  1.00  0.00     0.182 A 
ATOM     19  H4  UNL     1      91.868  94.217 -40.146  1.00  0.00     0.166 HD
HETATM   20  N5  UNL     1      91.217  95.473 -43.010  1.00  0.00    -0.344 N 
HETATM   21  C16 UNL     1      91.033  95.374 -44.434  1.00  0.00     0.157 C 
ENDBRANCH  12  15
ENDBRANCH   8   9
ENDBRANCH   7   8
BRANCH   4  22
HETATM   22  C4  UNL     1      93.171 103.410 -37.977  1.00  0.00     0.191 C 
HETATM   23  O1  UNL     1      94.140 102.731 -37.473  1.00  0.00    -0.290 OA
BRANCH  22  24
HETATM   24  C5  UNL     1      92.746 104.582 -37.237  1.00  0.00     0.149 C 
HETATM   25 BR1  UNL     1      94.327 105.613 -36.688  1.00  0.00    -0.063 Br
HETATM   26 BR2  UNL     1      91.686 105.752 -38.386  1.00  0.00    -0.063 Br
BRANCH  24  27
HETATM   27  C6  UNL     1      91.991 104.188 -36.006  1.00  0.00     0.126 C 
HETATM   28 BR3  UNL     1      90.076 104.295 -36.376  1.00  0.00    -0.093 Br
ENDBRANCH  24  27
ENDBRANCH  22  24
ENDBRANCH   4  22
TORSDOF 6
ENDMDL
MODEL 3
REMARK VINA RESULT: -6.287149143      5.426      8.546
REMARK  6 active torsions:
REMARK  status: ('A' for Active; 'I' for Inactive)
REMARK    1  A    between atoms: C3_4  and  C4_5 
REMARK    2  A    between atoms: C4_5  and  C5_7 
REMARK    3  A    between atoms: C5_7  and  C6_10 
REMARK    4  A    between atoms: C9_14  and  C10_15 
REMARK    5  A    between atoms: C10_15  and  N2_16 
REMARK    6  A    between atoms: C12_20  and  C13_21 
ROOT
HETATM    1  C1  UNL     1      92.370 101.948 -44.605  1.00  0.00     0.155 C 
HETATM    2  N1  UNL     1      92.033 101.728 -43.225  1.00  0.00    -0.362 N 
HETATM    3  C2  UNL     1      92.882 102.300 -42.334  1.00  0.00     0.105 A 
HETATM    4  C3  UNL     1      92.717 102.195 -40.949  1.00  0.00     0.028 A 
HETATM    5  C7  UNL     1      91.631 101.470 -40.530  1.00  0.00     0.018 A 
HETATM    6  C8  UNL     1      90.771 100.889 -41.468  1.00  0.00     0.028 A 
HETATM    7  C9  UNL     1      90.974 101.020 -42.821  1.00  0.00     0.029 A 
ENDROOT
BRANCH   7   8
HETATM    8  C10 UNL     1      90.051 100.400 -43.760  1.00  0.00     0.186 C 
BRANCH   8   9
HETATM    9  N2  UNL     1      90.434  99.048 -44.169  1.00  0.00    -0.345 N 
HETATM   10  C11 UNL     1      90.799  98.619 -45.382  1.00  0.00     0.183 A 
HETATM   11  N3  UNL     1      91.065  97.325 -45.345  1.00  0.00    -0.349 N 
HETATM   12  C12 UNL     1      90.881  96.833 -44.074  1.00  0.00     0.077 A 
ATOM     13  H3  UNL     1      91.365  96.769 -46.146  1.00  0.00     0.166 HD
HETATM   14  C17 UNL     1      90.488  97.941 -43.371  1.00  0.00     0.124 A 
BRANCH  12  15
HETATM   15  C13 UNL     1      91.081  95.452 -43.664  1.00  0.00     0.079 A 
HETATM   16  C14 UNL     1      91.047  94.328 -44.495  1.00  0.00     0.121 A 
HETATM   17  N4  UNL     1      91.274  93.217 -43.777  1.00  0.00    -0.360 N 
HETATM   18  C15 UNL     1      91.451  93.619 -42.509  1.00  0.00     0.182 A 
ATOM     19  H4  UNL     1      91.305  92.259 -44.125  1.00  0.00     0.166 HD
HETATM   20  N5  UNL     1      91.331  94.981 -42.456  1.00  0.00    -0.344 N 
HETATM   21  C16 UNL     1      91.469  95.725 -41.231  1.00  0.00     0.157 C 
ENDBRANCH  12  15
ENDBRANCH   8   9
ENDBRANCH   7   8
BRANCH   4  22
HETATM   22  C4  UNL     1      93.666 102.859 -40.048  1.00  0.00     0.191 C 
HETATM   23  O1  UNL     1      94.854 102.369 -40.021  1.00  0.00    -0.290 OA
BRANCH  22  24
HETATM   24  C5  UNL     1      93.413 103.997 -39.185  1.00  0.00     0.149 C 
HETATM   25 BR1  UNL     1      95.084 104.999 -38.923  1.00  0.00    -0.063 Br
HETATM   26 BR2  UNL     1      92.154 105.220 -40.039  1.00  0.00    -0.063 Br
BRANCH  24  27
HETATM   27  C6  UNL     1      92.920 103.547 -37.844  1.00  0.00     0.126 C 
HETATM   28 BR3  UNL     1      91.019 103.968 -37.695  1.00  0.00    -0.093 Br
ENDBRANCH  24  27
ENDBRANCH  22  24
ENDBRANCH   4  22
TORSDOF 6
ENDMDL
MODEL 4
REMARK VINA RESULT: -6.253368116      6.349      9.740
REMARK  6 active torsions:
REMARK  status: ('A' for Active; 'I' for Inactive)
REMARK    1  A    between atoms: C3_4  and  C4_5 
REMARK    2  A    between atoms: C4_5  and  C5_7 
REMARK    3  A    between atoms: C5_7  and  C6_10 
REMARK    4  A    between atoms: C9_14  and  C10_15 
REMARK    5  A    between atoms: C10_15  and  N2_16 
REMARK    6  A    between atoms: C12_20  and  C13_21 
ROOT
HETATM    1  C1  UNL     1      93.795 102.670 -42.819  1.00  0.00     0.155 C 
HETATM    2  N1  UNL     1      92.849 102.508 -41.749  1.00  0.00    -0.362 N 
HETATM    3  C2  UNL     1      93.270 102.969 -40.543  1.00  0.00     0.105 A 
HETATM    4  C3  UNL     1      92.488 102.898 -39.386  1.00  0.00     0.028 A 
HETATM    5  C7  UNL     1      91.250 102.327 -39.535  1.00  0.00     0.018 A 
HETATM    6  C8  UNL     1      90.839 101.859 -40.787  1.00  0.00     0.028 A 
HETATM    7  C9  UNL     1      91.643 101.951 -41.898  1.00  0.00     0.029 A 
ENDROOT
BRANCH   7   8
HETATM    8  C10 UNL     1      91.172 101.453 -43.182  1.00  0.00     0.186 C 
BRANCH   8   9
HETATM    9  N2  UNL     1      90.786 100.041 -43.169  1.00  0.00    -0.345 N 
HETATM   10  C11 UNL     1      89.729  99.464 -43.750  1.00  0.00     0.183 A 
HETATM   11  N3  UNL     1      89.727  98.165 -43.502  1.00  0.00    -0.349 N 
HETATM   12  C12 UNL     1      90.811  97.823 -42.727  1.00  0.00     0.077 A 
ATOM     13  H3  UNL     1      89.022  97.509 -43.838  1.00  0.00     0.166 HD
HETATM   14  C17 UNL     1      91.446  99.023 -42.542  1.00  0.00     0.124 A 
BRANCH  12  15
HETATM   15  C13 UNL     1      91.129  96.482 -42.263  1.00  0.00     0.079 A 
HETATM   16  C14 UNL     1      91.381  96.100 -40.942  1.00  0.00     0.121 A 
HETATM   17  N4  UNL     1      91.638  94.785 -40.883  1.00  0.00    -0.360 N 
HETATM   18  C15 UNL     1      91.553  94.328 -42.142  1.00  0.00     0.182 A 
ATOM     19  H4  UNL     1      91.855  94.239 -40.049  1.00  0.00     0.166 HD
HETATM   20  N5  UNL     1      91.242  95.373 -42.971  1.00  0.00    -0.344 N 
HETATM   21  C16 UNL     1      91.077  95.213 -44.392  1.00  0.00     0.157 C 
ENDBRANCH  12  15
ENDBRANCH   8   9
ENDBRANCH   7   8
BRANCH   4  22
HETATM   22  C4  UNL     1      93.004 103.436 -38.121  1.00  0.00     0.191 C 
HETATM   23  O1  UNL     1      93.966 102.776 -37.579  1.00  0.00    -0.290 OA
BRANCH  22  24
HETATM   24  C5  UNL     1      92.551 104.619 -37.417  1.00  0.00     0.149 C 
HETATM   25 BR1  UNL     1      91.785 105.890 -38.706  1.00  0.00    -0.063 Br
HETATM   26 BR2  UNL     1      91.121 104.153 -36.172  1.00  0.00    -0.063 Br
BRANCH  24  27
HETATM   27  C6  UNL     1      93.693 105.291 -36.717  1.00  0.00     0.126 C 
HETATM   28 BR3  UNL     1      94.737 106.292 -38.028  1.00  0.00    -0.093 Br
ENDBRANCH  24  27
ENDBRANCH  22  24
ENDBRANCH   4  22
TORSDOF 6
ENDMDL
MODEL 5
REMARK VINA RESULT: -6.183078849      0.917      1.852
REMARK  6 active torsions:
REMARK  status: ('A' for Active; 'I' for Inactive)
REMARK    1  A    between atoms: C3_4  and  C4_5 
REMARK    2  A    between atoms: C4_5  and  C5_7 
REMARK    3  A    between atoms: C5_7  and  C6_10 
REMARK    4  A    between atoms: C9_14  and  C10_15 
REMARK    5  A    between atoms: C10_15  and  N2_16 
REMARK    6  A    between atoms: C12_20  and  C13_21 
ROOT
HETATM    1  C1  UNL     1      92.032  93.608 -42.882  1.00  0.00     0.155 C 
HETATM    2  N1  UNL     1      91.370  94.052 -44.077  1.00  0.00    -0.362 N 
HETATM    3  C2  UNL     1      90.906  95.327 -44.029  1.00  0.00     0.105 A 
HETATM    4  C3  UNL     1      90.235  95.934 -45.096  1.00  0.00     0.028 A 
HETATM    5  C7  UNL     1      90.068  95.159 -46.215  1.00  0.00     0.018 A 
HETATM    6  C8  UNL     1      90.555  93.848 -46.241  1.00  0.00     0.028 A 
HETATM    7  C9  UNL     1      91.209  93.294 -45.166  1.00  0.00     0.029 A 
ENDROOT
BRANCH   7   8
HETATM    8  C10 UNL     1      91.702  91.927 -45.238  1.00  0.00     0.186 C 
BRANCH   8   9
HETATM    9  N2  UNL     1      91.639  91.340 -46.578  1.00  0.00    -0.345 N 
HETATM   10  C11 UNL     1      92.639  90.843 -47.315  1.00  0.00     0.183 A 
HETATM   11  N3  UNL     1      92.176  90.409 -48.474  1.00  0.00    -0.349 N 
HETATM   12  C12 UNL     1      90.817  90.607 -48.554  1.00  0.00     0.077 A 
ATOM     13  H3  UNL     1      92.746  89.987 -49.208  1.00  0.00     0.166 HD
HETATM   14  C17 UNL     1      90.522  91.190 -47.349  1.00  0.00     0.124 A 
BRANCH  12  15
HETATM   15  C13 UNL     1      89.975  90.251 -49.685  1.00  0.00     0.079 A 
HETATM   16  C14 UNL     1      89.110  89.156 -49.762  1.00  0.00     0.121 A 
HETATM   17  N4  UNL     1      88.493  89.138 -50.953  1.00  0.00    -0.360 N 
HETATM   18  C15 UNL     1      88.952  90.202 -51.630  1.00  0.00     0.182 A 
ATOM     19  H4  UNL     1      87.811  88.453 -51.280  1.00  0.00     0.166 HD
HETATM   20  N5  UNL     1      89.853  90.870 -50.845  1.00  0.00    -0.344 N 
HETATM   21  C16 UNL     1      90.529  92.064 -51.283  1.00  0.00     0.157 C 
ENDBRANCH  12  15
ENDBRANCH   8   9
ENDBRANCH   7   8
BRANCH   4  22
HETATM   22  C4  UNL     1      89.779  97.324 -44.977  1.00  0.00     0.191 C 
HETATM   23  O1  UNL     1      88.621  97.581 -45.475  1.00  0.00    -0.290 OA
BRANCH  22  24
HETATM   24  C5  UNL     1      90.485  98.434 -44.368  1.00  0.00     0.149 C 
HETATM   25 BR1  UNL     1      90.911  97.990 -42.502  1.00  0.00    -0.063 Br
HETATM   26 BR2  UNL     1      92.188  98.726 -45.277  1.00  0.00    -0.063 Br
BRANCH  24  27
HETATM   27  C6  UNL     1      89.639  99.670 -44.375  1.00  0.00     0.126 C 
HETATM   28 BR3  UNL     1      88.806  99.876 -42.621  1.00  0.00    -0.093 Br
ENDBRANCH  24  27
ENDBRANCH  22  24
ENDBRANCH   4  22
TORSDOF 6
ENDMDL
