MODEL 1
REMARK VINA RESULT: -6.276549703      0.000      0.000
REMARK  8 active torsions:
REMARK  status: ('A' for Active; 'I' for Inactive)
REMARK       I    between atoms: C2_2  and  N1_4 
REMARK    1  A    between atoms: N1_4  and  C3_6 
REMARK    2  A    between atoms: N2_10  and  C7_12 
REMARK    3  A    between atoms: C11_17  and  C12_18 
REMARK    4  A    between atoms: C12_18  and  C13_19 
REMARK    5  A    between atoms: C14_20  and  C15_21 
REMARK    6  A    between atoms: C15_21  and  C16_22 
REMARK    7  A    between atoms: C16_22  and  N3_23 
REMARK    8  A    between atoms: N3_23  and  C17_25 
ROOT
HETATM    1  C7  UNL     1      88.822 100.169 -43.796  1.00  0.00     0.197 C 
HETATM    2  C8  UNL     1      87.921 101.330 -43.381  1.00  0.00     0.035 C 
HETATM    3  C9  UNL     1      86.610 100.548 -43.126  1.00  0.00     0.018 C 
HETATM    4  C10 UNL     1      86.607  99.850 -44.539  1.00  0.00     0.064 C 
HETATM    5 BR2  UNL     1      86.291 101.310 -45.724  1.00  0.00    -0.091 Br
HETATM    6  C11 UNL     1      87.991  99.255 -44.566  1.00  0.00     0.034 C 
ENDROOT
BRANCH   6   7
HETATM    7  C12 UNL     1      88.372  98.729 -45.870  1.00  0.00     0.034 C 
BRANCH   7   8
HETATM    8  C13 UNL     1      88.272  97.241 -45.859  1.00  0.00    -0.030 C 
HETATM    9  C14 UNL     1      89.230  96.367 -45.850  1.00  0.00    -0.029 C 
BRANCH   9  10
HETATM   10  C15 UNL     1      90.683  96.569 -45.842  1.00  0.00     0.047 C 
BRANCH  10  11
HETATM   11  C16 UNL     1      91.451  95.248 -45.680  1.00  0.00     0.142 C 
BRANCH  11  12
HETATM   12  N3  UNL     1      90.877  94.439 -44.654  1.00  0.00    -0.226 N 
ATOM     13  H3  UNL     1      89.983  93.997 -44.870  1.00  0.00     0.177 HD
BRANCH  12  14
HETATM   14  C17 UNL     1      91.363  94.207 -43.489  1.00  0.00     0.680 A 
HETATM   15  N4  UNL     1      91.727  93.014 -43.016  1.00  0.00    -0.202 N 
HETATM   16  C18 UNL     1      92.231  92.842 -41.773  1.00  0.00     0.111 A 
ATOM     17  H4  UNL     1      91.619  92.196 -43.617  1.00  0.00     0.183 HD
HETATM   18  C19 UNL     1      92.383  93.933 -40.945  1.00  0.00     0.092 A 
HETATM   19  C20 UNL     1      92.004  95.189 -41.429  1.00  0.00     0.260 A 
HETATM   20  O2  UNL     1      92.139  96.196 -40.677  1.00  0.00    -0.268 OA
HETATM   21  N5  UNL     1      91.517  95.272 -42.665  1.00  0.00    -0.156 N 
ATOM     22  H5  UNL     1      91.242  96.191 -43.012  1.00  0.00     0.187 HD
ENDBRANCH  12  14
ENDBRANCH  11  12
ENDBRANCH  10  11
ENDBRANCH   9  10
ENDBRANCH   7   8
ENDBRANCH   6   7
BRANCH   1  23
HETATM   23  N2  UNL     1      90.119 100.532 -44.198  1.00  0.00    -0.051 N 
HETATM   24  C5  UNL     1      90.995  99.382 -44.196  1.00  0.00     0.263 C 
HETATM   25  C4  UNL     1      91.353  99.082 -42.758  1.00  0.00     0.072 C 
HETATM   26 BR1  UNL     1      92.660  99.876 -45.081  1.00  0.00    -0.060 Br
HETATM   27  C3  UNL     1      91.046 100.365 -41.995  1.00  0.00     0.113 C 
HETATM   28  C21 UNL     1      90.715 101.301 -43.091  1.00  0.00     0.264 C 
HETATM   29  C6  UNL     1      90.287 101.361 -45.346  1.00  0.00     0.274 C 
BRANCH  27  30
HETATM   30  N1  UNL     1      92.277 100.859 -41.365  1.00  0.00    -0.355 N 
HETATM   31  C2  UNL     1      92.167 101.625 -40.184  1.00  0.00     0.213 C 
HETATM   32  C1  UNL     1      93.396 102.148 -39.510  1.00  0.00     0.117 C 
HETATM   33  O1  UNL     1      91.055 101.898 -39.658  1.00  0.00    -0.274 OA
ATOM     34  H1  UNL     1      93.190 100.653 -41.771  1.00  0.00     0.162 HD
ENDBRANCH  27  30
ENDBRANCH   1  23
TORSDOF 8
ENDMDL
MODEL 2
REMARK VINA RESULT: -5.982351941      1.425      1.474
REMARK  8 active torsions:
REMARK  status: ('A' for Active; 'I' for Inactive)
REMARK       I    between atoms: C2_2  and  N1_4 
REMARK    1  A    between atoms: N1_4  and  C3_6 
REMARK    2  A    between atoms: N2_10  and  C7_12 
REMARK    3  A    between atoms: C11_17  and  C12_18 
REMARK    4  A    between atoms: C12_18  and  C13_19 
REMARK    5  A    between atoms: C14_20  and  C15_21 
REMARK    6  A    between atoms: C15_21  and  C16_22 
REMARK    7  A    between atoms: C16_22  and  N3_23 
REMARK    8  A    between atoms: N3_23  and  C17_25 
ROOT
HETATM    1  C7  UNL     1      89.686 100.403 -44.049  1.00  0.00     0.197 C 
HETATM    2  C8  UNL     1      88.706 101.121 -43.126  1.00  0.00     0.035 C 
HETATM    3  C9  UNL     1      88.016  99.890 -42.490  1.00  0.00     0.018 C 
HETATM    4  C10 UNL     1      87.650  99.228 -43.872  1.00  0.00     0.064 C 
HETATM    5 BR2  UNL     1      86.348 100.429 -44.579  1.00  0.00    -0.091 Br
HETATM    6  C11 UNL     1      88.994  99.225 -44.551  1.00  0.00     0.034 C 
ENDROOT
BRANCH   6   7
HETATM    7  C12 UNL     1      88.931  98.873 -45.964  1.00  0.00     0.034 C 
BRANCH   7   8
HETATM    8  C13 UNL     1      88.638  97.417 -46.105  1.00  0.00    -0.030 C 
HETATM    9  C14 UNL     1      89.462  96.418 -46.051  1.00  0.00    -0.029 C 
BRANCH   9  10
HETATM   10  C15 UNL     1      90.913  96.411 -45.831  1.00  0.00     0.047 C 
BRANCH  10  11
HETATM   11  C16 UNL     1      91.470  94.986 -45.686  1.00  0.00     0.142 C 
BRANCH  11  12
HETATM   12  N3  UNL     1      90.860  94.301 -44.593  1.00  0.00    -0.226 N 
ATOM     13  H3  UNL     1      89.917  93.944 -44.750  1.00  0.00     0.177 HD
BRANCH  12  14
HETATM   14  C17 UNL     1      91.367  94.085 -43.434  1.00  0.00     0.680 A 
HETATM   15  N4  UNL     1      91.764  92.903 -42.961  1.00  0.00    -0.202 N 
HETATM   16  C18 UNL     1      92.290  92.747 -41.726  1.00  0.00     0.111 A 
ATOM     17  H4  UNL     1      91.665  92.080 -43.557  1.00  0.00     0.183 HD
HETATM   18  C19 UNL     1      92.430  93.846 -40.904  1.00  0.00     0.092 A 
HETATM   19  C20 UNL     1      92.017  95.091 -41.388  1.00  0.00     0.260 A 
HETATM   20  O2  UNL     1      92.141  96.104 -40.643  1.00  0.00    -0.268 OA
HETATM   21  N5  UNL     1      91.509  95.158 -42.617  1.00  0.00    -0.156 N 
ATOM     22  H5  UNL     1      91.210  96.069 -42.964  1.00  0.00     0.187 HD
ENDBRANCH  12  14
ENDBRANCH  11  12
ENDBRANCH  10  11
ENDBRANCH   9  10
ENDBRANCH   7   8
ENDBRANCH   6   7
BRANCH   1  23
HETATM   23  N2  UNL     1      90.452 101.241 -44.878  1.00  0.00    -0.051 N 
HETATM   24  C5  UNL     1      91.502 100.492 -45.532  1.00  0.00     0.263 C 
HETATM   25  C4  UNL     1      92.589 100.242 -44.512  1.00  0.00     0.072 C 
HETATM   26 BR1  UNL     1      92.295 101.621 -46.910  1.00  0.00    -0.060 Br
HETATM   27  C3  UNL     1      92.346 101.268 -43.411  1.00  0.00     0.113 C 
HETATM   28  C21 UNL     1      91.267 102.094 -43.995  1.00  0.00     0.264 C 
HETATM   29  C6  UNL     1      89.788 102.153 -45.751  1.00  0.00     0.274 C 
BRANCH  27  30
HETATM   30  N1  UNL     1      93.527 102.131 -43.285  1.00  0.00    -0.355 N 
HETATM   31  C2  UNL     1      93.781 102.744 -42.039  1.00  0.00     0.213 C 
HETATM   32  C1  UNL     1      94.974 103.631 -41.867  1.00  0.00     0.117 C 
HETATM   33  O1  UNL     1      93.032 102.578 -41.039  1.00  0.00    -0.274 OA
ATOM     34  H1  UNL     1      94.150 102.283 -44.079  1.00  0.00     0.162 HD
ENDBRANCH  27  30
ENDBRANCH   1  23
TORSDOF 8
ENDMDL
MODEL 3
REMARK VINA RESULT: -5.938783511      4.015      5.079
REMARK  8 active torsions:
REMARK  status: ('A' for Active; 'I' for Inactive)
REMARK       I    between atoms: C2_2  and  N1_4 
REMARK    1  A    between atoms: N1_4  and  C3_6 
REMARK    2  A    between atoms: N2_10  and  C7_12 
REMARK    3  A    between atoms: C11_17  and  C12_18 
REMARK    4  A    between atoms: C12_18  and  C13_19 
REMARK    5  A    between atoms: C14_20  and  C15_21 
REMARK    6  A    between atoms: C15_21  and  C16_22 
REMARK    7  A    between atoms: C16_22  and  N3_23 
REMARK    8  A    between atoms: N3_23  and  C17_25 
ROOT
HETATM    1  C7  UNL     1      89.074  98.211 -45.003  1.00  0.00     0.197 C 
HETATM    2  C8  UNL     1      87.815  98.770 -45.660  1.00  0.00     0.035 C 
HETATM    3  C9  UNL     1      86.912  97.516 -45.572  1.00  0.00     0.018 C 
HETATM    4  C10 UNL     1      87.957  96.563 -46.265  1.00  0.00     0.064 C 
HETATM    5 BR2  UNL     1      88.004  97.226 -48.053  1.00  0.00    -0.091 Br
HETATM    6  C11 UNL     1      89.181  96.822 -45.425  1.00  0.00     0.034 C 
ENDROOT
BRANCH   6   7
HETATM    7  C12 UNL     1      90.398  96.243 -45.976  1.00  0.00     0.034 C 
BRANCH   7   8
HETATM    8  C13 UNL     1      90.967  95.260 -45.009  1.00  0.00    -0.030 C 
HETATM    9  C14 UNL     1      91.279  94.017 -45.209  1.00  0.00    -0.029 C 
BRANCH   9  10
HETATM   10  C15 UNL     1      91.176  93.210 -46.430  1.00  0.00     0.047 C 
BRANCH  10  11
HETATM   11  C16 UNL     1      91.876  91.850 -46.287  1.00  0.00     0.142 C 
BRANCH  11  12
HETATM   12  N3  UNL     1      92.195  91.296 -47.564  1.00  0.00    -0.226 N 
ATOM     13  H3  UNL     1      93.187  91.210 -47.787  1.00  0.00     0.177 HD
BRANCH  12  14
HETATM   14  C17 UNL     1      91.370  90.894 -48.461  1.00  0.00     0.680 A 
HETATM   15  N4  UNL     1      90.633  89.783 -48.405  1.00  0.00    -0.202 N 
HETATM   16  C18 UNL     1      89.783  89.419 -49.391  1.00  0.00     0.111 A 
ATOM     17  H4  UNL     1      90.715  89.183 -47.584  1.00  0.00     0.183 HD
HETATM   18  C19 UNL     1      89.659  90.215 -50.510  1.00  0.00     0.092 A 
HETATM   19  C20 UNL     1      90.427  91.381 -50.580  1.00  0.00     0.260 A 
HETATM   20  O2  UNL     1      90.321  92.118 -51.602  1.00  0.00    -0.268 OA
HETATM   21  N5  UNL     1      91.240  91.668 -49.566  1.00  0.00    -0.156 N 
ATOM     22  H5  UNL     1      91.797  92.520 -49.624  1.00  0.00     0.187 HD
ENDBRANCH  12  14
ENDBRANCH  11  12
ENDBRANCH  10  11
ENDBRANCH   9  10
ENDBRANCH   7   8
ENDBRANCH   6   7
BRANCH   1  23
HETATM   23  N2  UNL     1      90.177  99.083 -44.984  1.00  0.00    -0.051 N 
HETATM   24  C5  UNL     1      91.287  98.488 -44.273  1.00  0.00     0.263 C 
HETATM   25  C4  UNL     1      90.986  98.582 -42.795  1.00  0.00     0.072 C 
HETATM   26 BR1  UNL     1      92.871  99.583 -44.579  1.00  0.00    -0.060 Br
HETATM   27  C3  UNL     1      89.916  99.661 -42.674  1.00  0.00     0.113 C 
HETATM   28  C21 UNL     1      89.846 100.180 -44.057  1.00  0.00     0.264 C 
HETATM   29  C6  UNL     1      90.571  99.734 -46.190  1.00  0.00     0.274 C 
BRANCH  27  30
HETATM   30  N1  UNL     1      90.420 100.752 -41.831  1.00  0.00    -0.355 N 
HETATM   31  C2  UNL     1      89.531 101.786 -41.466  1.00  0.00     0.213 C 
HETATM   32  C1  UNL     1      90.004 102.916 -40.607  1.00  0.00     0.117 C 
HETATM   33  O1  UNL     1      88.327 101.803 -41.837  1.00  0.00    -0.274 OA
ATOM     34  H1  UNL     1      91.391 100.762 -41.517  1.00  0.00     0.162 HD
ENDBRANCH  27  30
ENDBRANCH   1  23
TORSDOF 8
ENDMDL
MODEL 4
REMARK VINA RESULT: -5.918506734      2.904      4.530
REMARK  8 active torsions:
REMARK  status: ('A' for Active; 'I' for Inactive)
REMARK       I    between atoms: C2_2  and  N1_4 
REMARK    1  A    between atoms: N1_4  and  C3_6 
REMARK    2  A    between atoms: N2_10  and  C7_12 
REMARK    3  A    between atoms: C11_17  and  C12_18 
REMARK    4  A    between atoms: C12_18  and  C13_19 
REMARK    5  A    between atoms: C14_20  and  C15_21 
REMARK    6  A    between atoms: C15_21  and  C16_22 
REMARK    7  A    between atoms: C16_22  and  N3_23 
REMARK    8  A    between atoms: N3_23  and  C17_25 
ROOT
HETATM    1  C7  UNL     1      87.041  99.232 -44.997  1.00  0.00     0.197 C 
HETATM    2  C8  UNL     1      85.865  98.665 -45.788  1.00  0.00     0.035 C 
HETATM    3  C9  UNL     1      86.239  97.164 -45.748  1.00  0.00     0.018 C 
HETATM    4  C10 UNL     1      87.694  97.386 -46.310  1.00  0.00     0.064 C 
HETATM    5 BR2  UNL     1      87.368  97.944 -48.104  1.00  0.00    -0.091 Br
HETATM    6  C11 UNL     1      88.207  98.441 -45.365  1.00  0.00     0.034 C 
ENDROOT
BRANCH   6   7
HETATM    7  C12 UNL     1      89.474  99.028 -45.780  1.00  0.00     0.034 C 
BRANCH   7   8
HETATM    8  C13 UNL     1      90.594  98.117 -45.403  1.00  0.00    -0.030 C 
HETATM    9  C14 UNL     1      91.103  97.905 -44.229  1.00  0.00    -0.029 C 
BRANCH   9  10
HETATM   10  C15 UNL     1      90.736  98.482 -42.931  1.00  0.00     0.047 C 
BRANCH  10  11
HETATM   11  C16 UNL     1      91.624  97.958 -41.792  1.00  0.00     0.142 C 
BRANCH  11  12
HETATM   12  N3  UNL     1      91.196  96.668 -41.354  1.00  0.00    -0.226 N 
ATOM     13  H3  UNL     1      90.361  96.642 -40.767  1.00  0.00     0.177 HD
BRANCH  12  14
HETATM   14  C17 UNL     1      91.746  95.539 -41.617  1.00  0.00     0.680 A 
HETATM   15  N4  UNL     1      92.647  94.912 -40.860  1.00  0.00    -0.202 N 
HETATM   16  C18 UNL     1      93.188  93.721 -41.201  1.00  0.00     0.111 A 
ATOM     17  H4  UNL     1      92.941  95.350 -39.986  1.00  0.00     0.183 HD
HETATM   18  C19 UNL     1      92.806  93.114 -42.378  1.00  0.00     0.092 A 
HETATM   19  C20 UNL     1      91.863  93.762 -43.181  1.00  0.00     0.260 A 
HETATM   20  O2  UNL     1      91.506  93.213 -44.263  1.00  0.00    -0.268 OA
HETATM   21  N5  UNL     1      91.378  94.932 -42.773  1.00  0.00    -0.156 N 
ATOM     22  H5  UNL     1      90.691  95.400 -43.363  1.00  0.00     0.187 HD
ENDBRANCH  12  14
ENDBRANCH  11  12
ENDBRANCH  10  11
ENDBRANCH   9  10
ENDBRANCH   7   8
ENDBRANCH   6   7
BRANCH   1  23
HETATM   23  N2  UNL     1      87.078 100.634 -44.899  1.00  0.00    -0.051 N 
HETATM   24  C5  UNL     1      88.042 101.052 -43.907  1.00  0.00     0.263 C 
HETATM   25  C4  UNL     1      87.429 100.815 -42.546  1.00  0.00     0.072 C 
HETATM   26 BR1  UNL     1      88.291 102.979 -44.066  1.00  0.00    -0.060 Br
HETATM   27  C3  UNL     1      85.930 100.702 -42.798  1.00  0.00     0.113 C 
HETATM   28  C21 UNL     1      85.833 101.053 -44.231  1.00  0.00     0.264 C 
HETATM   29  C6  UNL     1      87.129 101.413 -46.093  1.00  0.00     0.274 C 
BRANCH  27  30
HETATM   30  N1  UNL     1      85.232 101.755 -42.049  1.00  0.00    -0.355 N 
HETATM   31  C2  UNL     1      83.870 101.563 -41.732  1.00  0.00     0.213 C 
HETATM   32  C1  UNL     1      83.121 102.611 -40.970  1.00  0.00     0.117 C 
HETATM   33  O1  UNL     1      83.238 100.526 -42.068  1.00  0.00    -0.274 OA
ATOM     34  H1  UNL     1      85.721 102.604 -41.765  1.00  0.00     0.162 HD
ENDBRANCH  27  30
ENDBRANCH   1  23
TORSDOF 8
ENDMDL
MODEL 5
REMARK VINA RESULT: -5.884046566      3.258      5.884
REMARK  8 active torsions:
REMARK  status: ('A' for Active; 'I' for Inactive)
REMARK       I    between atoms: C2_2  and  N1_4 
REMARK    1  A    between atoms: N1_4  and  C3_6 
REMARK    2  A    between atoms: N2_10  and  C7_12 
REMARK    3  A    between atoms: C11_17  and  C12_18 
REMARK    4  A    between atoms: C12_18  and  C13_19 
REMARK    5  A    between atoms: C14_20  and  C15_21 
REMARK    6  A    between atoms: C15_21  and  C16_22 
REMARK    7  A    between atoms: C16_22  and  N3_23 
REMARK    8  A    between atoms: N3_23  and  C17_25 
ROOT
HETATM    1  C7  UNL     1      87.060  99.044 -45.025  1.00  0.00     0.197 C 
HETATM    2  C8  UNL     1      85.892  98.682 -45.938  1.00  0.00     0.035 C 
HETATM    3  C9  UNL     1      86.053  97.143 -45.949  1.00  0.00     0.018 C 
HETATM    4  C10 UNL     1      87.568  97.181 -46.377  1.00  0.00     0.064 C 
HETATM    5 BR2  UNL     1      87.481  97.853 -48.160  1.00  0.00    -0.091 Br
HETATM    6  C11 UNL     1      88.135  98.113 -45.339  1.00  0.00     0.034 C 
ENDROOT
BRANCH   6   7
HETATM    7  C12 UNL     1      89.502  98.532 -45.617  1.00  0.00     0.034 C 
BRANCH   7   8
HETATM    8  C13 UNL     1      90.453  97.485 -45.143  1.00  0.00    -0.030 C 
HETATM    9  C14 UNL     1      90.939  97.314 -43.953  1.00  0.00    -0.029 C 
BRANCH   9  10
HETATM   10  C15 UNL     1      90.704  98.082 -42.725  1.00  0.00     0.047 C 
BRANCH  10  11
HETATM   11  C16 UNL     1      91.558  99.358 -42.666  1.00  0.00     0.142 C 
BRANCH  11  12
HETATM   12  N3  UNL     1      92.027  99.605 -41.341  1.00  0.00    -0.226 N 
ATOM     13  H3  UNL     1      92.489  98.827 -40.869  1.00  0.00     0.177 HD
BRANCH  12  14
HETATM   14  C17 UNL     1      91.930 100.700 -40.678  1.00  0.00     0.680 A 
HETATM   15  N4  UNL     1      90.805 101.378 -40.447  1.00  0.00    -0.202 N 
HETATM   16  C18 UNL     1      90.777 102.530 -39.739  1.00  0.00     0.111 A 
ATOM     17  H4  UNL     1      89.929 101.013 -40.821  1.00  0.00     0.183 HD
HETATM   18  C19 UNL     1      91.951 103.041 -39.227  1.00  0.00     0.092 A 
HETATM   19  C20 UNL     1      93.137 102.340 -39.464  1.00  0.00     0.260 A 
HETATM   20  O2  UNL     1      94.218 102.800 -38.998  1.00  0.00    -0.268 OA
HETATM   21  N5  UNL     1      93.078 101.213 -40.170  1.00  0.00    -0.156 N 
ATOM     22  H5  UNL     1      93.946 100.706 -40.338  1.00  0.00     0.187 HD
ENDBRANCH  12  14
ENDBRANCH  11  12
ENDBRANCH  10  11
ENDBRANCH   9  10
ENDBRANCH   7   8
ENDBRANCH   6   7
BRANCH   1  23
HETATM   23  N2  UNL     1      87.280 100.421 -44.850  1.00  0.00    -0.051 N 
HETATM   24  C5  UNL     1      88.212 100.658 -43.771  1.00  0.00     0.263 C 
HETATM   25  C4  UNL     1      87.470 100.450 -42.471  1.00  0.00     0.072 C 
HETATM   26 BR1  UNL     1      88.732 102.536 -43.808  1.00  0.00    -0.060 Br
HETATM   27  C3  UNL     1      85.993 100.558 -42.834  1.00  0.00     0.113 C 
HETATM   28  C21 UNL     1      86.056 100.981 -44.249  1.00  0.00     0.264 C 
HETATM   29  C6  UNL     1      87.528 101.238 -45.993  1.00  0.00     0.274 C 
BRANCH  27  30
HETATM   30  N1  UNL     1      85.389 101.664 -42.081  1.00  0.00    -0.355 N 
HETATM   31  C2  UNL     1      84.006 101.613 -41.805  1.00  0.00     0.213 C 
HETATM   32  C1  UNL     1      83.350 102.720 -41.041  1.00  0.00     0.117 C 
HETATM   33  O1  UNL     1      83.277 100.657 -42.183  1.00  0.00    -0.274 OA
ATOM     34  H1  UNL     1      85.957 102.451 -41.764  1.00  0.00     0.162 HD
ENDBRANCH  27  30
ENDBRANCH   1  23
TORSDOF 8
ENDMDL
