MODEL 1
REMARK VINA RESULT: -4.859982371      0.000      0.000
REMARK  1 active torsions:
REMARK  status: ('A' for Active; 'I' for Inactive)
REMARK    1  A    between atoms: O1_1  and  C1_3 
ROOT
HETATM    1  C1  UNL     1      28.292 -20.573  -0.117  1.00  0.00     0.288 C 
HETATM    2  O2  UNL     1      29.587 -20.000  -0.133  1.00  0.00    -0.358 OA
HETATM    3  C2  UNL     1      30.214 -20.566   0.990  1.00  0.00     0.188 C 
HETATM    4  C3  UNL     1      29.528 -20.265   2.268  1.00  0.00     0.150 C 
HETATM    5  N1  UNL     1      28.113 -20.186   2.226  1.00  0.00    -0.160 NA
HETATM    6  O3  UNL     1      27.481 -21.370   2.147  1.00  0.00    -0.225 OA
HETATM    7  S1  UNL     1      26.061 -20.572   1.573  1.00  0.00     0.040 SA
HETATM    8  C4  UNL     1      27.556 -19.799   0.962  1.00  0.00     0.233 C 
ENDROOT
BRANCH   1   9
HETATM    9  O1  UNL     1      27.679 -20.524  -1.340  1.00  0.00    -0.369 OA
ATOM     10  H1  UNL     1      26.751 -20.726  -1.293  1.00  0.00     0.212 HD
ENDBRANCH   1   9
TORSDOF 1
ENDMDL
MODEL 2
REMARK VINA RESULT: -4.605769237      2.088      2.739
REMARK  1 active torsions:
REMARK  status: ('A' for Active; 'I' for Inactive)
REMARK    1  A    between atoms: O1_1  and  C1_3 
ROOT
HETATM    1  C1  UNL     1      28.101 -20.413  -0.158  1.00  0.00     0.288 C 
HETATM    2  O2  UNL     1      27.202 -20.798   0.866  1.00  0.00    -0.358 OA
HETATM    3  C2  UNL     1      27.657 -20.089   1.991  1.00  0.00     0.188 C 
HETATM    4  C3  UNL     1      29.051 -20.414   2.374  1.00  0.00     0.150 C 
HETATM    5  N1  UNL     1      29.951 -20.694   1.315  1.00  0.00    -0.160 NA
HETATM    6  O3  UNL     1      30.374 -19.617   0.630  1.00  0.00    -0.225 OA
HETATM    7  S1  UNL     1      30.841 -20.637  -0.683  1.00  0.00     0.040 SA
HETATM    8  C4  UNL     1      29.353 -21.224   0.123  1.00  0.00     0.233 C 
ENDROOT
BRANCH   1   9
HETATM    9  O1  UNL     1      27.589 -20.614  -1.412  1.00  0.00    -0.369 OA
ATOM     10  H1  UNL     1      27.751 -19.881  -1.995  1.00  0.00     0.212 HD
ENDBRANCH   1   9
TORSDOF 1
ENDMDL
MODEL 3
REMARK VINA RESULT: -4.564371225      1.648      2.390
REMARK  1 active torsions:
REMARK  status: ('A' for Active; 'I' for Inactive)
REMARK    1  A    between atoms: O1_1  and  C1_3 
ROOT
HETATM    1  C1  UNL     1      28.983 -19.840   1.773  1.00  0.00     0.288 C 
HETATM    2  O2  UNL     1      30.256 -20.421   1.557  1.00  0.00    -0.358 OA
HETATM    3  C2  UNL     1      30.264 -20.701   0.180  1.00  0.00     0.188 C 
HETATM    4  C3  UNL     1      29.190 -21.629  -0.244  1.00  0.00     0.150 C 
HETATM    5  N1  UNL     1      27.951 -21.521   0.439  1.00  0.00    -0.160 NA
HETATM    6  O3  UNL     1      27.200 -20.465   0.085  1.00  0.00    -0.225 OA
HETATM    7  S1  UNL     1      26.303 -20.614   1.553  1.00  0.00     0.040 SA
HETATM    8  C4  UNL     1      28.031 -21.022   1.781  1.00  0.00     0.233 C 
ENDROOT
BRANCH   1   9
HETATM    9  O1  UNL     1      28.933 -19.090   2.917  1.00  0.00    -0.369 OA
ATOM     10  H1  UNL     1      28.045 -18.945   3.222  1.00  0.00     0.212 HD
ENDBRANCH   1   9
TORSDOF 1
ENDMDL
MODEL 4
REMARK VINA RESULT: -4.391336651      2.131      2.681
REMARK  1 active torsions:
REMARK  status: ('A' for Active; 'I' for Inactive)
REMARK    1  A    between atoms: O1_1  and  C1_3 
ROOT
HETATM    1  C1  UNL     1      29.063 -20.666  -0.050  1.00  0.00     0.288 C 
HETATM    2  O2  UNL     1      27.732 -20.477  -0.496  1.00  0.00    -0.358 OA
HETATM    3  C2  UNL     1      27.023 -20.193   0.685  1.00  0.00     0.188 C 
HETATM    4  C3  UNL     1      27.085 -21.277   1.691  1.00  0.00     0.150 C 
HETATM    5  N1  UNL     1      28.300 -22.006   1.766  1.00  0.00    -0.160 NA
HETATM    6  O3  UNL     1      29.310 -21.362   2.374  1.00  0.00    -0.225 OA
HETATM    7  S1  UNL     1      30.440 -22.434   1.627  1.00  0.00     0.040 SA
HETATM    8  C4  UNL     1      29.059 -22.061   0.550  1.00  0.00     0.233 C 
ENDROOT
BRANCH   1   9
HETATM    9  O1  UNL     1      29.982 -20.503  -1.050  1.00  0.00    -0.369 OA
ATOM     10  H1  UNL     1      30.250 -21.328  -1.439  1.00  0.00     0.212 HD
ENDBRANCH   1   9
TORSDOF 1
ENDMDL
MODEL 5
REMARK VINA RESULT: -4.294831830      2.376      3.206
REMARK  1 active torsions:
REMARK  status: ('A' for Active; 'I' for Inactive)
REMARK    1  A    between atoms: O1_1  and  C1_3 
ROOT
HETATM    1  C1  UNL     1      27.817 -22.359   1.334  1.00  0.00     0.288 C 
HETATM    2  O2  UNL     1      26.731 -21.735   1.994  1.00  0.00    -0.358 OA
HETATM    3  C2  UNL     1      26.875 -20.377   1.662  1.00  0.00     0.188 C 
HETATM    4  C3  UNL     1      28.160 -19.790   2.107  1.00  0.00     0.150 C 
HETATM    5  N1  UNL     1      29.294 -20.641   2.071  1.00  0.00    -0.160 NA
HETATM    6  O3  UNL     1      29.800 -20.859   0.845  1.00  0.00    -0.225 OA
HETATM    7  S1  UNL     1      30.612 -22.265   1.432  1.00  0.00     0.040 SA
HETATM    8  C4  UNL     1      29.015 -22.042   2.210  1.00  0.00     0.233 C 
ENDROOT
BRANCH   1   9
HETATM    9  O1  UNL     1      27.618 -23.700   1.143  1.00  0.00    -0.369 OA
ATOM     10  H1  UNL     1      28.127 -24.045   0.419  1.00  0.00     0.212 HD
ENDBRANCH   1   9
TORSDOF 1
ENDMDL
