MODEL 1
REMARK VINA RESULT: -6.960843067      0.000      0.000
REMARK  9 active torsions:
REMARK  status: ('A' for Active; 'I' for Inactive)
REMARK    1  A    between atoms: C6_6  and  C7_7 
REMARK    2  A    between atoms: C7_7  and  C8_8 
REMARK    3  A    between atoms: C8_8  and  C9_9 
REMARK    4  A    between atoms: C9_9  and  C10_10 
REMARK    5  A    between atoms: C10_10  and  S1_11 
REMARK    6  A    between atoms: S1_11  and  C11_12 
REMARK    7  A    between atoms: C11_12  and  N1_14 
REMARK    8  A    between atoms: N1_14  and  C12_16 
REMARK    9  A    between atoms: C12_16  and  C13_17 
ROOT
HETATM    1  S1  UNL     1      16.029  -7.964   3.523  1.00  0.00    -0.101 SA
ENDROOT
BRANCH   1   2
HETATM    2  C10 UNL     1      16.408  -7.729   1.769  1.00  0.00     0.082 C 
BRANCH   2   3
HETATM    3  C9  UNL     1      17.768  -7.165   1.544  1.00  0.00     0.010 C 
BRANCH   3   4
HETATM    4  C8  UNL     1      17.978  -6.656   0.140  1.00  0.00     0.001 C 
BRANCH   4   5
HETATM    5  C7  UNL     1      19.428  -6.556  -0.228  1.00  0.00     0.005 C 
BRANCH   5   6
HETATM    6  C6  UNL     1      20.018  -7.891  -0.616  1.00  0.00    -0.014 C 
HETATM    7  C5  UNL     1      19.646  -8.308  -2.001  1.00  0.00     0.005 C 
HETATM    8  C4  UNL     1      20.243  -7.452  -3.080  1.00  0.00     0.001 C 
HETATM    9  C3  UNL     1      21.766  -7.571  -2.936  1.00  0.00     0.004 C 
HETATM   10  C2  UNL     1      22.108  -6.950  -1.603  1.00  0.00    -0.018 C 
HETATM   11  C1  UNL     1      23.600  -6.829  -1.403  1.00  0.00     0.010 C 
HETATM   12  C14 UNL     1      21.520  -7.782  -0.485  1.00  0.00     0.008 C 
ENDBRANCH   5   6
ENDBRANCH   4   5
ENDBRANCH   3   4
ENDBRANCH   2   3
ENDBRANCH   1   2
BRANCH   1  13
HETATM   13  C11 UNL     1      14.986  -9.388   3.774  1.00  0.00     0.134 C 
HETATM   14  S2  UNL     1      13.401  -9.367   3.400  1.00  0.00    -0.053 SA
BRANCH  13  15
HETATM   15  N1  UNL     1      15.527 -10.580   4.313  1.00  0.00    -0.368 N 
ATOM     16  H1  UNL     1      16.362 -10.981   3.885  1.00  0.00     0.161 HD
BRANCH  15  17
HETATM   17  C12 UNL     1      14.933 -11.249   5.452  1.00  0.00     0.199 C 
BRANCH  17  18
HETATM   18  C13 UNL     1      15.390 -12.652   5.565  1.00  0.00     0.124 A 
HETATM   19  N2  UNL     1      16.179 -13.254   4.657  1.00  0.00    -0.272 N 
HETATM   20  N3  UNL     1      16.416 -14.500   5.029  1.00  0.00    -0.007 NA
ATOM     21  H2  UNL     1      16.539 -12.816   3.810  1.00  0.00     0.185 HD
HETATM   22  N4  UNL     1      15.772 -14.681   6.174  1.00  0.00    -0.007 NA
HETATM   23  N5  UNL     1      15.144 -13.559   6.507  1.00  0.00    -0.272 N 
ATOM     24  H5  UNL     1      14.573 -13.417   7.340  1.00  0.00     0.185 HD
ENDBRANCH  17  18
ENDBRANCH  15  17
ENDBRANCH  13  15
ENDBRANCH   1  13
TORSDOF 9
ENDMDL
MODEL 2
REMARK VINA RESULT: -6.869121698      3.072      4.493
REMARK  9 active torsions:
REMARK  status: ('A' for Active; 'I' for Inactive)
REMARK    1  A    between atoms: C6_6  and  C7_7 
REMARK    2  A    between atoms: C7_7  and  C8_8 
REMARK    3  A    between atoms: C8_8  and  C9_9 
REMARK    4  A    between atoms: C9_9  and  C10_10 
REMARK    5  A    between atoms: C10_10  and  S1_11 
REMARK    6  A    between atoms: S1_11  and  C11_12 
REMARK    7  A    between atoms: C11_12  and  N1_14 
REMARK    8  A    between atoms: N1_14  and  C12_16 
REMARK    9  A    between atoms: C12_16  and  C13_17 
ROOT
HETATM    1  S1  UNL     1      18.663  -6.791   0.553  1.00  0.00    -0.101 SA
ENDROOT
BRANCH   1   2
HETATM    2  C10 UNL     1      19.304  -7.774  -0.826  1.00  0.00     0.082 C 
BRANCH   2   3
HETATM    3  C9  UNL     1      20.696  -8.249  -0.598  1.00  0.00     0.010 C 
BRANCH   3   4
HETATM    4  C8  UNL     1      21.738  -7.188  -0.846  1.00  0.00     0.001 C 
BRANCH   4   5
HETATM    5  C7  UNL     1      22.418  -7.344  -2.173  1.00  0.00     0.005 C 
BRANCH   5   6
HETATM    6  C6  UNL     1      23.919  -7.219  -2.070  1.00  0.00    -0.014 C 
HETATM    7  C5  UNL     1      24.641  -8.347  -2.732  1.00  0.00     0.005 C 
HETATM    8  C4  UNL     1      24.499  -8.372  -4.226  1.00  0.00     0.001 C 
HETATM    9  C3  UNL     1      25.091  -7.054  -4.742  1.00  0.00     0.004 C 
HETATM   10  C2  UNL     1      24.201  -5.959  -4.206  1.00  0.00    -0.018 C 
HETATM   11  C1  UNL     1      24.556  -4.610  -4.783  1.00  0.00     0.010 C 
HETATM   12  C14 UNL     1      24.312  -5.902  -2.698  1.00  0.00     0.008 C 
ENDBRANCH   5   6
ENDBRANCH   4   5
ENDBRANCH   3   4
ENDBRANCH   2   3
ENDBRANCH   1   2
BRANCH   1  13
HETATM   13  C11 UNL     1      17.052  -7.360   1.060  1.00  0.00     0.134 C 
HETATM   14  S2  UNL     1      15.876  -7.681  -0.020  1.00  0.00    -0.053 SA
BRANCH  13  15
HETATM   15  N1  UNL     1      16.762  -7.545   2.434  1.00  0.00    -0.368 N 
ATOM     16  H1  UNL     1      17.153  -6.892   3.113  1.00  0.00     0.161 HD
BRANCH  15  17
HETATM   17  C12 UNL     1      15.929  -8.633   2.905  1.00  0.00     0.199 C 
BRANCH  17  18
HETATM   18  C13 UNL     1      15.569  -8.470   4.330  1.00  0.00     0.124 A 
HETATM   19  N2  UNL     1      16.283  -7.735   5.201  1.00  0.00    -0.272 N 
HETATM   20  N3  UNL     1      15.716  -7.780   6.393  1.00  0.00    -0.007 NA
ATOM     21  H2  UNL     1      17.135  -7.222   4.975  1.00  0.00     0.185 HD
HETATM   22  N4  UNL     1      14.642  -8.547   6.272  1.00  0.00    -0.007 NA
HETATM   23  N5  UNL     1      14.545  -8.972   5.016  1.00  0.00    -0.272 N 
ATOM     24  H5  UNL     1      13.813  -9.577   4.644  1.00  0.00     0.185 HD
ENDBRANCH  17  18
ENDBRANCH  15  17
ENDBRANCH  13  15
ENDBRANCH   1  13
TORSDOF 9
ENDMDL
MODEL 3
REMARK VINA RESULT: -6.828072116      3.122      3.989
REMARK  9 active torsions:
REMARK  status: ('A' for Active; 'I' for Inactive)
REMARK    1  A    between atoms: C6_6  and  C7_7 
REMARK    2  A    between atoms: C7_7  and  C8_8 
REMARK    3  A    between atoms: C8_8  and  C9_9 
REMARK    4  A    between atoms: C9_9  and  C10_10 
REMARK    5  A    between atoms: C10_10  and  S1_11 
REMARK    6  A    between atoms: S1_11  and  C11_12 
REMARK    7  A    between atoms: C11_12  and  N1_14 
REMARK    8  A    between atoms: N1_14  and  C12_16 
REMARK    9  A    between atoms: C12_16  and  C13_17 
ROOT
HETATM    1  S1  UNL     1      15.310  -8.110   0.262  1.00  0.00    -0.101 SA
ENDROOT
BRANCH   1   2
HETATM    2  C10 UNL     1      16.579  -8.377  -1.000  1.00  0.00     0.082 C 
BRANCH   2   3
HETATM    3  C9  UNL     1      17.918  -7.871  -0.588  1.00  0.00     0.010 C 
BRANCH   3   4
HETATM    4  C8  UNL     1      19.055  -8.741  -1.059  1.00  0.00     0.001 C 
BRANCH   4   5
HETATM    5  C7  UNL     1      20.394  -8.233  -0.615  1.00  0.00     0.005 C 
BRANCH   5   6
HETATM    6  C6  UNL     1      20.722  -6.881  -1.203  1.00  0.00    -0.014 C 
HETATM    7  C5  UNL     1      21.106  -5.876  -0.167  1.00  0.00     0.005 C 
HETATM    8  C4  UNL     1      22.409  -6.169   0.518  1.00  0.00     0.001 C 
HETATM    9  C3  UNL     1      23.485  -6.165  -0.575  1.00  0.00     0.004 C 
HETATM   10  C2  UNL     1      23.162  -7.328  -1.483  1.00  0.00    -0.018 C 
HETATM   11  C1  UNL     1      24.244  -7.563  -2.509  1.00  0.00     0.010 C 
HETATM   12  C14 UNL     1      21.849  -7.074  -2.192  1.00  0.00     0.008 C 
ENDBRANCH   5   6
ENDBRANCH   4   5
ENDBRANCH   3   4
ENDBRANCH   2   3
ENDBRANCH   1   2
BRANCH   1  13
HETATM   13  C11 UNL     1      15.535  -6.545   1.085  1.00  0.00     0.134 C 
HETATM   14  S2  UNL     1      15.029  -5.146   0.422  1.00  0.00    -0.053 SA
BRANCH  13  15
HETATM   15  N1  UNL     1      16.168  -6.491   2.351  1.00  0.00    -0.368 N 
ATOM     16  H1  UNL     1      16.228  -5.596   2.836  1.00  0.00     0.161 HD
BRANCH  15  17
HETATM   17  C12 UNL     1      16.735  -7.668   2.977  1.00  0.00     0.199 C 
BRANCH  17  18
HETATM   18  C13 UNL     1      16.048  -7.999   4.245  1.00  0.00     0.124 A 
HETATM   19  N2  UNL     1      14.933  -8.747   4.316  1.00  0.00    -0.272 N 
HETATM   20  N3  UNL     1      14.556  -8.868   5.576  1.00  0.00    -0.007 NA
ATOM     21  H2  UNL     1      14.450  -9.158   3.517  1.00  0.00     0.185 HD
HETATM   22  N4  UNL     1      15.437  -8.193   6.300  1.00  0.00    -0.007 NA
HETATM   23  N5  UNL     1      16.351  -7.660   5.496  1.00  0.00    -0.272 N 
ATOM     24  H5  UNL     1      17.145  -7.090   5.786  1.00  0.00     0.185 HD
ENDBRANCH  17  18
ENDBRANCH  15  17
ENDBRANCH  13  15
ENDBRANCH   1  13
TORSDOF 9
ENDMDL
MODEL 4
REMARK VINA RESULT: -6.769335471      2.712      3.028
REMARK  9 active torsions:
REMARK  status: ('A' for Active; 'I' for Inactive)
REMARK    1  A    between atoms: C6_6  and  C7_7 
REMARK    2  A    between atoms: C7_7  and  C8_8 
REMARK    3  A    between atoms: C8_8  and  C9_9 
REMARK    4  A    between atoms: C9_9  and  C10_10 
REMARK    5  A    between atoms: C10_10  and  S1_11 
REMARK    6  A    between atoms: S1_11  and  C11_12 
REMARK    7  A    between atoms: C11_12  and  N1_14 
REMARK    8  A    between atoms: N1_14  and  C12_16 
REMARK    9  A    between atoms: C12_16  and  C13_17 
ROOT
HETATM    1  S1  UNL     1      14.715  -7.610   0.721  1.00  0.00    -0.101 SA
ENDROOT
BRANCH   1   2
HETATM    2  C10 UNL     1      16.417  -8.186   0.507  1.00  0.00     0.082 C 
BRANCH   2   3
HETATM    3  C9  UNL     1      17.426  -7.172   0.922  1.00  0.00     0.010 C 
BRANCH   3   4
HETATM    4  C8  UNL     1      18.051  -6.442  -0.239  1.00  0.00     0.001 C 
BRANCH   4   5
HETATM    5  C7  UNL     1      19.549  -6.458  -0.193  1.00  0.00     0.005 C 
BRANCH   5   6
HETATM    6  C6  UNL     1      20.122  -7.814  -0.532  1.00  0.00    -0.014 C 
HETATM    7  C5  UNL     1      19.721  -8.290  -1.890  1.00  0.00     0.005 C 
HETATM    8  C4  UNL     1      20.305  -7.489  -3.017  1.00  0.00     0.001 C 
HETATM    9  C3  UNL     1      21.829  -7.614  -2.895  1.00  0.00     0.004 C 
HETATM   10  C2  UNL     1      22.201  -6.937  -1.598  1.00  0.00    -0.018 C 
HETATM   11  C1  UNL     1      23.697  -6.820  -1.430  1.00  0.00     0.010 C 
HETATM   12  C14 UNL     1      21.626  -7.712  -0.433  1.00  0.00     0.008 C 
ENDBRANCH   5   6
ENDBRANCH   4   5
ENDBRANCH   3   4
ENDBRANCH   2   3
ENDBRANCH   1   2
BRANCH   1  13
HETATM   13  C11 UNL     1      13.761  -8.756   1.698  1.00  0.00     0.134 C 
HETATM   14  S2  UNL     1      12.136  -8.683   1.763  1.00  0.00    -0.053 SA
BRANCH  13  15
HETATM   15  N1  UNL     1      14.413  -9.766   2.447  1.00  0.00    -0.368 N 
ATOM     16  H1  UNL     1      15.096 -10.363   1.981  1.00  0.00     0.161 HD
BRANCH  15  17
HETATM   17  C12 UNL     1      14.140  -9.977   3.854  1.00  0.00     0.199 C 
BRANCH  17  18
HETATM   18  C13 UNL     1      14.883  -9.023   4.706  1.00  0.00     0.124 A 
HETATM   19  N2  UNL     1      15.939  -8.307   4.279  1.00  0.00    -0.272 N 
HETATM   20  N3  UNL     1      16.389  -7.547   5.261  1.00  0.00    -0.007 NA
ATOM     21  H2  UNL     1      16.333  -8.346   3.339  1.00  0.00     0.185 HD
HETATM   22  N4  UNL     1      15.614  -7.786   6.310  1.00  0.00    -0.007 NA
HETATM   23  N5  UNL     1      14.693  -8.686   5.979  1.00  0.00    -0.272 N 
ATOM     24  H5  UNL     1      13.968  -9.053   6.594  1.00  0.00     0.185 HD
ENDBRANCH  17  18
ENDBRANCH  15  17
ENDBRANCH  13  15
ENDBRANCH   1  13
TORSDOF 9
ENDMDL
MODEL 5
REMARK VINA RESULT: -6.671244314      3.077      4.236
REMARK  9 active torsions:
REMARK  status: ('A' for Active; 'I' for Inactive)
REMARK    1  A    between atoms: C6_6  and  C7_7 
REMARK    2  A    between atoms: C7_7  and  C8_8 
REMARK    3  A    between atoms: C8_8  and  C9_9 
REMARK    4  A    between atoms: C9_9  and  C10_10 
REMARK    5  A    between atoms: C10_10  and  S1_11 
REMARK    6  A    between atoms: S1_11  and  C11_12 
REMARK    7  A    between atoms: C11_12  and  N1_14 
REMARK    8  A    between atoms: N1_14  and  C12_16 
REMARK    9  A    between atoms: C12_16  and  C13_17 
ROOT
HETATM    1  S1  UNL     1      17.138  -6.571  -0.043  1.00  0.00    -0.101 SA
ENDROOT
BRANCH   1   2
HETATM    2  C10 UNL     1      18.812  -6.762   0.618  1.00  0.00     0.082 C 
BRANCH   2   3
HETATM    3  C9  UNL     1      19.867  -6.507  -0.402  1.00  0.00     0.010 C 
BRANCH   3   4
HETATM    4  C8  UNL     1      20.874  -7.624  -0.510  1.00  0.00     0.001 C 
BRANCH   4   5
HETATM    5  C7  UNL     1      21.299  -7.884  -1.924  1.00  0.00     0.005 C 
BRANCH   5   6
HETATM    6  C6  UNL     1      22.192  -6.794  -2.467  1.00  0.00    -0.014 C 
HETATM    7  C5  UNL     1      23.536  -6.767  -1.815  1.00  0.00     0.005 C 
HETATM    8  C4  UNL     1      24.391  -7.961  -2.123  1.00  0.00     0.001 C 
HETATM    9  C3  UNL     1      24.596  -7.968  -3.644  1.00  0.00     0.004 C 
HETATM   10  C2  UNL     1      23.231  -8.201  -4.248  1.00  0.00    -0.018 C 
HETATM   11  C1  UNL     1      23.303  -8.415  -5.740  1.00  0.00     0.010 C 
HETATM   12  C14 UNL     1      22.334  -7.018  -3.955  1.00  0.00     0.008 C 
ENDBRANCH   5   6
ENDBRANCH   4   5
ENDBRANCH   3   4
ENDBRANCH   2   3
ENDBRANCH   1   2
BRANCH   1  13
HETATM   13  C11 UNL     1      15.940  -6.401   1.267  1.00  0.00     0.134 C 
HETATM   14  S2  UNL     1      14.420  -5.896   0.978  1.00  0.00    -0.053 SA
BRANCH  13  15
HETATM   15  N1  UNL     1      16.299  -6.706   2.602  1.00  0.00    -0.368 N 
ATOM     16  H1  UNL     1      16.472  -5.942   3.254  1.00  0.00     0.161 HD
BRANCH  15  17
HETATM   17  C12 UNL     1      16.428  -8.071   3.071  1.00  0.00     0.199 C 
BRANCH  17  18
HETATM   18  C13 UNL     1      15.729  -8.277   4.358  1.00  0.00     0.124 A 
HETATM   19  N2  UNL     1      16.180  -7.810   5.536  1.00  0.00    -0.272 N 
HETATM   20  N3  UNL     1      15.345  -8.151   6.501  1.00  0.00    -0.007 NA
ATOM     21  H2  UNL     1      17.037  -7.273   5.664  1.00  0.00     0.185 HD
HETATM   22  N4  UNL     1      14.366  -8.837   5.928  1.00  0.00    -0.007 NA
HETATM   23  N5  UNL     1      14.593  -8.919   4.621  1.00  0.00    -0.272 N 
ATOM     24  H5  UNL     1      13.999  -9.391   3.939  1.00  0.00     0.185 HD
ENDBRANCH  17  18
ENDBRANCH  15  17
ENDBRANCH  13  15
ENDBRANCH   1  13
TORSDOF 9
ENDMDL
