MODEL 1
REMARK VINA RESULT: -7.420388301      0.000      0.000
REMARK  7 active torsions:
REMARK  status: ('A' for Active; 'I' for Inactive)
REMARK    1  A    between atoms: C7_7  and  N1_8 
REMARK       I    between atoms: N1_8  and  C8_10 
REMARK    2  A    between atoms: C8_10  and  C9_12 
REMARK    3  A    between atoms: C9_12  and  O2_13 
REMARK    4  A    between atoms: O2_13  and  C10_14 
REMARK    5  A    between atoms: C10_14  and  C11_16 
REMARK    6  A    between atoms: C11_16  and  N2_17 
REMARK       I    between atoms: N2_17  and  C12_19 
REMARK    7  A    between atoms: C12_19  and  C13_21 
ROOT
HETATM    1  C10 UNL     1      35.022   5.858   6.995  1.00  0.00     0.277 C 
HETATM    2  O3  UNL     1      34.294   6.829   7.284  1.00  0.00    -0.263 OA
ENDROOT
BRANCH   1   3
HETATM    3  O2  UNL     1      36.374   6.155   6.744  1.00  0.00    -0.311 OA
BRANCH   3   4
HETATM    4  C9  UNL     1      37.234   6.418   7.809  1.00  0.00     0.281 C 
BRANCH   4   5
HETATM    5  C8  UNL     1      37.135   5.439   8.898  1.00  0.00     0.242 C 
HETATM    6  N1  UNL     1      37.496   4.074   8.744  1.00  0.00    -0.354 N 
ATOM      7  H1  UNL     1      37.837   3.766   7.834  1.00  0.00     0.162 HD
HETATM    8  O1  UNL     1      36.712   5.828  10.022  1.00  0.00    -0.271 OA
BRANCH   6   9
HETATM    9  C7  UNL     1      37.406   3.106   9.795  1.00  0.00     0.088 C 
HETATM   10  C2  UNL     1      38.701   2.864  10.484  1.00  0.00     0.004 C 
HETATM   11  C1  UNL     1      39.773   2.305   9.605  1.00  0.00     0.012 C 
HETATM   12  C3  UNL     1      38.522   1.958  11.661  1.00  0.00     0.006 C 
HETATM   13  C4  UNL     1      37.378   1.014  11.539  1.00  0.00     0.001 C 
HETATM   14  C5  UNL     1      37.044   0.639  10.122  1.00  0.00     0.002 C 
HETATM   15  C6  UNL     1      36.913   1.802   9.197  1.00  0.00     0.025 C 
ENDBRANCH   6   9
ENDBRANCH   4   5
ENDBRANCH   3   4
ENDBRANCH   1   3
BRANCH   1  16
HETATM   16  C11 UNL     1      34.553   4.454   6.908  1.00  0.00     0.233 C 
BRANCH  16  17
HETATM   17  N2  UNL     1      34.025   4.031   8.186  1.00  0.00    -0.351 N 
HETATM   18  C12 UNL     1      33.340   2.812   8.314  1.00  0.00     0.222 C 
HETATM   19  O4  UNL     1      33.175   2.082   7.305  1.00  0.00    -0.273 OA
ATOM     20  H2  UNL     1      34.152   4.625   9.005  1.00  0.00     0.163 HD
BRANCH  18  21
HETATM   21  C13 UNL     1      32.808   2.364   9.605  1.00  0.00     0.082 C 
HETATM   22  C14 UNL     1      33.814   2.518  10.761  1.00  0.00     0.019 C 
HETATM   23  C15 UNL     1      33.400   1.318  11.596  1.00  0.00    -0.013 C 
HETATM   24  C16 UNL     1      31.936   1.418  11.870  1.00  0.00     0.005 C 
HETATM   25  C19 UNL     1      33.407   0.263  10.475  1.00  0.00     0.010 C 
HETATM   26  C17 UNL     1      31.198   0.879  10.633  1.00  0.00     0.006 C 
HETATM   27  C18 UNL     1      32.338   0.954   9.622  1.00  0.00    -0.001 C 
ENDBRANCH  18  21
ENDBRANCH  16  17
ENDBRANCH   1  16
TORSDOF 7
ENDMDL
MODEL 2
REMARK VINA RESULT: -7.404446400      2.134      6.087
REMARK  7 active torsions:
REMARK  status: ('A' for Active; 'I' for Inactive)
REMARK    1  A    between atoms: C7_7  and  N1_8 
REMARK       I    between atoms: N1_8  and  C8_10 
REMARK    2  A    between atoms: C8_10  and  C9_12 
REMARK    3  A    between atoms: C9_12  and  O2_13 
REMARK    4  A    between atoms: O2_13  and  C10_14 
REMARK    5  A    between atoms: C10_14  and  C11_16 
REMARK    6  A    between atoms: C11_16  and  N2_17 
REMARK       I    between atoms: N2_17  and  C12_19 
REMARK    7  A    between atoms: C12_19  and  C13_21 
ROOT
HETATM    1  C10 UNL     1      39.214   3.488  10.855  1.00  0.00     0.277 C 
HETATM    2  O3  UNL     1      40.301   3.735  10.295  1.00  0.00    -0.263 OA
ENDROOT
BRANCH   1   3
HETATM    3  O2  UNL     1      38.851   2.130  10.925  1.00  0.00    -0.311 OA
BRANCH   3   4
HETATM    4  C9  UNL     1      37.900   1.622  10.042  1.00  0.00     0.281 C 
BRANCH   4   5
HETATM    5  C8  UNL     1      36.664   1.184  10.699  1.00  0.00     0.242 C 
HETATM    6  N1  UNL     1      35.371   1.530  10.224  1.00  0.00    -0.354 N 
ATOM      7  H1  UNL     1      35.305   2.110   9.388  1.00  0.00     0.162 HD
HETATM    8  O1  UNL     1      36.753   0.465  11.733  1.00  0.00    -0.271 OA
BRANCH   6   9
HETATM    9  C7  UNL     1      34.156   1.110  10.852  1.00  0.00     0.088 C 
HETATM   10  C2  UNL     1      33.234   0.394   9.931  1.00  0.00     0.004 C 
HETATM   11  C1  UNL     1      32.750   1.216   8.781  1.00  0.00     0.012 C 
HETATM   12  C3  UNL     1      32.051  -0.147  10.670  1.00  0.00     0.006 C 
HETATM   13  C4  UNL     1      31.684   0.624  11.889  1.00  0.00     0.001 C 
HETATM   14  C5  UNL     1      32.048   2.081  11.822  1.00  0.00     0.002 C 
HETATM   15  C6  UNL     1      33.454   2.341  11.395  1.00  0.00     0.025 C 
ENDBRANCH   6   9
ENDBRANCH   4   5
ENDBRANCH   3   4
ENDBRANCH   1   3
BRANCH   1  16
HETATM   16  C11 UNL     1      38.315   4.516  11.432  1.00  0.00     0.233 C 
BRANCH  16  17
HETATM   17  N2  UNL     1      37.897   5.440  10.402  1.00  0.00    -0.351 N 
HETATM   18  C12 UNL     1      36.623   5.339   9.820  1.00  0.00     0.222 C 
HETATM   19  O4  UNL     1      35.839   4.432  10.191  1.00  0.00    -0.273 OA
ATOM     20  H2  UNL     1      38.535   6.173  10.093  1.00  0.00     0.163 HD
BRANCH  18  21
HETATM   21  C13 UNL     1      36.180   6.275   8.780  1.00  0.00     0.082 C 
HETATM   22  C14 UNL     1      34.702   6.090   8.389  1.00  0.00     0.019 C 
HETATM   23  C15 UNL     1      34.798   6.466   6.920  1.00  0.00    -0.013 C 
HETATM   24  C16 UNL     1      35.427   7.817   6.820  1.00  0.00     0.005 C 
HETATM   25  C19 UNL     1      35.991   5.569   6.545  1.00  0.00     0.010 C 
HETATM   26  C17 UNL     1      36.949   7.624   6.924  1.00  0.00     0.006 C 
HETATM   27  C18 UNL     1      36.973   6.221   7.524  1.00  0.00    -0.001 C 
ENDBRANCH  18  21
ENDBRANCH  16  17
ENDBRANCH   1  16
TORSDOF 7
ENDMDL
MODEL 3
REMARK VINA RESULT: -7.299091230      2.622      5.552
REMARK  7 active torsions:
REMARK  status: ('A' for Active; 'I' for Inactive)
REMARK    1  A    between atoms: C7_7  and  N1_8 
REMARK       I    between atoms: N1_8  and  C8_10 
REMARK    2  A    between atoms: C8_10  and  C9_12 
REMARK    3  A    between atoms: C9_12  and  O2_13 
REMARK    4  A    between atoms: O2_13  and  C10_14 
REMARK    5  A    between atoms: C10_14  and  C11_16 
REMARK    6  A    between atoms: C11_16  and  N2_17 
REMARK       I    between atoms: N2_17  and  C12_19 
REMARK    7  A    between atoms: C12_19  and  C13_21 
ROOT
HETATM    1  C10 UNL     1      38.348   0.414   6.887  1.00  0.00     0.277 C 
HETATM    2  O3  UNL     1      39.553   0.089   6.920  1.00  0.00    -0.263 OA
ENDROOT
BRANCH   1   3
HETATM    3  O2  UNL     1      37.590   0.090   8.026  1.00  0.00    -0.311 OA
BRANCH   3   4
HETATM    4  C9  UNL     1      37.663   0.900   9.159  1.00  0.00     0.281 C 
BRANCH   4   5
HETATM    5  C8  UNL     1      36.497   0.781  10.041  1.00  0.00     0.242 C 
HETATM    6  N1  UNL     1      35.167   1.004   9.597  1.00  0.00    -0.354 N 
ATOM      7  H1  UNL     1      35.021   1.259   8.620  1.00  0.00     0.162 HD
HETATM    8  O1  UNL     1      36.685   0.466  11.249  1.00  0.00    -0.271 OA
BRANCH   6   9
HETATM    9  C7  UNL     1      34.018   0.891  10.443  1.00  0.00     0.088 C 
HETATM   10  C2  UNL     1      32.792   0.463   9.719  1.00  0.00     0.004 C 
HETATM   11  C1  UNL     1      32.337   1.416   8.661  1.00  0.00     0.012 C 
HETATM   12  C3  UNL     1      31.663   0.222  10.670  1.00  0.00     0.006 C 
HETATM   13  C4  UNL     1      31.734   1.024  11.921  1.00  0.00     0.001 C 
HETATM   14  C5  UNL     1      32.443   2.340  11.763  1.00  0.00     0.002 C 
HETATM   15  C6  UNL     1      33.766   2.243  11.084  1.00  0.00     0.025 C 
ENDBRANCH   6   9
ENDBRANCH   4   5
ENDBRANCH   3   4
ENDBRANCH   1   3
BRANCH   1  16
HETATM   16  C11 UNL     1      37.697   1.104   5.747  1.00  0.00     0.233 C 
BRANCH  16  17
HETATM   17  N2  UNL     1      37.335   2.451   6.127  1.00  0.00    -0.351 N 
HETATM   18  C12 UNL     1      36.024   2.757   6.528  1.00  0.00     0.222 C 
HETATM   19  O4  UNL     1      35.152   1.853   6.549  1.00  0.00    -0.273 OA
ATOM     20  H2  UNL     1      38.039   3.188   6.103  1.00  0.00     0.163 HD
BRANCH  18  21
HETATM   21  C13 UNL     1      35.644   4.117   6.928  1.00  0.00     0.082 C 
HETATM   22  C14 UNL     1      36.851   5.054   7.112  1.00  0.00     0.019 C 
HETATM   23  C15 UNL     1      36.306   5.923   8.233  1.00  0.00    -0.013 C 
HETATM   24  C16 UNL     1      34.993   6.485   7.797  1.00  0.00     0.005 C 
HETATM   25  C19 UNL     1      35.836   4.796   9.170  1.00  0.00     0.010 C 
HETATM   26  C17 UNL     1      33.927   5.405   8.044  1.00  0.00     0.006 C 
HETATM   27  C18 UNL     1      34.841   4.190   8.176  1.00  0.00    -0.001 C 
ENDBRANCH  18  21
ENDBRANCH  16  17
ENDBRANCH   1  16
TORSDOF 7
ENDMDL
MODEL 4
REMARK VINA RESULT: -7.253980095      2.314      3.191
REMARK  7 active torsions:
REMARK  status: ('A' for Active; 'I' for Inactive)
REMARK    1  A    between atoms: C7_7  and  N1_8 
REMARK       I    between atoms: N1_8  and  C8_10 
REMARK    2  A    between atoms: C8_10  and  C9_12 
REMARK    3  A    between atoms: C9_12  and  O2_13 
REMARK    4  A    between atoms: O2_13  and  C10_14 
REMARK    5  A    between atoms: C10_14  and  C11_16 
REMARK    6  A    between atoms: C11_16  and  N2_17 
REMARK       I    between atoms: N2_17  and  C12_19 
REMARK    7  A    between atoms: C12_19  and  C13_21 
ROOT
HETATM    1  C10 UNL     1      36.691   0.724   6.713  1.00  0.00     0.277 C 
HETATM    2  O3  UNL     1      36.774  -0.274   7.458  1.00  0.00    -0.263 OA
ENDROOT
BRANCH   1   3
HETATM    3  O2  UNL     1      37.810   0.985   5.902  1.00  0.00    -0.311 OA
BRANCH   3   4
HETATM    4  C9  UNL     1      39.050   1.226   6.491  1.00  0.00     0.281 C 
BRANCH   4   5
HETATM    5  C8  UNL     1      39.012   2.256   7.535  1.00  0.00     0.242 C 
HETATM    6  N1  UNL     1      38.614   1.986   8.872  1.00  0.00    -0.354 N 
ATOM      7  H1  UNL     1      38.341   1.033   9.110  1.00  0.00     0.162 HD
HETATM    8  O1  UNL     1      39.350   3.434   7.233  1.00  0.00    -0.271 OA
BRANCH   6   9
HETATM    9  C7  UNL     1      38.571   2.978   9.903  1.00  0.00     0.088 C 
HETATM   10  C2  UNL     1      38.933   2.449  11.244  1.00  0.00     0.004 C 
HETATM   11  C1  UNL     1      38.012   1.391  11.759  1.00  0.00     0.012 C 
HETATM   12  C3  UNL     1      39.015   3.551  12.252  1.00  0.00     0.006 C 
HETATM   13  C4  UNL     1      38.146   4.722  11.952  1.00  0.00     0.001 C 
HETATM   14  C5  UNL     1      36.910   4.379  11.168  1.00  0.00     0.002 C 
HETATM   15  C6  UNL     1      37.165   3.545   9.959  1.00  0.00     0.025 C 
ENDBRANCH   6   9
ENDBRANCH   4   5
ENDBRANCH   3   4
ENDBRANCH   1   3
BRANCH   1  16
HETATM   16  C11 UNL     1      35.511   1.619   6.641  1.00  0.00     0.233 C 
BRANCH  16  17
HETATM   17  N2  UNL     1      34.873   1.700   7.936  1.00  0.00    -0.351 N 
HETATM   18  C12 UNL     1      33.488   1.903   8.044  1.00  0.00     0.222 C 
HETATM   19  O4  UNL     1      32.793   2.025   7.005  1.00  0.00    -0.273 OA
ATOM     20  H2  UNL     1      35.436   1.609   8.781  1.00  0.00     0.163 HD
BRANCH  18  21
HETATM   21  C13 UNL     1      32.824   1.977   9.351  1.00  0.00     0.082 C 
HETATM   22  C14 UNL     1      33.638   2.756  10.400  1.00  0.00     0.019 C 
HETATM   23  C15 UNL     1      33.227   1.981  11.641  1.00  0.00    -0.013 C 
HETATM   24  C16 UNL     1      31.736   1.972  11.718  1.00  0.00     0.005 C 
HETATM   25  C19 UNL     1      33.493   0.562  11.106  1.00  0.00     0.010 C 
HETATM   26  C17 UNL     1      31.235   0.854  10.789  1.00  0.00     0.006 C 
HETATM   27  C18 UNL     1      32.494   0.657   9.949  1.00  0.00    -0.001 C 
ENDBRANCH  18  21
ENDBRANCH  16  17
ENDBRANCH   1  16
TORSDOF 7
ENDMDL
MODEL 5
REMARK VINA RESULT: -7.168844783      2.409      5.647
REMARK  7 active torsions:
REMARK  status: ('A' for Active; 'I' for Inactive)
REMARK    1  A    between atoms: C7_7  and  N1_8 
REMARK       I    between atoms: N1_8  and  C8_10 
REMARK    2  A    between atoms: C8_10  and  C9_12 
REMARK    3  A    between atoms: C9_12  and  O2_13 
REMARK    4  A    between atoms: O2_13  and  C10_14 
REMARK    5  A    between atoms: C10_14  and  C11_16 
REMARK    6  A    between atoms: C11_16  and  N2_17 
REMARK       I    between atoms: N2_17  and  C12_19 
REMARK    7  A    between atoms: C12_19  and  C13_21 
ROOT
HETATM    1  C10 UNL     1      39.728   1.852   8.819  1.00  0.00     0.277 C 
HETATM    2  O3  UNL     1      40.869   2.240   9.141  1.00  0.00    -0.263 OA
ENDROOT
BRANCH   1   3
HETATM    3  O2  UNL     1      38.955   1.286   9.849  1.00  0.00    -0.311 OA
BRANCH   3   4
HETATM    4  C9  UNL     1      38.171   2.109  10.656  1.00  0.00     0.281 C 
BRANCH   4   5
HETATM    5  C8  UNL     1      36.903   1.493  11.064  1.00  0.00     0.242 C 
HETATM    6  N1  UNL     1      35.637   1.977  10.638  1.00  0.00    -0.354 N 
ATOM      7  H1  UNL     1      35.615   2.789  10.022  1.00  0.00     0.162 HD
HETATM    8  O1  UNL     1      36.939   0.488  11.827  1.00  0.00    -0.271 OA
BRANCH   6   9
HETATM    9  C7  UNL     1      34.392   1.389  11.026  1.00  0.00     0.088 C 
HETATM   10  C2  UNL     1      33.642   0.793   9.888  1.00  0.00     0.004 C 
HETATM   11  C1  UNL     1      33.236   1.774   8.836  1.00  0.00     0.012 C 
HETATM   12  C3  UNL     1      32.425   0.068  10.368  1.00  0.00     0.006 C 
HETATM   13  C4  UNL     1      31.859   0.595  11.639  1.00  0.00     0.001 C 
HETATM   14  C5  UNL     1      32.116   2.060  11.861  1.00  0.00     0.002 C 
HETATM   15  C6  UNL     1      33.538   2.466  11.669  1.00  0.00     0.025 C 
ENDBRANCH   6   9
ENDBRANCH   4   5
ENDBRANCH   3   4
ENDBRANCH   1   3
BRANCH   1  16
HETATM   16  C11 UNL     1      39.163   1.954   7.451  1.00  0.00     0.233 C 
BRANCH  16  17
HETATM   17  N2  UNL     1      38.429   3.192   7.313  1.00  0.00    -0.351 N 
HETATM   18  C12 UNL     1      37.027   3.210   7.393  1.00  0.00     0.222 C 
HETATM   19  O4  UNL     1      36.401   2.137   7.577  1.00  0.00    -0.273 OA
ATOM     20  H2  UNL     1      38.935   4.063   7.156  1.00  0.00     0.163 HD
BRANCH  18  21
HETATM   21  C13 UNL     1      36.269   4.459   7.265  1.00  0.00     0.082 C 
HETATM   22  C14 UNL     1      37.161   5.684   6.993  1.00  0.00     0.019 C 
HETATM   23  C15 UNL     1      36.348   6.736   7.729  1.00  0.00    -0.013 C 
HETATM   24  C16 UNL     1      34.952   6.706   7.202  1.00  0.00     0.005 C 
HETATM   25  C19 UNL     1      36.168   5.978   9.057  1.00  0.00     0.010 C 
HETATM   26  C17 UNL     1      34.215   5.561   7.917  1.00  0.00     0.006 C 
HETATM   27  C18 UNL     1      35.423   4.789   8.441  1.00  0.00    -0.001 C 
ENDBRANCH  18  21
ENDBRANCH  16  17
ENDBRANCH   1  16
TORSDOF 7
ENDMDL
