MODEL 1
REMARK VINA RESULT: -9.348003671      0.000      0.000
REMARK  6 active torsions:
REMARK  status: ('A' for Active; 'I' for Inactive)
REMARK    1  A    between atoms: C5_5  and  C6_6 
REMARK       I    between atoms: C6_6  and  N1_8 
REMARK       I    between atoms: N1_8  and  C7_10 
REMARK    2  A    between atoms: C7_10  and  C8_12 
REMARK    3  A    between atoms: C8_12  and  S1_13 
REMARK    4  A    between atoms: S1_13  and  C9_14 
REMARK    5  A    between atoms: C9_14  and  C10_15 
REMARK       I    between atoms: C10_15  and  N2_17 
REMARK    6  A    between atoms: C13_20  and  C14_21 
ROOT
HETATM    1  C8  UNL     1      35.865 -20.135  55.787  1.00  0.00     0.177 C 
ENDROOT
BRANCH   1   2
HETATM    2  C7  UNL     1      34.927 -19.002  55.900  1.00  0.00     0.233 C 
HETATM    3  N1  UNL     1      33.533 -19.297  56.033  1.00  0.00    -0.297 N 
HETATM    4  C6  UNL     1      32.523 -18.308  56.051  1.00  0.00     0.228 C 
ATOM      5  H1  UNL     1      33.252 -20.274  56.119  1.00  0.00     0.171 HD
HETATM    6  O1  UNL     1      32.889 -17.097  55.956  1.00  0.00    -0.273 OA
HETATM    7  O2  UNL     1      35.358 -17.810  55.873  1.00  0.00    -0.272 OA
BRANCH   4   8
HETATM    8  C5  UNL     1      31.107 -18.738  56.182  1.00  0.00     0.078 C 
HETATM    9  C4  UNL     1      30.205 -18.221  55.105  1.00  0.00     0.014 C 
HETATM   10  C3  UNL     1      28.764 -18.444  55.574  1.00  0.00     0.005 C 
HETATM   11  C2  UNL     1      28.487 -17.346  56.595  1.00  0.00    -0.019 C 
HETATM   12  C1  UNL     1      27.885 -16.127  55.967  1.00  0.00     0.010 C 
HETATM   13  C18 UNL     1      29.792 -16.930  57.272  1.00  0.00     0.005 C 
HETATM   14  C17 UNL     1      30.646 -18.173  57.524  1.00  0.00     0.014 C 
ENDBRANCH   4   8
ENDBRANCH   1   2
BRANCH   1  15
HETATM   15  S1  UNL     1      35.110 -21.489  54.895  1.00  0.00    -0.150 SA
BRANCH  15  16
HETATM   16  C9  UNL     1      34.720 -22.843  56.019  1.00  0.00     0.177 C 
BRANCH  16  17
HETATM   17  C10 UNL     1      35.730 -22.957  57.101  1.00  0.00     0.229 C 
HETATM   18  O3  UNL     1      36.827 -23.565  56.814  1.00  0.00    -0.273 OA
HETATM   19  N2  UNL     1      35.603 -22.464  58.408  1.00  0.00    -0.351 N 
HETATM   20  C11 UNL     1      36.705 -22.704  59.367  1.00  0.00     0.126 C 
HETATM   21  C16 UNL     1      34.523 -21.700  58.964  1.00  0.00     0.126 C 
HETATM   22  C12 UNL     1      36.236 -22.767  60.777  1.00  0.00     0.033 C 
HETATM   23  C13 UNL     1      34.804 -23.211  60.941  1.00  0.00     0.078 C 
HETATM   24  C15 UNL     1      33.857 -22.421  60.087  1.00  0.00     0.033 C 
BRANCH  23  25
HETATM   25  C14 UNL     1      34.464 -22.963  62.386  1.00  0.00     0.235 C 
HETATM   26  N3  UNL     1      34.948 -21.764  62.966  1.00  0.00    -0.062 NA
HETATM   27  O4  UNL     1      33.793 -23.754  63.070  1.00  0.00    -0.277 OA
ENDBRANCH  23  25
ENDBRANCH  16  17
ENDBRANCH  15  16
ENDBRANCH   1  15
TORSDOF 6
ENDMDL
MODEL 2
REMARK VINA RESULT: -9.297578374      1.257      1.652
REMARK  6 active torsions:
REMARK  status: ('A' for Active; 'I' for Inactive)
REMARK    1  A    between atoms: C5_5  and  C6_6 
REMARK       I    between atoms: C6_6  and  N1_8 
REMARK       I    between atoms: N1_8  and  C7_10 
REMARK    2  A    between atoms: C7_10  and  C8_12 
REMARK    3  A    between atoms: C8_12  and  S1_13 
REMARK    4  A    between atoms: S1_13  and  C9_14 
REMARK    5  A    between atoms: C9_14  and  C10_15 
REMARK       I    between atoms: C10_15  and  N2_17 
REMARK    6  A    between atoms: C13_20  and  C14_21 
ROOT
HETATM    1  C8  UNL     1      35.926 -19.867  55.448  1.00  0.00     0.177 C 
ENDROOT
BRANCH   1   2
HETATM    2  C7  UNL     1      34.971 -18.786  55.756  1.00  0.00     0.233 C 
HETATM    3  N1  UNL     1      33.587 -19.129  55.883  1.00  0.00    -0.297 N 
HETATM    4  C6  UNL     1      32.560 -18.178  56.077  1.00  0.00     0.228 C 
ATOM      5  H1  UNL     1      33.328 -20.115  55.829  1.00  0.00     0.171 HD
HETATM    6  O1  UNL     1      32.899 -16.959  56.155  1.00  0.00    -0.273 OA
HETATM    7  O2  UNL     1      35.378 -17.593  55.896  1.00  0.00    -0.272 OA
BRANCH   4   8
HETATM    8  C5  UNL     1      31.157 -18.657  56.183  1.00  0.00     0.078 C 
HETATM    9  C4  UNL     1      30.250 -18.141  55.110  1.00  0.00     0.014 C 
HETATM   10  C3  UNL     1      28.812 -18.421  55.558  1.00  0.00     0.005 C 
HETATM   11  C2  UNL     1      28.490 -17.359  56.604  1.00  0.00    -0.019 C 
HETATM   12  C1  UNL     1      27.855 -16.144  56.000  1.00  0.00     0.010 C 
HETATM   13  C18 UNL     1      29.774 -16.920  57.305  1.00  0.00     0.005 C 
HETATM   14  C17 UNL     1      30.665 -18.142  57.534  1.00  0.00     0.014 C 
ENDBRANCH   4   8
ENDBRANCH   1   2
BRANCH   1  15
HETATM   15  S1  UNL     1      35.085 -21.444  55.365  1.00  0.00    -0.150 SA
BRANCH  15  16
HETATM   16  C9  UNL     1      35.362 -22.384  56.876  1.00  0.00     0.177 C 
BRANCH  16  17
HETATM   17  C10 UNL     1      34.252 -22.193  57.844  1.00  0.00     0.229 C 
HETATM   18  O3  UNL     1      33.296 -21.408  57.490  1.00  0.00    -0.273 OA
HETATM   19  N2  UNL     1      34.145 -22.787  59.110  1.00  0.00    -0.351 N 
HETATM   20  C11 UNL     1      32.979 -22.449  59.957  1.00  0.00     0.126 C 
HETATM   21  C16 UNL     1      35.029 -23.742  59.716  1.00  0.00     0.126 C 
HETATM   22  C12 UNL     1      33.274 -22.555  61.410  1.00  0.00     0.033 C 
HETATM   23  C13 UNL     1      34.723 -22.344  61.771  1.00  0.00     0.078 C 
HETATM   24  C15 UNL     1      35.647 -23.208  60.965  1.00  0.00     0.033 C 
BRANCH  23  25
HETATM   25  C14 UNL     1      34.843 -22.739  63.218  1.00  0.00     0.235 C 
HETATM   26  N3  UNL     1      35.502 -23.961  63.502  1.00  0.00    -0.062 NA
HETATM   27  O4  UNL     1      34.393 -22.049  64.149  1.00  0.00    -0.277 OA
ENDBRANCH  23  25
ENDBRANCH  16  17
ENDBRANCH  15  16
ENDBRANCH   1  15
TORSDOF 6
ENDMDL
MODEL 3
REMARK VINA RESULT: -9.234556638      1.876      1.964
REMARK  6 active torsions:
REMARK  status: ('A' for Active; 'I' for Inactive)
REMARK    1  A    between atoms: C5_5  and  C6_6 
REMARK       I    between atoms: C6_6  and  N1_8 
REMARK       I    between atoms: N1_8  and  C7_10 
REMARK    2  A    between atoms: C7_10  and  C8_12 
REMARK    3  A    between atoms: C8_12  and  S1_13 
REMARK    4  A    between atoms: S1_13  and  C9_14 
REMARK    5  A    between atoms: C9_14  and  C10_15 
REMARK       I    between atoms: C10_15  and  N2_17 
REMARK    6  A    between atoms: C13_20  and  C14_21 
ROOT
HETATM    1  C8  UNL     1      35.345 -18.350  55.273  1.00  0.00     0.177 C 
ENDROOT
BRANCH   1   2
HETATM    2  C7  UNL     1      34.454 -18.288  56.448  1.00  0.00     0.233 C 
HETATM    3  N1  UNL     1      33.064 -18.567  56.251  1.00  0.00    -0.297 N 
HETATM    4  C6  UNL     1      32.091 -18.447  57.269  1.00  0.00     0.228 C 
ATOM      5  H1  UNL     1      32.759 -18.869  55.325  1.00  0.00     0.171 HD
HETATM    6  O1  UNL     1      32.488 -18.083  58.417  1.00  0.00    -0.273 OA
HETATM    7  O2  UNL     1      34.920 -17.990  57.589  1.00  0.00    -0.272 OA
BRANCH   4   8
HETATM    8  C5  UNL     1      30.675 -18.754  56.939  1.00  0.00     0.078 C 
HETATM    9  C4  UNL     1      30.237 -18.263  55.595  1.00  0.00     0.014 C 
HETATM   10  C3  UNL     1      28.707 -18.332  55.564  1.00  0.00     0.005 C 
HETATM   11  C2  UNL     1      28.221 -17.133  56.370  1.00  0.00    -0.019 C 
HETATM   12  C1  UNL     1      27.987 -15.929  55.509  1.00  0.00     0.010 C 
HETATM   13  C18 UNL     1      29.264 -16.763  57.422  1.00  0.00     0.005 C 
HETATM   14  C17 UNL     1      29.857 -18.042  58.015  1.00  0.00     0.014 C 
ENDBRANCH   4   8
ENDBRANCH   1   2
BRANCH   1  15
HETATM   15  S1  UNL     1      36.160 -19.939  55.185  1.00  0.00    -0.150 SA
BRANCH  15  16
HETATM   16  C9  UNL     1      34.980 -21.228  54.747  1.00  0.00     0.177 C 
BRANCH  16  17
HETATM   17  C10 UNL     1      35.176 -22.446  55.574  1.00  0.00     0.229 C 
HETATM   18  O3  UNL     1      35.577 -23.507  54.966  1.00  0.00    -0.273 OA
HETATM   19  N2  UNL     1      34.966 -22.551  56.956  1.00  0.00    -0.351 N 
HETATM   20  C11 UNL     1      35.179 -23.862  57.609  1.00  0.00     0.126 C 
HETATM   21  C16 UNL     1      34.586 -21.515  57.874  1.00  0.00     0.126 C 
HETATM   22  C12 UNL     1      34.337 -24.045  58.820  1.00  0.00     0.033 C 
HETATM   23  C13 UNL     1      33.051 -23.256  58.813  1.00  0.00     0.078 C 
HETATM   24  C15 UNL     1      33.272 -21.802  58.519  1.00  0.00     0.033 C 
BRANCH  23  25
HETATM   25  C14 UNL     1      32.490 -23.381  60.204  1.00  0.00     0.235 C 
HETATM   26  N3  UNL     1      33.199 -24.202  61.115  1.00  0.00    -0.062 NA
HETATM   27  O4  UNL     1      31.451 -22.805  60.571  1.00  0.00    -0.277 OA
ENDBRANCH  23  25
ENDBRANCH  16  17
ENDBRANCH  15  16
ENDBRANCH   1  15
TORSDOF 6
ENDMDL
MODEL 4
REMARK VINA RESULT: -9.208567432      1.675      1.938
REMARK  6 active torsions:
REMARK  status: ('A' for Active; 'I' for Inactive)
REMARK    1  A    between atoms: C5_5  and  C6_6 
REMARK       I    between atoms: C6_6  and  N1_8 
REMARK       I    between atoms: N1_8  and  C7_10 
REMARK    2  A    between atoms: C7_10  and  C8_12 
REMARK    3  A    between atoms: C8_12  and  S1_13 
REMARK    4  A    between atoms: S1_13  and  C9_14 
REMARK    5  A    between atoms: C9_14  and  C10_15 
REMARK       I    between atoms: C10_15  and  N2_17 
REMARK    6  A    between atoms: C13_20  and  C14_21 
ROOT
HETATM    1  C8  UNL     1      35.849 -20.146  55.416  1.00  0.00     0.177 C 
ENDROOT
BRANCH   1   2
HETATM    2  C7  UNL     1      34.935 -19.032  55.735  1.00  0.00     0.233 C 
HETATM    3  N1  UNL     1      33.542 -19.328  55.880  1.00  0.00    -0.297 N 
HETATM    4  C6  UNL     1      32.550 -18.343  56.087  1.00  0.00     0.228 C 
ATOM      5  H1  UNL     1      33.249 -20.304  55.831  1.00  0.00     0.171 HD
HETATM    6  O1  UNL     1      32.932 -17.136  56.159  1.00  0.00    -0.273 OA
HETATM    7  O2  UNL     1      35.384 -17.854  55.869  1.00  0.00    -0.272 OA
BRANCH   4   8
HETATM    8  C5  UNL     1      31.134 -18.773  56.210  1.00  0.00     0.078 C 
HETATM    9  C4  UNL     1      30.237 -18.255  55.130  1.00  0.00     0.014 C 
HETATM   10  C3  UNL     1      28.794 -18.478  55.591  1.00  0.00     0.005 C 
HETATM   11  C2  UNL     1      28.511 -17.381  56.612  1.00  0.00    -0.019 C 
HETATM   12  C1  UNL     1      27.913 -16.161  55.982  1.00  0.00     0.010 C 
HETATM   13  C18 UNL     1      29.813 -16.966  57.296  1.00  0.00     0.005 C 
HETATM   14  C17 UNL     1      30.666 -18.210  57.551  1.00  0.00     0.014 C 
ENDBRANCH   4   8
ENDBRANCH   1   2
BRANCH   1  15
HETATM   15  S1  UNL     1      34.940 -21.532  54.746  1.00  0.00    -0.150 SA
BRANCH  15  16
HETATM   16  C9  UNL     1      35.501 -23.073  55.492  1.00  0.00     0.177 C 
BRANCH  16  17
HETATM   17  C10 UNL     1      34.560 -23.540  56.542  1.00  0.00     0.229 C 
HETATM   18  O3  UNL     1      33.745 -24.482  56.219  1.00  0.00    -0.273 OA
HETATM   19  N2  UNL     1      34.475 -23.053  57.854  1.00  0.00    -0.351 N 
HETATM   20  C11 UNL     1      33.445 -23.618  58.756  1.00  0.00     0.126 C 
HETATM   21  C16 UNL     1      35.300 -22.062  58.485  1.00  0.00     0.126 C 
HETATM   22  C12 UNL     1      32.998 -22.652  59.794  1.00  0.00     0.033 C 
HETATM   23  C13 UNL     1      33.133 -21.202  59.399  1.00  0.00     0.078 C 
HETATM   24  C15 UNL     1      34.509 -20.869  58.903  1.00  0.00     0.033 C 
BRANCH  23  25
HETATM   25  C14 UNL     1      32.875 -20.414  60.655  1.00  0.00     0.235 C 
HETATM   26  N3  UNL     1      33.369 -20.952  61.869  1.00  0.00    -0.062 NA
HETATM   27  O4  UNL     1      32.258 -19.334  60.663  1.00  0.00    -0.277 OA
ENDBRANCH  23  25
ENDBRANCH  16  17
ENDBRANCH  15  16
ENDBRANCH   1  15
TORSDOF 6
ENDMDL
MODEL 5
REMARK VINA RESULT: -9.185539929      1.171      1.473
REMARK  6 active torsions:
REMARK  status: ('A' for Active; 'I' for Inactive)
REMARK    1  A    between atoms: C5_5  and  C6_6 
REMARK       I    between atoms: C6_6  and  N1_8 
REMARK       I    between atoms: N1_8  and  C7_10 
REMARK    2  A    between atoms: C7_10  and  C8_12 
REMARK    3  A    between atoms: C8_12  and  S1_13 
REMARK    4  A    between atoms: S1_13  and  C9_14 
REMARK    5  A    between atoms: C9_14  and  C10_15 
REMARK       I    between atoms: C10_15  and  N2_17 
REMARK    6  A    between atoms: C13_20  and  C14_21 
ROOT
HETATM    1  C8  UNL     1      35.372 -20.629  57.109  1.00  0.00     0.177 C 
ENDROOT
BRANCH   1   2
HETATM    2  C7  UNL     1      34.568 -19.414  56.878  1.00  0.00     0.233 C 
HETATM    3  N1  UNL     1      33.148 -19.560  56.767  1.00  0.00    -0.297 N 
HETATM    4  C6  UNL     1      32.275 -18.495  56.449  1.00  0.00     0.228 C 
ATOM      5  H1  UNL     1      32.745 -20.484  56.926  1.00  0.00     0.171 HD
HETATM    6  O1  UNL     1      32.790 -17.351  56.267  1.00  0.00    -0.273 OA
HETATM    7  O2  UNL     1      35.132 -18.283  56.777  1.00  0.00    -0.272 OA
BRANCH   4   8
HETATM    8  C5  UNL     1      30.819 -18.774  56.351  1.00  0.00     0.078 C 
HETATM    9  C4  UNL     1      30.142 -18.107  55.195  1.00  0.00     0.014 C 
HETATM   10  C3  UNL     1      28.632 -18.194  55.441  1.00  0.00     0.005 C 
HETATM   11  C2  UNL     1      28.320 -17.126  56.484  1.00  0.00    -0.019 C 
HETATM   12  C1  UNL     1      27.943 -15.817  55.859  1.00  0.00     0.010 C 
HETATM   13  C18 UNL     1      29.547 -16.892  57.363  1.00  0.00     0.005 C 
HETATM   14  C17 UNL     1      30.225 -18.232  57.649  1.00  0.00     0.014 C 
ENDBRANCH   4   8
ENDBRANCH   1   2
BRANCH   1  15
HETATM   15  S1  UNL     1      35.155 -21.790  55.766  1.00  0.00    -0.150 SA
BRANCH  15  16
HETATM   16  C9  UNL     1      35.829 -23.401  56.212  1.00  0.00     0.177 C 
BRANCH  16  17
HETATM   17  C10 UNL     1      34.916 -24.137  57.122  1.00  0.00     0.229 C 
HETATM   18  O3  UNL     1      33.901 -24.718  56.586  1.00  0.00    -0.273 OA
HETATM   19  N2  UNL     1      35.054 -24.261  58.512  1.00  0.00    -0.351 N 
HETATM   20  C11 UNL     1      34.020 -25.008  59.265  1.00  0.00     0.126 C 
HETATM   21  C16 UNL     1      36.118 -23.772  59.342  1.00  0.00     0.126 C 
HETATM   22  C12 UNL     1      33.877 -24.535  60.667  1.00  0.00     0.033 C 
HETATM   23  C13 UNL     1      34.265 -23.094  60.884  1.00  0.00     0.078 C 
HETATM   24  C15 UNL     1      35.627 -22.779  60.341  1.00  0.00     0.033 C 
BRANCH  23  25
HETATM   25  C14 UNL     1      34.291 -22.900  62.376  1.00  0.00     0.235 C 
HETATM   26  N3  UNL     1      35.060 -21.821  62.875  1.00  0.00    -0.062 NA
HETATM   27  O4  UNL     1      33.676 -23.638  63.166  1.00  0.00    -0.277 OA
ENDBRANCH  23  25
ENDBRANCH  16  17
ENDBRANCH  15  16
ENDBRANCH   1  15
TORSDOF 6
ENDMDL
