MODEL 1
REMARK VINA RESULT: -7.982857530      0.000      0.000
REMARK  9 active torsions:
REMARK  status: ('A' for Active; 'I' for Inactive)
REMARK    1  A    between atoms: C2_2  and  C3_3 
REMARK    2  A    between atoms: C3_3  and  N1_4 
REMARK       I    between atoms: N1_4  and  C4_6 
REMARK    3  A    between atoms: C4_6  and  C5_8 
REMARK    4  A    between atoms: C5_8  and  C6_9 
REMARK    5  A    between atoms: C7_10  and  C8_11 
REMARK    6  A    between atoms: C8_11  and  C9_12 
REMARK    7  A    between atoms: C9_12  and  O2_13 
REMARK    8  A    between atoms: C18_25  and  O5_26 
REMARK    9  A    between atoms: O5_26  and  C19_27 
ROOT
HETATM    1  C9  UNL     1      33.335 -21.355  58.928  1.00  0.00     0.087 C 
HETATM    2  C10 UNL     1      33.617 -20.319  57.826  1.00  0.00     0.118 C 
HETATM    3  C11 UNL     1      34.881 -20.556  57.093  1.00  0.00     0.134 C 
HETATM    4  O3  UNL     1      35.654 -19.656  56.921  1.00  0.00    -0.297 OA
HETATM    5  C12 UNL     1      35.214 -21.911  56.556  1.00  0.00     0.057 C 
HETATM    6  C13 UNL     1      34.848 -21.834  55.063  1.00  0.00     0.018 C 
HETATM    7  C14 UNL     1      34.170 -22.755  57.208  1.00  0.00     0.019 C 
HETATM    8  C15 UNL     1      34.016 -24.146  56.909  1.00  0.00     0.023 A 
HETATM    9  C16 UNL     1      34.829 -25.206  56.399  1.00  0.00     0.040 A 
HETATM   10  C17 UNL     1      35.156 -24.801  57.749  1.00  0.00     0.129 A 
HETATM   11  O4  UNL     1      34.569 -24.912  58.936  1.00  0.00    -0.355 OA
HETATM   12  C18 UNL     1      33.694 -23.840  59.304  1.00  0.00     0.271 C 
HETATM   13  C21 UNL     1      34.209 -22.527  58.735  1.00  0.00     0.043 C 
HETATM   14  C22 UNL     1      35.531 -22.266  59.314  1.00  0.00     0.024 C 
ENDROOT
BRANCH   1  15
HETATM   15  C8  UNL     1      33.302 -20.637  60.209  1.00  0.00     0.133 C 
BRANCH  15  16
HETATM   16  C7  UNL     1      32.258 -19.570  60.066  1.00  0.00    -0.103 C 
HETATM   17  C6  UNL     1      31.434 -18.698  59.950  1.00  0.00    -0.097 C 
BRANCH  17  18
HETATM   18  C5  UNL     1      30.424 -17.649  59.808  1.00  0.00     0.196 C 
BRANCH  18  19
HETATM   19  C4  UNL     1      30.180 -17.297  58.407  1.00  0.00     0.229 C 
HETATM   20  N1  UNL     1      28.879 -17.307  57.848  1.00  0.00    -0.357 N 
ATOM     21  H1  UNL     1      28.097 -17.570  58.449  1.00  0.00     0.162 HD
HETATM   22  O1  UNL     1      31.153 -16.974  57.680  1.00  0.00    -0.273 OA
BRANCH  20  23
HETATM   23  C3  UNL     1      28.600 -16.966  56.471  1.00  0.00     0.149 C 
BRANCH  23  24
HETATM   24  C2  UNL     1      28.542 -18.175  55.605  1.00  0.00    -0.018 C 
HETATM   25  C1  UNL     1      29.639 -18.667  55.095  1.00  0.00     0.008 C 
ENDBRANCH  23  24
ENDBRANCH  20  23
ENDBRANCH  18  19
ENDBRANCH  17  18
ENDBRANCH  15  16
ENDBRANCH   1  15
BRANCH   1  26
HETATM   26  O2  UNL     1      32.007 -21.815  58.686  1.00  0.00    -0.388 OA
ATOM     27  H2  UNL     1      32.026 -22.760  58.782  1.00  0.00     0.210 HD
ENDBRANCH   1  26
BRANCH  12  28
HETATM   28  O5  UNL     1      33.807 -23.841  60.704  1.00  0.00    -0.361 OA
BRANCH  28  29
HETATM   29  C19 UNL     1      34.105 -25.104  61.138  1.00  0.00     0.166 C 
HETATM   30  C20 UNL     1      35.024 -25.101  62.349  1.00  0.00     0.033 C 
ENDBRANCH  28  29
ENDBRANCH  12  28
TORSDOF 9
ENDMDL
MODEL 2
REMARK VINA RESULT: -7.979122788      1.530      3.818
REMARK  9 active torsions:
REMARK  status: ('A' for Active; 'I' for Inactive)
REMARK    1  A    between atoms: C2_2  and  C3_3 
REMARK    2  A    between atoms: C3_3  and  N1_4 
REMARK       I    between atoms: N1_4  and  C4_6 
REMARK    3  A    between atoms: C4_6  and  C5_8 
REMARK    4  A    between atoms: C5_8  and  C6_9 
REMARK    5  A    between atoms: C7_10  and  C8_11 
REMARK    6  A    between atoms: C8_11  and  C9_12 
REMARK    7  A    between atoms: C9_12  and  O2_13 
REMARK    8  A    between atoms: C18_25  and  O5_26 
REMARK    9  A    between atoms: O5_26  and  C19_27 
ROOT
HETATM    1  C9  UNL     1      33.371 -22.078  59.301  1.00  0.00     0.087 C 
HETATM    2  C10 UNL     1      33.370 -22.805  60.658  1.00  0.00     0.118 C 
HETATM    3  C11 UNL     1      34.194 -24.034  60.677  1.00  0.00     0.134 C 
HETATM    4  O3  UNL     1      33.743 -25.053  61.119  1.00  0.00    -0.297 OA
HETATM    5  C12 UNL     1      35.594 -24.028  60.152  1.00  0.00     0.057 C 
HETATM    6  C13 UNL     1      36.476 -23.917  61.408  1.00  0.00     0.018 C 
HETATM    7  C14 UNL     1      35.651 -22.702  59.471  1.00  0.00     0.019 C 
HETATM    8  C15 UNL     1      36.858 -22.191  58.895  1.00  0.00     0.023 A 
HETATM    9  C16 UNL     1      38.083 -22.721  58.385  1.00  0.00     0.040 A 
HETATM   10  C17 UNL     1      36.934 -22.957  57.538  1.00  0.00     0.129 A 
HETATM   11  O4  UNL     1      36.157 -22.201  56.771  1.00  0.00    -0.355 OA
HETATM   12  C18 UNL     1      35.006 -21.636  57.411  1.00  0.00     0.271 C 
HETATM   13  C21 UNL     1      34.478 -22.588  58.473  1.00  0.00     0.043 C 
HETATM   14  C22 UNL     1      34.076 -23.833  57.809  1.00  0.00     0.024 C 
ENDROOT
BRANCH   1  15
HETATM   15  C8  UNL     1      31.990 -22.076  58.802  1.00  0.00     0.133 C 
BRANCH  15  16
HETATM   16  C7  UNL     1      31.438 -20.713  59.099  1.00  0.00    -0.103 C 
HETATM   17  C6  UNL     1      30.977 -19.624  59.332  1.00  0.00    -0.097 C 
BRANCH  17  18
HETATM   18  C5  UNL     1      30.429 -18.299  59.620  1.00  0.00     0.196 C 
BRANCH  18  19
HETATM   19  C4  UNL     1      30.366 -17.450  58.427  1.00  0.00     0.229 C 
HETATM   20  N1  UNL     1      29.145 -17.184  57.761  1.00  0.00    -0.357 N 
ATOM     21  H1  UNL     1      28.291 -17.601  58.132  1.00  0.00     0.162 HD
HETATM   22  O1  UNL     1      31.427 -16.942  57.983  1.00  0.00    -0.273 OA
BRANCH  20  23
HETATM   23  C3  UNL     1      29.045 -16.352  56.582  1.00  0.00     0.149 C 
BRANCH  23  24
HETATM   24  C2  UNL     1      28.704 -17.150  55.373  1.00  0.00    -0.018 C 
HETATM   25  C1  UNL     1      28.890 -18.442  55.368  1.00  0.00     0.008 C 
ENDBRANCH  23  24
ENDBRANCH  20  23
ENDBRANCH  18  19
ENDBRANCH  17  18
ENDBRANCH  15  16
ENDBRANCH   1  15
BRANCH   1  26
HETATM   26  O2  UNL     1      33.698 -20.722  59.598  1.00  0.00    -0.388 OA
ATOM     27  H2  UNL     1      34.647 -20.674  59.632  1.00  0.00     0.210 HD
ENDBRANCH   1  26
BRANCH  12  28
HETATM   28  O5  UNL     1      34.097 -21.544  56.344  1.00  0.00    -0.361 OA
BRANCH  28  29
HETATM   29  C19 UNL     1      34.200 -20.311  55.761  1.00  0.00     0.166 C 
HETATM   30  C20 UNL     1      33.000 -19.426  56.058  1.00  0.00     0.033 C 
ENDBRANCH  28  29
ENDBRANCH  12  28
TORSDOF 9
ENDMDL
MODEL 3
REMARK VINA RESULT: -7.972421644      2.543      6.758
REMARK  9 active torsions:
REMARK  status: ('A' for Active; 'I' for Inactive)
REMARK    1  A    between atoms: C2_2  and  C3_3 
REMARK    2  A    between atoms: C3_3  and  N1_4 
REMARK       I    between atoms: N1_4  and  C4_6 
REMARK    3  A    between atoms: C4_6  and  C5_8 
REMARK    4  A    between atoms: C5_8  and  C6_9 
REMARK    5  A    between atoms: C7_10  and  C8_11 
REMARK    6  A    between atoms: C8_11  and  C9_12 
REMARK    7  A    between atoms: C9_12  and  O2_13 
REMARK    8  A    between atoms: C18_25  and  O5_26 
REMARK    9  A    between atoms: O5_26  and  C19_27 
ROOT
HETATM    1  C9  UNL     1      32.854 -20.500  58.946  1.00  0.00     0.087 C 
HETATM    2  C10 UNL     1      31.899 -20.218  60.119  1.00  0.00     0.118 C 
HETATM    3  C11 UNL     1      31.536 -18.790  60.263  1.00  0.00     0.134 C 
HETATM    4  O3  UNL     1      31.606 -18.257  61.334  1.00  0.00    -0.297 OA
HETATM    5  C12 UNL     1      31.077 -17.992  59.085  1.00  0.00     0.057 C 
HETATM    6  C13 UNL     1      29.543 -17.964  59.213  1.00  0.00     0.018 C 
HETATM    7  C14 UNL     1      31.395 -18.916  57.957  1.00  0.00     0.019 C 
HETATM    8  C15 UNL     1      31.029 -18.624  56.604  1.00  0.00     0.023 A 
HETATM    9  C16 UNL     1      30.736 -17.463  55.824  1.00  0.00     0.040 A 
HETATM   10  C17 UNL     1      32.134 -17.613  56.166  1.00  0.00     0.129 A 
HETATM   11  O4  UNL     1      33.109 -18.439  55.805  1.00  0.00    -0.355 OA
HETATM   12  C18 UNL     1      33.251 -19.625  56.596  1.00  0.00     0.271 C 
HETATM   13  C21 UNL     1      32.878 -19.335  58.043  1.00  0.00     0.043 C 
HETATM   14  C22 UNL     1      33.805 -18.321  58.557  1.00  0.00     0.024 C 
ENDROOT
BRANCH   1  15
HETATM   15  C8  UNL     1      34.095 -21.047  59.510  1.00  0.00     0.133 C 
BRANCH  15  16
HETATM   16  C7  UNL     1      34.093 -22.512  59.187  1.00  0.00    -0.103 C 
HETATM   17  C6  UNL     1      34.110 -23.688  58.925  1.00  0.00    -0.097 C 
BRANCH  17  18
HETATM   18  C5  UNL     1      34.119 -25.117  58.609  1.00  0.00     0.196 C 
BRANCH  18  19
HETATM   19  C4  UNL     1      34.465 -25.376  57.209  1.00  0.00     0.229 C 
HETATM   20  N1  UNL     1      34.967 -24.359  56.361  1.00  0.00    -0.357 N 
ATOM     21  H1  UNL     1      35.087 -23.423  56.748  1.00  0.00     0.162 HD
HETATM   22  O1  UNL     1      34.314 -26.536  56.749  1.00  0.00    -0.273 OA
BRANCH  20  23
HETATM   23  C3  UNL     1      35.319 -24.579  54.976  1.00  0.00     0.149 C 
BRANCH  23  24
HETATM   24  C2  UNL     1      34.186 -24.261  54.064  1.00  0.00    -0.018 C 
HETATM   25  C1  UNL     1      34.390 -23.544  52.993  1.00  0.00     0.008 C 
ENDBRANCH  23  24
ENDBRANCH  20  23
ENDBRANCH  18  19
ENDBRANCH  17  18
ENDBRANCH  15  16
ENDBRANCH   1  15
BRANCH   1  26
HETATM   26  O2  UNL     1      32.244 -21.555  58.206  1.00  0.00    -0.388 OA
ATOM     27  H2  UNL     1      32.900 -21.872  57.595  1.00  0.00     0.210 HD
ENDBRANCH   1  26
BRANCH  12  28
HETATM   28  O5  UNL     1      34.627 -19.883  56.489  1.00  0.00    -0.361 OA
BRANCH  28  29
HETATM   29  C19 UNL     1      34.851 -20.749  55.456  1.00  0.00     0.166 C 
HETATM   30  C20 UNL     1      35.882 -20.224  54.470  1.00  0.00     0.033 C 
ENDBRANCH  28  29
ENDBRANCH  12  28
TORSDOF 9
ENDMDL
MODEL 4
REMARK VINA RESULT: -7.897900821      1.596      1.955
REMARK  9 active torsions:
REMARK  status: ('A' for Active; 'I' for Inactive)
REMARK    1  A    between atoms: C2_2  and  C3_3 
REMARK    2  A    between atoms: C3_3  and  N1_4 
REMARK       I    between atoms: N1_4  and  C4_6 
REMARK    3  A    between atoms: C4_6  and  C5_8 
REMARK    4  A    between atoms: C5_8  and  C6_9 
REMARK    5  A    between atoms: C7_10  and  C8_11 
REMARK    6  A    between atoms: C8_11  and  C9_12 
REMARK    7  A    between atoms: C9_12  and  O2_13 
REMARK    8  A    between atoms: C18_25  and  O5_26 
REMARK    9  A    between atoms: O5_26  and  C19_27 
ROOT
HETATM    1  C9  UNL     1      34.072 -20.444  57.158  1.00  0.00     0.087 C 
HETATM    2  C10 UNL     1      34.149 -20.181  55.644  1.00  0.00     0.118 C 
HETATM    3  C11 UNL     1      35.172 -20.994  54.948  1.00  0.00     0.134 C 
HETATM    4  O3  UNL     1      35.943 -20.473  54.193  1.00  0.00    -0.297 OA
HETATM    5  C12 UNL     1      35.261 -22.470  55.171  1.00  0.00     0.057 C 
HETATM    6  C13 UNL     1      34.545 -23.086  53.956  1.00  0.00     0.018 C 
HETATM    7  C14 UNL     1      34.351 -22.650  56.340  1.00  0.00     0.019 C 
HETATM    8  C15 UNL     1      34.025 -23.943  56.862  1.00  0.00     0.023 A 
HETATM    9  C16 UNL     1      34.606 -25.249  56.868  1.00  0.00     0.040 A 
HETATM   10  C17 UNL     1      35.285 -24.290  57.713  1.00  0.00     0.129 A 
HETATM   11  O4  UNL     1      35.003 -23.673  58.855  1.00  0.00    -0.355 OA
HETATM   12  C18 UNL     1      34.328 -22.415  58.736  1.00  0.00     0.271 C 
HETATM   13  C21 UNL     1      34.782 -21.696  57.475  1.00  0.00     0.043 C 
HETATM   14  C22 UNL     1      36.222 -21.441  57.590  1.00  0.00     0.024 C 
ENDROOT
BRANCH   1  15
HETATM   15  C8  UNL     1      34.411 -19.187  57.841  1.00  0.00     0.133 C 
BRANCH  15  16
HETATM   16  C7  UNL     1      33.198 -18.802  58.635  1.00  0.00    -0.103 C 
HETATM   17  C6  UNL     1      32.230 -18.474  59.274  1.00  0.00    -0.097 C 
BRANCH  17  18
HETATM   18  C5  UNL     1      31.050 -18.086  60.047  1.00  0.00     0.196 C 
BRANCH  18  19
HETATM   19  C4  UNL     1      29.863 -17.916  59.205  1.00  0.00     0.229 C 
HETATM   20  N1  UNL     1      29.961 -17.580  57.833  1.00  0.00    -0.357 N 
ATOM     21  H1  UNL     1      30.890 -17.456  57.430  1.00  0.00     0.162 HD
HETATM   22  O1  UNL     1      28.725 -18.074  59.716  1.00  0.00    -0.273 OA
BRANCH  20  23
HETATM   23  C3  UNL     1      28.812 -17.404  56.972  1.00  0.00     0.149 C 
BRANCH  23  24
HETATM   24  C2  UNL     1      28.862 -18.313  55.795  1.00  0.00    -0.018 C 
HETATM   25  C1  UNL     1      30.011 -18.638  55.269  1.00  0.00     0.008 C 
ENDBRANCH  23  24
ENDBRANCH  20  23
ENDBRANCH  18  19
ENDBRANCH  17  18
ENDBRANCH  15  16
ENDBRANCH   1  15
BRANCH   1  26
HETATM   26  O2  UNL     1      32.695 -20.696  57.430  1.00  0.00    -0.388 OA
ATOM     27  H2  UNL     1      32.600 -21.639  57.493  1.00  0.00     0.210 HD
ENDBRANCH   1  26
BRANCH  12  28
HETATM   28  O5  UNL     1      34.783 -21.733  59.877  1.00  0.00    -0.361 OA
BRANCH  28  29
HETATM   29  C19 UNL     1      33.976 -22.031  60.939  1.00  0.00     0.166 C 
HETATM   30  C20 UNL     1      32.500 -22.013  60.572  1.00  0.00     0.033 C 
ENDBRANCH  28  29
ENDBRANCH  12  28
TORSDOF 9
ENDMDL
MODEL 5
REMARK VINA RESULT: -7.844809853      1.003      1.102
REMARK  9 active torsions:
REMARK  status: ('A' for Active; 'I' for Inactive)
REMARK    1  A    between atoms: C2_2  and  C3_3 
REMARK    2  A    between atoms: C3_3  and  N1_4 
REMARK       I    between atoms: N1_4  and  C4_6 
REMARK    3  A    between atoms: C4_6  and  C5_8 
REMARK    4  A    between atoms: C5_8  and  C6_9 
REMARK    5  A    between atoms: C7_10  and  C8_11 
REMARK    6  A    between atoms: C8_11  and  C9_12 
REMARK    7  A    between atoms: C9_12  and  O2_13 
REMARK    8  A    between atoms: C18_25  and  O5_26 
REMARK    9  A    between atoms: O5_26  and  C19_27 
ROOT
HETATM    1  C9  UNL     1      33.849 -21.396  58.241  1.00  0.00     0.087 C 
HETATM    2  C10 UNL     1      33.732 -20.371  57.099  1.00  0.00     0.118 C 
HETATM    3  C11 UNL     1      34.876 -20.392  56.160  1.00  0.00     0.134 C 
HETATM    4  O3  UNL     1      35.418 -19.368  55.850  1.00  0.00    -0.297 OA
HETATM    5  C12 UNL     1      35.374 -21.678  55.584  1.00  0.00     0.057 C 
HETATM    6  C13 UNL     1      34.755 -21.735  54.176  1.00  0.00     0.018 C 
HETATM    7  C14 UNL     1      34.641 -22.679  56.413  1.00  0.00     0.019 C 
HETATM    8  C15 UNL     1      34.715 -24.085  56.155  1.00  0.00     0.023 A 
HETATM    9  C16 UNL     1      35.622 -24.990  55.521  1.00  0.00     0.040 A 
HETATM   10  C17 UNL     1      36.086 -24.473  56.791  1.00  0.00     0.129 A 
HETATM   11  O4  UNL     1      35.740 -24.647  58.062  1.00  0.00    -0.355 OA
HETATM   12  C18 UNL     1      34.747 -23.747  58.568  1.00  0.00     0.271 C 
HETATM   13  C21 UNL     1      34.890 -22.385  57.908  1.00  0.00     0.043 C 
HETATM   14  C22 UNL     1      36.214 -21.852  58.247  1.00  0.00     0.024 C 
ENDROOT
BRANCH   1  15
HETATM   15  C8  UNL     1      33.892 -20.645  59.503  1.00  0.00     0.133 C 
BRANCH  15  16
HETATM   16  C7  UNL     1      32.697 -19.739  59.493  1.00  0.00    -0.103 C 
HETATM   17  C6  UNL     1      31.738 -19.008  59.505  1.00  0.00    -0.097 C 
BRANCH  17  18
HETATM   18  C5  UNL     1      30.575 -18.121  59.507  1.00  0.00     0.196 C 
BRANCH  18  19
HETATM   19  C4  UNL     1      30.453 -17.359  58.261  1.00  0.00     0.229 C 
HETATM   20  N1  UNL     1      29.194 -17.054  57.690  1.00  0.00    -0.357 N 
ATOM     21  H1  UNL     1      28.354 -17.381  58.169  1.00  0.00     0.162 HD
HETATM   22  O1  UNL     1      31.497 -16.962  57.685  1.00  0.00    -0.273 OA
BRANCH  20  23
HETATM   23  C3  UNL     1      29.035 -16.305  56.464  1.00  0.00     0.149 C 
BRANCH  23  24
HETATM   24  C2  UNL     1      28.559 -17.168  55.349  1.00  0.00    -0.018 C 
HETATM   25  C1  UNL     1      28.791 -18.452  55.372  1.00  0.00     0.008 C 
ENDBRANCH  23  24
ENDBRANCH  20  23
ENDBRANCH  18  19
ENDBRANCH  17  18
ENDBRANCH  15  16
ENDBRANCH   1  15
BRANCH   1  26
HETATM   26  O2  UNL     1      32.615 -22.111  58.236  1.00  0.00    -0.388 OA
ATOM     27  H2  UNL     1      32.817 -23.000  58.507  1.00  0.00     0.210 HD
ENDBRANCH   1  26
BRANCH  12  28
HETATM   28  O5  UNL     1      35.091 -23.670  59.928  1.00  0.00    -0.361 OA
BRANCH  28  29
HETATM   29  C19 UNL     1      34.417 -24.632  60.626  1.00  0.00     0.166 C 
HETATM   30  C20 UNL     1      32.909 -24.444  60.567  1.00  0.00     0.033 C 
ENDBRANCH  28  29
ENDBRANCH  12  28
TORSDOF 9
ENDMDL
