MODEL 1
REMARK VINA RESULT: -7.915479131      0.000      0.000
REMARK  6 active torsions:
REMARK  status: ('A' for Active; 'I' for Inactive)
REMARK    1  A    between atoms: C2_2  and  N1_3 
REMARK       I    between atoms: N1_3  and  C3_5 
REMARK    2  A    between atoms: C3_5  and  O2_7 
REMARK    3  A    between atoms: O2_7  and  C4_8 
REMARK    4  A    between atoms: C4_8  and  C5_9 
REMARK    5  A    between atoms: C7_11  and  O3_12 
REMARK    6  A    between atoms: C8_14  and  O4_15 
ROOT
HETATM    1  C5  UNL     1      10.751 -27.717 -17.823  1.00  0.00     0.021 C 
HETATM    2  C6  UNL     1      11.813 -27.864 -16.798  1.00  0.00     0.041 C 
HETATM    3  C7  UNL     1      11.536 -29.249 -16.186  1.00  0.00     0.147 C 
HETATM    4  C8  UNL     1      10.281 -29.067 -15.388  1.00  0.00     0.152 C 
HETATM    5  C9  UNL     1       9.103 -28.488 -16.092  1.00  0.00     0.031 C 
HETATM    6  C10 UNL     1       8.154 -28.005 -15.044  1.00  0.00     0.009 C 
HETATM    7  C11 UNL     1       8.805 -27.469 -13.808  1.00  0.00     0.033 C 
HETATM    8  C12 UNL     1       7.797 -26.606 -13.197  1.00  0.00    -0.029 C 
HETATM    9  C13 UNL     1       6.906 -26.268 -14.087  1.00  0.00    -0.020 C 
HETATM   10  C14 UNL     1       7.247 -26.891 -15.394  1.00  0.00    -0.015 C 
HETATM   11  C15 UNL     1       5.873 -27.391 -15.873  1.00  0.00     0.021 C 
HETATM   12  C16 UNL     1       7.824 -25.836 -16.266  1.00  0.00    -0.036 C 
HETATM   13  C17 UNL     1       8.051 -24.525 -15.492  1.00  0.00     0.016 C 
HETATM   14  C18 UNL     1       6.836 -25.456 -17.367  1.00  0.00     0.016 C 
HETATM   15  C19 UNL     1       9.133 -26.171 -16.885  1.00  0.00     0.020 C 
HETATM   16  C20 UNL     1       9.338 -27.607 -17.259  1.00  0.00    -0.031 C 
HETATM   17  C21 UNL     1       8.470 -27.973 -18.481  1.00  0.00     0.016 C 
ENDROOT
BRANCH   1  18
HETATM   18  C4  UNL     1      11.024 -26.671 -18.860  1.00  0.00     0.186 C 
BRANCH  18  19
HETATM   19  O2  UNL     1      12.229 -27.007 -19.512  1.00  0.00    -0.304 OA
BRANCH  19  20
HETATM   20  C3  UNL     1      12.393 -28.219 -20.166  1.00  0.00     0.360 C 
HETATM   21  N1  UNL     1      11.689 -28.435 -21.363  1.00  0.00    -0.337 N 
ATOM     22  H1  UNL     1      11.078 -27.701 -21.721  1.00  0.00     0.164 HD
HETATM   23  O1  UNL     1      13.173 -29.084 -19.657  1.00  0.00    -0.239 OA
BRANCH  21  24
HETATM   24  C2  UNL     1      11.813 -29.695 -22.111  1.00  0.00     0.120 C 
HETATM   25  C1  UNL     1      10.898 -30.736 -21.504  1.00  0.00     0.026 C 
ENDBRANCH  21  24
ENDBRANCH  19  20
ENDBRANCH  18  19
ENDBRANCH   1  18
BRANCH   3  26
HETATM   26  O3  UNL     1      11.427 -30.172 -17.206  1.00  0.00    -0.393 OA
ATOM     27  H3  UNL     1      12.297 -30.472 -17.440  1.00  0.00     0.210 HD
ENDBRANCH   3  26
BRANCH   4  28
HETATM   28  O4  UNL     1       9.941 -30.356 -14.934  1.00  0.00    -0.393 OA
ATOM     29  H4  UNL     1       9.013 -30.314 -14.739  1.00  0.00     0.210 HD
ENDBRANCH   4  28
TORSDOF 6
ENDMDL
MODEL 2
REMARK VINA RESULT: -7.702023095      2.205      3.806
REMARK  6 active torsions:
REMARK  status: ('A' for Active; 'I' for Inactive)
REMARK    1  A    between atoms: C2_2  and  N1_3 
REMARK       I    between atoms: N1_3  and  C3_5 
REMARK    2  A    between atoms: C3_5  and  O2_7 
REMARK    3  A    between atoms: O2_7  and  C4_8 
REMARK    4  A    between atoms: C4_8  and  C5_9 
REMARK    5  A    between atoms: C7_11  and  O3_12 
REMARK    6  A    between atoms: C8_14  and  O4_15 
ROOT
HETATM    1  C5  UNL     1      12.689 -28.303 -18.587  1.00  0.00     0.021 C 
HETATM    2  C6  UNL     1      12.324 -27.405 -19.710  1.00  0.00     0.041 C 
HETATM    3  C7  UNL     1      12.382 -26.000 -19.082  1.00  0.00     0.147 C 
HETATM    4  C8  UNL     1      11.196 -25.943 -18.168  1.00  0.00     0.152 C 
HETATM    5  C9  UNL     1      11.059 -27.033 -17.161  1.00  0.00     0.031 C 
HETATM    6  C10 UNL     1       9.643 -27.018 -16.684  1.00  0.00     0.009 C 
HETATM    7  C11 UNL     1       8.636 -26.633 -17.722  1.00  0.00     0.033 C 
HETATM    8  C12 UNL     1       7.371 -27.181 -17.239  1.00  0.00    -0.029 C 
HETATM    9  C13 UNL     1       7.602 -28.124 -16.369  1.00  0.00    -0.020 C 
HETATM   10  C14 UNL     1       9.070 -28.288 -16.189  1.00  0.00    -0.015 C 
HETATM   11  C15 UNL     1       9.186 -28.419 -14.660  1.00  0.00     0.021 C 
HETATM   12  C16 UNL     1       9.485 -29.514 -16.916  1.00  0.00    -0.036 C 
HETATM   13  C17 UNL     1       8.329 -30.093 -17.753  1.00  0.00     0.016 C 
HETATM   14  C18 UNL     1       9.829 -30.628 -15.930  1.00  0.00     0.016 C 
HETATM   15  C19 UNL     1      10.617 -29.337 -17.862  1.00  0.00     0.020 C 
HETATM   16  C20 UNL     1      11.669 -28.349 -17.455  1.00  0.00    -0.031 C 
HETATM   17  C21 UNL     1      12.505 -28.907 -16.284  1.00  0.00     0.016 C 
ENDROOT
BRANCH   1  18
HETATM   18  C4  UNL     1      13.130 -29.673 -19.001  1.00  0.00     0.186 C 
BRANCH  18  19
HETATM   19  O2  UNL     1      13.996 -29.537 -20.107  1.00  0.00    -0.304 OA
BRANCH  19  20
HETATM   20  C3  UNL     1      13.828 -30.287 -21.262  1.00  0.00     0.360 C 
HETATM   21  N1  UNL     1      12.596 -30.218 -21.933  1.00  0.00    -0.337 N 
ATOM     22  H1  UNL     1      11.857 -29.622 -21.559  1.00  0.00     0.164 HD
HETATM   23  O1  UNL     1      14.796 -31.006 -21.666  1.00  0.00    -0.239 OA
BRANCH  21  24
HETATM   24  C2  UNL     1      12.346 -30.985 -23.163  1.00  0.00     0.120 C 
HETATM   25  C1  UNL     1      11.728 -32.320 -22.810  1.00  0.00     0.026 C 
ENDBRANCH  21  24
ENDBRANCH  19  20
ENDBRANCH  18  19
ENDBRANCH   1  18
BRANCH   3  26
HETATM   26  O3  UNL     1      13.595 -25.849 -18.443  1.00  0.00    -0.393 OA
ATOM     27  H3  UNL     1      13.447 -25.437 -17.600  1.00  0.00     0.210 HD
ENDBRANCH   3  26
BRANCH   4  28
HETATM   28  O4  UNL     1      11.314 -24.717 -17.487  1.00  0.00    -0.393 OA
ATOM     29  H4  UNL     1      11.902 -24.193 -18.018  1.00  0.00     0.210 HD
ENDBRANCH   4  28
TORSDOF 6
ENDMDL
MODEL 3
REMARK VINA RESULT: -7.587606775      3.634      6.054
REMARK  6 active torsions:
REMARK  status: ('A' for Active; 'I' for Inactive)
REMARK    1  A    between atoms: C2_2  and  N1_3 
REMARK       I    between atoms: N1_3  and  C3_5 
REMARK    2  A    between atoms: C3_5  and  O2_7 
REMARK    3  A    between atoms: O2_7  and  C4_8 
REMARK    4  A    between atoms: C4_8  and  C5_9 
REMARK    5  A    between atoms: C7_11  and  O3_12 
REMARK    6  A    between atoms: C8_14  and  O4_15 
ROOT
HETATM    1  C5  UNL     1       7.219 -25.663 -16.385  1.00  0.00     0.021 C 
HETATM    2  C6  UNL     1       6.176 -26.408 -15.639  1.00  0.00     0.041 C 
HETATM    3  C7  UNL     1       6.790 -26.585 -14.239  1.00  0.00     0.147 C 
HETATM    4  C8  UNL     1       7.888 -27.587 -14.430  1.00  0.00     0.152 C 
HETATM    5  C9  UNL     1       8.900 -27.296 -15.484  1.00  0.00     0.031 C 
HETATM    6  C10 UNL     1       9.605 -28.579 -15.787  1.00  0.00     0.009 C 
HETATM    7  C11 UNL     1       8.750 -29.802 -15.686  1.00  0.00     0.033 C 
HETATM    8  C12 UNL     1       9.432 -30.805 -16.498  1.00  0.00    -0.029 C 
HETATM    9  C13 UNL     1      10.249 -30.220 -17.329  1.00  0.00    -0.020 C 
HETATM   10  C14 UNL     1      10.183 -28.746 -17.137  1.00  0.00    -0.015 C 
HETATM   11  C15 UNL     1      11.670 -28.356 -17.183  1.00  0.00     0.021 C 
HETATM   12  C16 UNL     1       9.392 -28.174 -18.256  1.00  0.00    -0.036 C 
HETATM   13  C17 UNL     1       8.755 -29.278 -19.120  1.00  0.00     0.016 C 
HETATM   14  C18 UNL     1      10.303 -27.420 -19.221  1.00  0.00     0.016 C 
HETATM   15  C19 UNL     1       8.273 -27.284 -17.851  1.00  0.00     0.020 C 
HETATM   16  C20 UNL     1       8.504 -26.447 -16.630  1.00  0.00    -0.031 C 
HETATM   17  C21 UNL     1       9.518 -25.324 -16.934  1.00  0.00     0.016 C 
ENDROOT
BRANCH   1  18
HETATM   18  C4  UNL     1       6.732 -24.981 -17.627  1.00  0.00     0.186 C 
BRANCH  18  19
HETATM   19  O2  UNL     1       6.216 -23.721 -17.260  1.00  0.00    -0.304 OA
BRANCH  19  20
HETATM   20  C3  UNL     1       5.946 -22.739 -18.202  1.00  0.00     0.360 C 
HETATM   21  N1  UNL     1       6.856 -21.679 -18.345  1.00  0.00    -0.337 N 
ATOM     22  H1  UNL     1       7.689 -21.655 -17.757  1.00  0.00     0.164 HD
HETATM   23  O1  UNL     1       4.887 -22.840 -18.898  1.00  0.00    -0.239 OA
BRANCH  21  24
HETATM   24  C2  UNL     1       6.637 -20.603 -19.323  1.00  0.00     0.120 C 
HETATM   25  C1  UNL     1       7.950 -20.246 -19.986  1.00  0.00     0.026 C 
ENDBRANCH  21  24
ENDBRANCH  19  20
ENDBRANCH  18  19
ENDBRANCH   1  18
BRANCH   3  26
HETATM   26  O3  UNL     1       7.220 -25.356 -13.784  1.00  0.00    -0.393 OA
ATOM     27  H3  UNL     1       7.741 -25.486 -13.000  1.00  0.00     0.210 HD
ENDBRANCH   3  26
BRANCH   4  28
HETATM   28  O4  UNL     1       8.546 -27.656 -13.187  1.00  0.00    -0.393 OA
ATOM     29  H4  UNL     1       8.069 -28.310 -12.690  1.00  0.00     0.210 HD
ENDBRANCH   4  28
TORSDOF 6
ENDMDL
MODEL 4
REMARK VINA RESULT: -7.382039428      3.527      6.234
REMARK  6 active torsions:
REMARK  status: ('A' for Active; 'I' for Inactive)
REMARK    1  A    between atoms: C2_2  and  N1_3 
REMARK       I    between atoms: N1_3  and  C3_5 
REMARK    2  A    between atoms: C3_5  and  O2_7 
REMARK    3  A    between atoms: O2_7  and  C4_8 
REMARK    4  A    between atoms: C4_8  and  C5_9 
REMARK    5  A    between atoms: C7_11  and  O3_12 
REMARK    6  A    between atoms: C8_14  and  O4_15 
ROOT
HETATM    1  C5  UNL     1       7.932 -25.928 -16.153  1.00  0.00     0.021 C 
HETATM    2  C6  UNL     1       6.819 -26.559 -15.402  1.00  0.00     0.041 C 
HETATM    3  C7  UNL     1       7.494 -27.061 -14.112  1.00  0.00     0.147 C 
HETATM    4  C8  UNL     1       8.340 -28.216 -14.551  1.00  0.00     0.152 C 
HETATM    5  C9  UNL     1       9.303 -27.973 -15.662  1.00  0.00     0.031 C 
HETATM    6  C10 UNL     1       9.699 -29.308 -16.204  1.00  0.00     0.009 C 
HETATM    7  C11 UNL     1       8.619 -30.343 -16.172  1.00  0.00     0.033 C 
HETATM    8  C12 UNL     1       9.011 -31.326 -17.178  1.00  0.00    -0.029 C 
HETATM    9  C13 UNL     1       9.862 -30.792 -18.009  1.00  0.00    -0.020 C 
HETATM   10  C14 UNL     1      10.119 -29.380 -17.619  1.00  0.00    -0.015 C 
HETATM   11  C15 UNL     1      11.647 -29.284 -17.776  1.00  0.00     0.021 C 
HETATM   12  C16 UNL     1       9.378 -28.504 -18.562  1.00  0.00    -0.036 C 
HETATM   13  C17 UNL     1       8.458 -29.321 -19.488  1.00  0.00     0.016 C 
HETATM   14  C18 UNL     1      10.345 -27.805 -19.514  1.00  0.00     0.016 C 
HETATM   15  C19 UNL     1       8.504 -27.485 -17.925  1.00  0.00     0.020 C 
HETATM   16  C20 UNL     1       9.001 -26.900 -16.637  1.00  0.00    -0.031 C 
HETATM   17  C21 UNL     1      10.199 -25.964 -16.900  1.00  0.00     0.016 C 
ENDROOT
BRANCH   1  18
HETATM   18  C4  UNL     1       7.499 -24.986 -17.235  1.00  0.00     0.186 C 
BRANCH  18  19
HETATM   19  O2  UNL     1       7.775 -23.671 -16.806  1.00  0.00    -0.304 OA
BRANCH  19  20
HETATM   20  C3  UNL     1       6.793 -22.862 -16.252  1.00  0.00     0.360 C 
HETATM   21  N1  UNL     1       5.908 -22.197 -17.116  1.00  0.00    -0.337 N 
ATOM     22  H1  UNL     1       6.006 -22.321 -18.124  1.00  0.00     0.164 HD
HETATM   23  O1  UNL     1       6.734 -22.757 -14.986  1.00  0.00    -0.239 OA
BRANCH  21  24
HETATM   24  C2  UNL     1       4.842 -21.323 -16.602  1.00  0.00     0.120 C 
HETATM   25  C1  UNL     1       4.176 -20.604 -17.756  1.00  0.00     0.026 C 
ENDBRANCH  21  24
ENDBRANCH  19  20
ENDBRANCH  18  19
ENDBRANCH   1  18
BRANCH   3  26
HETATM   26  O3  UNL     1       8.205 -26.021 -13.550  1.00  0.00    -0.393 OA
ATOM     27  H3  UNL     1       8.897 -26.382 -13.008  1.00  0.00     0.210 HD
ENDBRANCH   3  26
BRANCH   4  28
HETATM   28  O4  UNL     1       9.067 -28.597 -13.406  1.00  0.00    -0.393 OA
ATOM     29  H4  UNL     1       8.538 -28.313 -12.670  1.00  0.00     0.210 HD
ENDBRANCH   4  28
TORSDOF 6
ENDMDL
MODEL 5
REMARK VINA RESULT: -7.337229953      1.790      3.246
REMARK  6 active torsions:
REMARK  status: ('A' for Active; 'I' for Inactive)
REMARK    1  A    between atoms: C2_2  and  N1_3 
REMARK       I    between atoms: N1_3  and  C3_5 
REMARK    2  A    between atoms: C3_5  and  O2_7 
REMARK    3  A    between atoms: O2_7  and  C4_8 
REMARK    4  A    between atoms: C4_8  and  C5_9 
REMARK    5  A    between atoms: C7_11  and  O3_12 
REMARK    6  A    between atoms: C8_14  and  O4_15 
ROOT
HETATM    1  C5  UNL     1      10.413 -28.876 -19.025  1.00  0.00     0.021 C 
HETATM    2  C6  UNL     1      10.834 -27.844 -20.004  1.00  0.00     0.041 C 
HETATM    3  C7  UNL     1      12.033 -27.163 -19.318  1.00  0.00     0.147 C 
HETATM    4  C8  UNL     1      11.431 -26.377 -18.194  1.00  0.00     0.152 C 
HETATM    5  C9  UNL     1      10.549 -27.112 -17.244  1.00  0.00     0.031 C 
HETATM    6  C10 UNL     1       9.745 -26.089 -16.507  1.00  0.00     0.009 C 
HETATM    7  C11 UNL     1       9.380 -24.882 -17.310  1.00  0.00     0.033 C 
HETATM    8  C12 UNL     1       8.219 -24.315 -16.628  1.00  0.00    -0.029 C 
HETATM    9  C13 UNL     1       7.663 -25.223 -15.874  1.00  0.00    -0.020 C 
HETATM   10  C14 UNL     1       8.423 -26.497 -15.987  1.00  0.00    -0.015 C 
HETATM   11  C15 UNL     1       8.493 -26.952 -14.518  1.00  0.00     0.021 C 
HETATM   12  C16 UNL     1       7.643 -27.419 -16.850  1.00  0.00    -0.036 C 
HETATM   13  C17 UNL     1       6.432 -26.711 -17.485  1.00  0.00     0.016 C 
HETATM   14  C18 UNL     1       7.028 -28.539 -16.014  1.00  0.00     0.016 C 
HETATM   15  C19 UNL     1       8.397 -28.018 -17.981  1.00  0.00     0.020 C 
HETATM   16  C20 UNL     1       9.843 -28.320 -17.725  1.00  0.00    -0.031 C 
HETATM   17  C21 UNL     1       9.978 -29.524 -16.769  1.00  0.00     0.016 C 
ENDROOT
BRANCH   1  18
HETATM   18  C4  UNL     1       9.555 -29.963 -19.595  1.00  0.00     0.186 C 
BRANCH  18  19
HETATM   19  O2  UNL     1      10.403 -30.929 -20.178  1.00  0.00    -0.304 OA
BRANCH  19  20
HETATM   20  C3  UNL     1      11.177 -30.643 -21.292  1.00  0.00     0.360 C 
HETATM   21  N1  UNL     1      12.569 -30.540 -21.133  1.00  0.00    -0.337 N 
ATOM     22  H1  UNL     1      12.976 -30.677 -20.208  1.00  0.00     0.164 HD
HETATM   23  O1  UNL     1      10.596 -30.487 -22.413  1.00  0.00    -0.239 OA
BRANCH  21  24
HETATM   24  C2  UNL     1      13.454 -30.241 -22.269  1.00  0.00     0.120 C 
HETATM   25  C1  UNL     1      14.748 -31.011 -22.120  1.00  0.00     0.026 C 
ENDBRANCH  21  24
ENDBRANCH  19  20
ENDBRANCH  18  19
ENDBRANCH   1  18
BRANCH   3  26
HETATM   26  O3  UNL     1      12.924 -28.136 -18.914  1.00  0.00    -0.393 OA
ATOM     27  H3  UNL     1      13.280 -28.563 -19.684  1.00  0.00     0.210 HD
ENDBRANCH   3  26
BRANCH   4  28
HETATM   28  O4  UNL     1      12.528 -25.861 -17.477  1.00  0.00    -0.393 OA
ATOM     29  H4  UNL     1      13.230 -26.485 -17.613  1.00  0.00     0.210 HD
ENDBRANCH   4  28
TORSDOF 6
ENDMDL
