MODEL 1
REMARK VINA RESULT: -8.458725248      0.000      0.000
REMARK  5 active torsions:
REMARK  status: ('A' for Active; 'I' for Inactive)
REMARK    1  A    between atoms: O1_2  and  C2_3 
REMARK    2  A    between atoms: C2_3  and  C3_4 
REMARK    3  A    between atoms: C6_7  and  O2_8 
REMARK    4  A    between atoms: C10_13  and  O3_14 
REMARK    5  A    between atoms: C16_21  and  C18_23 
ROOT
HETATM    1  C3  UNL     1      10.291 -29.008 -18.768  1.00  0.00    -0.008 C 
HETATM    2  C4  UNL     1       8.975 -28.330 -19.073  1.00  0.00     0.018 C 
HETATM    3  C5  UNL     1      11.067 -29.012 -20.056  1.00  0.00     0.030 C 
HETATM    4  C6  UNL     1      10.327 -29.285 -21.291  1.00  0.00     0.124 C 
HETATM    5  C7  UNL     1      11.145 -29.669 -22.490  1.00  0.00     0.044 C 
HETATM    6  C8  UNL     1      12.314 -30.538 -22.212  1.00  0.00    -0.012 C 
HETATM    7  C9  UNL     1      11.962 -31.947 -21.832  1.00  0.00     0.018 C 
HETATM    8  C10 UNL     1      13.337 -30.566 -23.298  1.00  0.00     0.126 C 
HETATM    9  C11 UNL     1      14.629 -30.879 -22.552  1.00  0.00     0.033 C 
HETATM   10  C12 UNL     1      14.360 -30.585 -21.092  1.00  0.00     0.008 C 
HETATM   11  C13 UNL     1      13.089 -29.833 -21.116  1.00  0.00     0.001 C 
HETATM   12  C14 UNL     1      12.324 -29.834 -19.812  1.00  0.00    -0.001 C 
HETATM   13  C15 UNL     1      13.160 -29.063 -18.849  1.00  0.00     0.026 C 
HETATM   14  C16 UNL     1      12.516 -28.435 -17.687  1.00  0.00     0.053 C 
HETATM   15  C17 UNL     1      12.886 -29.250 -16.441  1.00  0.00     0.027 C 
HETATM   16  C19 UNL     1      11.057 -28.112 -17.789  1.00  0.00    -0.021 C 
HETATM   17  C20 UNL     1      10.924 -26.665 -18.236  1.00  0.00     0.017 C 
HETATM   18  C21 UNL     1      10.434 -28.112 -16.407  1.00  0.00     0.017 C 
ENDROOT
BRANCH   1  19
HETATM   19  C2  UNL     1       9.990 -30.368 -18.236  1.00  0.00     0.177 C 
BRANCH  19  20
HETATM   20  O1  UNL     1       8.617 -30.616 -18.267  1.00  0.00    -0.395 OA
HETATM   21  C1  UNL     1       8.224 -31.585 -17.379  1.00  0.00     0.201 C 
ENDBRANCH  19  20
ENDBRANCH   1  19
BRANCH   4  22
HETATM   22  O2  UNL     1       9.279 -30.187 -21.239  1.00  0.00    -0.395 OA
ATOM     23  H2  UNL     1       9.391 -31.030 -21.664  1.00  0.00     0.210 HD
ENDBRANCH   4  22
BRANCH  14  24
HETATM   24  C18 UNL     1      13.252 -27.141 -17.441  1.00  0.00     0.182 C 
HETATM   25  O4  UNL     1      13.797 -26.890 -16.312  1.00  0.00    -0.647 OA
HETATM   26  O5  UNL     1      13.394 -26.152 -18.390  1.00  0.00    -0.647 OA
ENDBRANCH  14  24
BRANCH   8  27
HETATM   27  O3  UNL     1      13.403 -29.330 -23.931  1.00  0.00    -0.395 OA
ATOM     28  H3  UNL     1      14.264 -28.945 -23.817  1.00  0.00     0.210 HD
ENDBRANCH   8  27
TORSDOF 5
ENDMDL
MODEL 2
REMARK VINA RESULT: -8.382092186      3.104      6.668
REMARK  5 active torsions:
REMARK  status: ('A' for Active; 'I' for Inactive)
REMARK    1  A    between atoms: O1_2  and  C2_3 
REMARK    2  A    between atoms: C2_3  and  C3_4 
REMARK    3  A    between atoms: C6_7  and  O2_8 
REMARK    4  A    between atoms: C10_13  and  O3_14 
REMARK    5  A    between atoms: C16_21  and  C18_23 
ROOT
HETATM    1  C3  UNL     1       9.976 -28.897 -16.381  1.00  0.00    -0.008 C 
HETATM    2  C4  UNL     1      10.473 -29.709 -15.207  1.00  0.00     0.018 C 
HETATM    3  C5  UNL     1       9.391 -27.639 -15.801  1.00  0.00     0.030 C 
HETATM    4  C6  UNL     1       8.614 -27.762 -14.564  1.00  0.00     0.124 C 
HETATM    5  C7  UNL     1       7.726 -26.603 -14.213  1.00  0.00     0.044 C 
HETATM    6  C8  UNL     1       7.049 -25.950 -15.360  1.00  0.00    -0.012 C 
HETATM    7  C9  UNL     1       5.958 -26.771 -15.984  1.00  0.00     0.018 C 
HETATM    8  C10 UNL     1       6.527 -24.582 -15.073  1.00  0.00     0.126 C 
HETATM    9  C11 UNL     1       6.553 -23.905 -16.438  1.00  0.00     0.033 C 
HETATM   10  C12 UNL     1       7.465 -24.741 -17.310  1.00  0.00     0.008 C 
HETATM   11  C13 UNL     1       8.151 -25.627 -16.349  1.00  0.00     0.001 C 
HETATM   12  C14 UNL     1       8.739 -26.883 -16.949  1.00  0.00    -0.001 C 
HETATM   13  C15 UNL     1       9.841 -26.431 -17.845  1.00  0.00     0.026 C 
HETATM   14  C16 UNL     1      10.928 -27.366 -18.169  1.00  0.00     0.053 C 
HETATM   15  C17 UNL     1      10.739 -27.829 -19.619  1.00  0.00     0.027 C 
HETATM   16  C19 UNL     1      11.198 -28.481 -17.206  1.00  0.00    -0.021 C 
HETATM   17  C20 UNL     1      12.302 -28.032 -16.262  1.00  0.00     0.017 C 
HETATM   18  C21 UNL     1      11.818 -29.653 -17.940  1.00  0.00     0.017 C 
ENDROOT
BRANCH   1  19
HETATM   19  C2  UNL     1       8.995 -29.733 -17.131  1.00  0.00     0.177 C 
BRANCH  19  20
HETATM   20  O1  UNL     1       8.882 -30.997 -16.551  1.00  0.00    -0.395 OA
HETATM   21  C1  UNL     1       8.565 -31.979 -17.455  1.00  0.00     0.201 C 
ENDBRANCH  19  20
ENDBRANCH   1  19
BRANCH   4  22
HETATM   22  O2  UNL     1       7.846 -28.899 -14.385  1.00  0.00    -0.395 OA
ATOM     23  H2  UNL     1       7.513 -29.083 -13.514  1.00  0.00     0.210 HD
ENDBRANCH   4  22
BRANCH  14  24
HETATM   24  C18 UNL     1      12.184 -26.536 -18.269  1.00  0.00     0.182 C 
HETATM   25  O4  UNL     1      13.224 -26.973 -18.872  1.00  0.00    -0.647 OA
HETATM   26  O5  UNL     1      12.309 -25.273 -17.733  1.00  0.00    -0.647 OA
ENDBRANCH  14  24
BRANCH   8  27
HETATM   27  O3  UNL     1       7.356 -23.928 -14.167  1.00  0.00    -0.395 OA
ATOM     28  H3  UNL     1       7.569 -23.058 -14.483  1.00  0.00     0.210 HD
ENDBRANCH   8  27
TORSDOF 5
ENDMDL
MODEL 3
REMARK VINA RESULT: -7.508569570      2.723      6.271
REMARK  5 active torsions:
REMARK  status: ('A' for Active; 'I' for Inactive)
REMARK    1  A    between atoms: O1_2  and  C2_3 
REMARK    2  A    between atoms: C2_3  and  C3_4 
REMARK    3  A    between atoms: C6_7  and  O2_8 
REMARK    4  A    between atoms: C10_13  and  O3_14 
REMARK    5  A    between atoms: C16_21  and  C18_23 
ROOT
HETATM    1  C3  UNL     1       9.970 -29.108 -17.497  1.00  0.00    -0.008 C 
HETATM    2  C4  UNL     1       9.949 -30.399 -16.711  1.00  0.00     0.018 C 
HETATM    3  C5  UNL     1       9.443 -28.047 -16.572  1.00  0.00     0.030 C 
HETATM    4  C6  UNL     1       8.315 -28.404 -15.706  1.00  0.00     0.124 C 
HETATM    5  C7  UNL     1       7.558 -27.263 -15.089  1.00  0.00     0.044 C 
HETATM    6  C8  UNL     1       7.377 -26.075 -15.958  1.00  0.00    -0.012 C 
HETATM    7  C9  UNL     1       6.415 -26.277 -17.092  1.00  0.00     0.018 C 
HETATM    8  C10 UNL     1       7.017 -24.825 -15.228  1.00  0.00     0.126 C 
HETATM    9  C11 UNL     1       7.566 -23.724 -16.129  1.00  0.00     0.033 C 
HETATM   10  C12 UNL     1       8.558 -24.391 -17.058  1.00  0.00     0.008 C 
HETATM   11  C13 UNL     1       8.767 -25.720 -16.451  1.00  0.00     0.001 C 
HETATM   12  C14 UNL     1       9.303 -26.773 -17.392  1.00  0.00    -0.001 C 
HETATM   13  C15 UNL     1      10.683 -26.339 -17.747  1.00  0.00     0.026 C 
HETATM   14  C16 UNL     1      11.655 -27.343 -18.201  1.00  0.00     0.053 C 
HETATM   15  C17 UNL     1      11.849 -27.167 -19.712  1.00  0.00     0.027 C 
HETATM   16  C19 UNL     1      11.437 -28.764 -17.780  1.00  0.00    -0.021 C 
HETATM   17  C20 UNL     1      12.254 -29.014 -16.523  1.00  0.00     0.017 C 
HETATM   18  C21 UNL     1      12.058 -29.701 -18.796  1.00  0.00     0.017 C 
ENDROOT
BRANCH   1  19
HETATM   19  C2  UNL     1       9.148 -29.308 -18.724  1.00  0.00     0.177 C 
BRANCH  19  20
HETATM   20  O1  UNL     1       9.655 -30.356 -19.492  1.00  0.00    -0.395 OA
HETATM   21  C1  UNL     1       9.700 -30.072 -20.833  1.00  0.00     0.201 C 
ENDBRANCH  19  20
ENDBRANCH   1  19
BRANCH   4  22
HETATM   22  O2  UNL     1       7.359 -29.272 -16.203  1.00  0.00    -0.395 OA
ATOM     23  H2  UNL     1       6.472 -29.199 -15.872  1.00  0.00     0.210 HD
ENDBRANCH   4  22
BRANCH  14  24
HETATM   24  C18 UNL     1      12.996 -26.910 -17.663  1.00  0.00     0.182 C 
HETATM   25  O4  UNL     1      13.208 -25.703 -17.297  1.00  0.00    -0.647 OA
HETATM   26  O5  UNL     1      14.074 -27.757 -17.527  1.00  0.00    -0.647 OA
ENDBRANCH  14  24
BRANCH   8  27
HETATM   27  O3  UNL     1       7.620 -24.804 -13.976  1.00  0.00    -0.395 OA
ATOM     28  H3  UNL     1       8.565 -24.750 -14.065  1.00  0.00     0.210 HD
ENDBRANCH   8  27
TORSDOF 5
ENDMDL
MODEL 4
REMARK VINA RESULT: -7.094935279      3.699      5.701
REMARK  5 active torsions:
REMARK  status: ('A' for Active; 'I' for Inactive)
REMARK    1  A    between atoms: O1_2  and  C2_3 
REMARK    2  A    between atoms: C2_3  and  C3_4 
REMARK    3  A    between atoms: C6_7  and  O2_8 
REMARK    4  A    between atoms: C10_13  and  O3_14 
REMARK    5  A    between atoms: C16_21  and  C18_23 
ROOT
HETATM    1  C3  UNL     1       7.710 -27.430 -15.504  1.00  0.00    -0.008 C 
HETATM    2  C4  UNL     1       6.784 -28.618 -15.379  1.00  0.00     0.018 C 
HETATM    3  C5  UNL     1       8.498 -27.645 -16.766  1.00  0.00     0.030 C 
HETATM    4  C6  UNL     1       8.950 -29.009 -17.058  1.00  0.00     0.124 C 
HETATM    5  C7  UNL     1      10.039 -29.149 -18.081  1.00  0.00     0.044 C 
HETATM    6  C8  UNL     1      11.085 -28.097 -18.046  1.00  0.00    -0.012 C 
HETATM    7  C9  UNL     1      12.002 -28.175 -16.861  1.00  0.00     0.018 C 
HETATM    8  C10 UNL     1      11.902 -27.995 -19.290  1.00  0.00     0.126 C 
HETATM    9  C11 UNL     1      12.337 -26.534 -19.303  1.00  0.00     0.033 C 
HETATM   10  C12 UNL     1      11.417 -25.808 -18.345  1.00  0.00     0.008 C 
HETATM   11  C13 UNL     1      10.335 -26.780 -18.095  1.00  0.00     0.001 C 
HETATM   12  C14 UNL     1       9.549 -26.546 -16.826  1.00  0.00    -0.001 C 
HETATM   13  C15 UNL     1       8.816 -25.265 -17.030  1.00  0.00     0.026 C 
HETATM   14  C16 UNL     1       7.597 -25.006 -16.252  1.00  0.00     0.053 C 
HETATM   15  C17 UNL     1       7.930 -23.958 -15.183  1.00  0.00     0.027 C 
HETATM   16  C19 UNL     1       6.841 -26.188 -15.728  1.00  0.00    -0.021 C 
HETATM   17  C20 UNL     1       5.744 -26.526 -16.725  1.00  0.00     0.017 C 
HETATM   18  C21 UNL     1       6.075 -25.795 -14.481  1.00  0.00     0.017 C 
ENDROOT
BRANCH   1  19
HETATM   19  C2  UNL     1       8.545 -27.371 -14.270  1.00  0.00     0.177 C 
BRANCH  19  20
HETATM   20  O1  UNL     1       8.282 -28.465 -13.445  1.00  0.00    -0.395 OA
HETATM   21  C1  UNL     1       8.276 -28.146 -12.111  1.00  0.00     0.201 C 
ENDBRANCH  19  20
ENDBRANCH   1  19
BRANCH   4  22
HETATM   22  O2  UNL     1       9.318 -29.816 -15.996  1.00  0.00    -0.395 OA
ATOM     23  H2  UNL     1       9.604 -30.703 -16.185  1.00  0.00     0.210 HD
ENDBRANCH   4  22
BRANCH  14  24
HETATM   24  C18 UNL     1       6.669 -24.238 -17.160  1.00  0.00     0.182 C 
HETATM   25  O4  UNL     1       6.599 -22.962 -17.115  1.00  0.00    -0.647 OA
HETATM   26  O5  UNL     1       5.843 -24.834 -18.088  1.00  0.00    -0.647 OA
ENDBRANCH  14  24
BRANCH   8  27
HETATM   27  O3  UNL     1      11.128 -28.304 -20.404  1.00  0.00    -0.395 OA
ATOM     28  H3  UNL     1      11.681 -28.428 -21.167  1.00  0.00     0.210 HD
ENDBRANCH   8  27
TORSDOF 5
ENDMDL
MODEL 5
REMARK VINA RESULT: -6.010780423      1.534      4.173
REMARK  5 active torsions:
REMARK  status: ('A' for Active; 'I' for Inactive)
REMARK    1  A    between atoms: O1_2  and  C2_3 
REMARK    2  A    between atoms: C2_3  and  C3_4 
REMARK    3  A    between atoms: C6_7  and  O2_8 
REMARK    4  A    between atoms: C10_13  and  O3_14 
REMARK    5  A    between atoms: C16_21  and  C18_23 
ROOT
HETATM    1  C3  UNL     1      11.740 -28.394 -17.850  1.00  0.00    -0.008 C 
HETATM    2  C4  UNL     1      12.835 -28.388 -16.809  1.00  0.00     0.018 C 
HETATM    3  C5  UNL     1      12.083 -29.497 -18.812  1.00  0.00     0.030 C 
HETATM    4  C6  UNL     1      13.494 -29.663 -19.175  1.00  0.00     0.124 C 
HETATM    5  C7  UNL     1      13.777 -30.483 -20.400  1.00  0.00     0.044 C 
HETATM    6  C8  UNL     1      12.820 -30.307 -21.520  1.00  0.00    -0.012 C 
HETATM    7  C9  UNL     1      12.920 -28.982 -22.218  1.00  0.00     0.018 C 
HETATM    8  C10 UNL     1      12.849 -31.398 -22.536  1.00  0.00     0.126 C 
HETATM    9  C11 UNL     1      11.434 -31.386 -23.103  1.00  0.00     0.033 C 
HETATM   10  C12 UNL     1      10.586 -30.621 -22.110  1.00  0.00     0.008 C 
HETATM   11  C13 UNL     1      11.446 -30.525 -20.915  1.00  0.00     0.001 C 
HETATM   12  C14 UNL     1      11.084 -29.415 -19.956  1.00  0.00    -0.001 C 
HETATM   13  C15 UNL     1       9.755 -29.782 -19.391  1.00  0.00     0.026 C 
HETATM   14  C16 UNL     1       9.354 -29.229 -18.089  1.00  0.00     0.053 C 
HETATM   15  C17 UNL     1       8.288 -28.154 -18.338  1.00  0.00     0.027 C 
HETATM   16  C19 UNL     1      10.439 -28.801 -17.150  1.00  0.00    -0.021 C 
HETATM   17  C20 UNL     1      10.728 -29.957 -16.205  1.00  0.00     0.017 C 
HETATM   18  C21 UNL     1       9.921 -27.715 -16.229  1.00  0.00     0.017 C 
ENDROOT
BRANCH   1  19
HETATM   19  C2  UNL     1      11.694 -27.039 -18.471  1.00  0.00     0.177 C 
BRANCH  19  20
HETATM   20  O1  UNL     1      12.713 -26.231 -17.966  1.00  0.00    -0.395 OA
HETATM   21  C1  UNL     1      12.414 -24.893 -18.012  1.00  0.00     0.201 C 
ENDBRANCH  19  20
ENDBRANCH   1  19
BRANCH   4  22
HETATM   22  O2  UNL     1      14.278 -28.529 -19.285  1.00  0.00    -0.395 OA
ATOM     23  H2  UNL     1      15.048 -28.567 -19.841  1.00  0.00     0.210 HD
ENDBRANCH   4  22
BRANCH  14  24
HETATM   24  C18 UNL     1       8.553 -30.306 -17.400  1.00  0.00     0.182 C 
HETATM   25  O4  UNL     1       7.800 -30.039 -16.401  1.00  0.00    -0.647 OA
HETATM   26  O5  UNL     1       8.568 -31.630 -17.781  1.00  0.00    -0.647 OA
ENDBRANCH  14  24
BRANCH   8  27
HETATM   27  O3  UNL     1      13.143 -32.615 -21.931  1.00  0.00    -0.395 OA
ATOM     28  H3  UNL     1      13.230 -33.298 -22.586  1.00  0.00     0.210 HD
ENDBRANCH   8  27
TORSDOF 5
ENDMDL
