MODEL 1
REMARK VINA RESULT: -5.901248650      0.000      0.000
REMARK  4 active torsions:
REMARK  status: ('A' for Active; 'I' for Inactive)
REMARK    1  A    between atoms: C2_2  and  O1_3 
REMARK    2  A    between atoms: C2_2  and  C3_5 
REMARK    3  A    between atoms: C10_12  and  C11_13 
REMARK    4  A    between atoms: C11_13  and  O2_14 
ROOT
HETATM    1  C3  UNL     1      22.724  35.696  -6.302  1.00  0.00    -0.014 C 
HETATM    2  C4  UNL     1      21.666  34.925  -5.569  1.00  0.00     0.018 C 
HETATM    3  C5  UNL     1      22.864  35.321  -7.748  1.00  0.00     0.012 C 
HETATM    4  C6  UNL     1      23.985  34.489  -8.169  1.00  0.00     0.002 C 
HETATM    5  C7  UNL     1      25.236  34.470  -7.320  1.00  0.00     0.010 C 
HETATM    6  C8  UNL     1      24.825  34.437  -5.916  1.00  0.00    -0.034 C 
HETATM    7  C9  UNL     1      24.071  33.170  -5.606  1.00  0.00     0.016 C 
HETATM    8  C10 UNL     1      25.639  34.833  -4.774  1.00  0.00     0.018 C 
HETATM    9  C12 UNL     1      24.422  35.667  -4.326  1.00  0.00     0.013 C 
HETATM   10  C13 UNL     1      24.056  35.734  -5.723  1.00  0.00     0.005 C 
ENDROOT
BRANCH   1  11
HETATM   11  C2  UNL     1      22.209  37.155  -6.278  1.00  0.00     0.122 C 
HETATM   12  C1  UNL     1      22.446  37.837  -7.586  1.00  0.00     0.040 C 
BRANCH  11  13
HETATM   13  O1  UNL     1      20.871  37.156  -5.920  1.00  0.00    -0.395 OA
ATOM     14  H1  UNL     1      20.750  37.089  -4.980  1.00  0.00     0.210 HD
ENDBRANCH  11  13
ENDBRANCH   1  11
BRANCH   8  15
HETATM   15  C11 UNL     1      26.908  35.542  -4.911  1.00  0.00     0.169 C 
BRANCH  15  16
HETATM   16  O2  UNL     1      27.140  36.671  -4.208  1.00  0.00    -0.400 OA
ATOM     17  H2  UNL     1      28.002  36.846  -3.847  1.00  0.00     0.209 HD
ENDBRANCH  15  16
ENDBRANCH   8  15
TORSDOF 4
ENDMDL
MODEL 2
REMARK VINA RESULT: -5.682772619      1.629      2.549
REMARK  4 active torsions:
REMARK  status: ('A' for Active; 'I' for Inactive)
REMARK    1  A    between atoms: C2_2  and  O1_3 
REMARK    2  A    between atoms: C2_2  and  C3_5 
REMARK    3  A    between atoms: C10_12  and  C11_13 
REMARK    4  A    between atoms: C11_13  and  O2_14 
ROOT
HETATM    1  C3  UNL     1      21.567  37.701  -6.229  1.00  0.00    -0.014 C 
HETATM    2  C4  UNL     1      20.428  37.447  -5.286  1.00  0.00     0.018 C 
HETATM    3  C5  UNL     1      21.183  37.661  -7.679  1.00  0.00     0.012 C 
HETATM    4  C6  UNL     1      21.527  36.494  -8.482  1.00  0.00     0.002 C 
HETATM    5  C7  UNL     1      22.685  35.626  -8.044  1.00  0.00     0.010 C 
HETATM    6  C8  UNL     1      22.613  35.482  -6.590  1.00  0.00    -0.034 C 
HETATM    7  C9  UNL     1      21.353  34.763  -6.183  1.00  0.00     0.016 C 
HETATM    8  C10 UNL     1      23.714  35.112  -5.709  1.00  0.00     0.018 C 
HETATM    9  C12 UNL     1      23.299  36.325  -4.852  1.00  0.00     0.013 C 
HETATM   10  C13 UNL     1      22.770  36.901  -6.068  1.00  0.00     0.005 C 
ENDROOT
BRANCH   1  11
HETATM   11  C2  UNL     1      21.985  39.160  -5.929  1.00  0.00     0.122 C 
HETATM   12  C1  UNL     1      21.109  40.136  -6.645  1.00  0.00     0.040 C 
BRANCH  11  13
HETATM   13  O1  UNL     1      21.981  39.358  -4.558  1.00  0.00    -0.395 OA
ATOM     14  H1  UNL     1      22.079  38.545  -4.077  1.00  0.00     0.210 HD
ENDBRANCH  11  13
ENDBRANCH   1  11
BRANCH   8  15
HETATM   15  C11 UNL     1      25.104  35.064  -6.152  1.00  0.00     0.169 C 
BRANCH  15  16
HETATM   16  O2  UNL     1      26.094  34.805  -5.271  1.00  0.00    -0.400 OA
ATOM     17  H2  UNL     1      26.937  35.235  -5.354  1.00  0.00     0.209 HD
ENDBRANCH  15  16
ENDBRANCH   8  15
TORSDOF 4
ENDMDL
MODEL 3
REMARK VINA RESULT: -5.618141718      1.210      1.553
REMARK  4 active torsions:
REMARK  status: ('A' for Active; 'I' for Inactive)
REMARK    1  A    between atoms: C2_2  and  O1_3 
REMARK    2  A    between atoms: C2_2  and  C3_5 
REMARK    3  A    between atoms: C10_12  and  C11_13 
REMARK    4  A    between atoms: C11_13  and  O2_14 
ROOT
HETATM    1  C3  UNL     1      23.617  35.390  -5.537  1.00  0.00    -0.014 C 
HETATM    2  C4  UNL     1      22.655  35.193  -4.403  1.00  0.00     0.018 C 
HETATM    3  C5  UNL     1      23.645  34.256  -6.520  1.00  0.00     0.012 C 
HETATM    4  C6  UNL     1      24.755  33.311  -6.494  1.00  0.00     0.002 C 
HETATM    5  C7  UNL     1      26.074  33.754  -5.903  1.00  0.00     0.010 C 
HETATM    6  C8  UNL     1      25.788  34.533  -4.699  1.00  0.00    -0.034 C 
HETATM    7  C9  UNL     1      25.109  33.682  -3.657  1.00  0.00     0.016 C 
HETATM    8  C10 UNL     1      26.683  35.492  -4.065  1.00  0.00     0.018 C 
HETATM    9  C12 UNL     1      25.480  36.456  -4.060  1.00  0.00     0.013 C 
HETATM   10  C13 UNL     1      24.992  35.725  -5.208  1.00  0.00     0.005 C 
ENDROOT
BRANCH   1  11
HETATM   11  C2  UNL     1      23.053  36.613  -6.299  1.00  0.00     0.122 C 
HETATM   12  C1  UNL     1      22.462  36.212  -7.612  1.00  0.00     0.040 C 
BRANCH  11  13
HETATM   13  O1  UNL     1      22.141  37.268  -5.490  1.00  0.00    -0.395 OA
ATOM     14  H1  UNL     1      22.476  37.414  -4.613  1.00  0.00     0.210 HD
ENDBRANCH  11  13
ENDBRANCH   1  11
BRANCH   8  15
HETATM   15  C11 UNL     1      27.909  35.973  -4.695  1.00  0.00     0.169 C 
BRANCH  15  16
HETATM   16  O2  UNL     1      28.071  37.286  -4.963  1.00  0.00    -0.400 OA
ATOM     17  H2  UNL     1      28.928  37.690  -4.893  1.00  0.00     0.209 HD
ENDBRANCH  15  16
ENDBRANCH   8  15
TORSDOF 4
ENDMDL
MODEL 4
REMARK VINA RESULT: -5.531659924      1.552      4.348
REMARK  4 active torsions:
REMARK  status: ('A' for Active; 'I' for Inactive)
REMARK    1  A    between atoms: C2_2  and  O1_3 
REMARK    2  A    between atoms: C2_2  and  C3_5 
REMARK    3  A    between atoms: C10_12  and  C11_13 
REMARK    4  A    between atoms: C11_13  and  O2_14 
ROOT
HETATM    1  C3  UNL     1      25.187  34.797  -4.521  1.00  0.00    -0.014 C 
HETATM    2  C4  UNL     1      26.322  35.775  -4.587  1.00  0.00     0.018 C 
HETATM    3  C5  UNL     1      25.580  33.381  -4.824  1.00  0.00     0.012 C 
HETATM    4  C6  UNL     1      25.250  32.806  -6.122  1.00  0.00     0.002 C 
HETATM    5  C7  UNL     1      24.095  33.391  -6.904  1.00  0.00     0.010 C 
HETATM    6  C8  UNL     1      24.159  34.847  -6.777  1.00  0.00    -0.034 C 
HETATM    7  C9  UNL     1      25.422  35.385  -7.398  1.00  0.00     0.016 C 
HETATM    8  C10 UNL     1      23.057  35.776  -6.987  1.00  0.00     0.018 C 
HETATM    9  C12 UNL     1      23.457  36.397  -5.634  1.00  0.00     0.013 C 
HETATM   10  C13 UNL     1      23.989  35.098  -5.288  1.00  0.00     0.005 C 
ENDROOT
BRANCH   1  11
HETATM   11  C2  UNL     1      24.757  34.821  -3.035  1.00  0.00     0.122 C 
HETATM   12  C1  UNL     1      25.554  33.854  -2.221  1.00  0.00     0.040 C 
BRANCH  11  13
HETATM   13  O1  UNL     1      24.856  36.117  -2.558  1.00  0.00    -0.395 OA
ATOM     14  H1  UNL     1      24.275  36.276  -1.823  1.00  0.00     0.210 HD
ENDBRANCH  11  13
ENDBRANCH   1  11
BRANCH   8  15
HETATM   15  C11 UNL     1      21.669  35.343  -7.128  1.00  0.00     0.169 C 
BRANCH  15  16
HETATM   16  O2  UNL     1      20.827  36.003  -7.952  1.00  0.00    -0.400 OA
ATOM     17  H2  UNL     1      20.824  36.953  -7.977  1.00  0.00     0.209 HD
ENDBRANCH  15  16
ENDBRANCH   8  15
TORSDOF 4
ENDMDL
MODEL 5
REMARK VINA RESULT: -5.253594080      1.955      3.270
REMARK  4 active torsions:
REMARK  status: ('A' for Active; 'I' for Inactive)
REMARK    1  A    between atoms: C2_2  and  O1_3 
REMARK    2  A    between atoms: C2_2  and  C3_5 
REMARK    3  A    between atoms: C10_12  and  C11_13 
REMARK    4  A    between atoms: C11_13  and  O2_14 
ROOT
HETATM    1  C3  UNL     1      24.033  35.104  -6.195  1.00  0.00    -0.014 C 
HETATM    2  C4  UNL     1      24.964  35.254  -7.362  1.00  0.00     0.018 C 
HETATM    3  C5  UNL     1      23.591  36.405  -5.592  1.00  0.00     0.012 C 
HETATM    4  C6  UNL     1      24.179  36.851  -4.335  1.00  0.00     0.002 C 
HETATM    5  C7  UNL     1      24.776  35.819  -3.405  1.00  0.00     0.010 C 
HETATM    6  C8  UNL     1      25.510  34.851  -4.219  1.00  0.00    -0.034 C 
HETATM    7  C9  UNL     1      26.662  35.512  -4.930  1.00  0.00     0.016 C 
HETATM    8  C10 UNL     1      25.870  33.496  -3.824  1.00  0.00     0.018 C 
HETATM    9  C12 UNL     1      25.286  33.055  -5.181  1.00  0.00     0.013 C 
HETATM   10  C13 UNL     1      24.446  34.230  -5.108  1.00  0.00     0.005 C 
ENDROOT
BRANCH   1  11
HETATM   11  C2  UNL     1      22.769  34.453  -6.805  1.00  0.00     0.122 C 
HETATM   12  C1  UNL     1      21.525  34.963  -6.151  1.00  0.00     0.040 C 
BRANCH  11  13
HETATM   13  O1  UNL     1      22.768  34.664  -8.173  1.00  0.00    -0.395 OA
ATOM     14  H1  UNL     1      22.216  35.394  -8.425  1.00  0.00     0.210 HD
ENDBRANCH  11  13
ENDBRANCH   1  11
BRANCH   8  15
HETATM   15  C11 UNL     1      25.332  32.846  -2.633  1.00  0.00     0.169 C 
BRANCH  15  16
HETATM   16  O2  UNL     1      25.480  33.414  -1.417  1.00  0.00    -0.400 OA
ATOM     17  H2  UNL     1      25.915  32.944  -0.715  1.00  0.00     0.209 HD
ENDBRANCH  15  16
ENDBRANCH   8  15
TORSDOF 4
ENDMDL
