MODEL 1
REMARK VINA RESULT: -6.625619151      0.000      0.000
REMARK  5 active torsions:
REMARK  status: ('A' for Active; 'I' for Inactive)
REMARK    1  A    between atoms: C3_6  and  C4_7 
REMARK    2  A    between atoms: C4_7  and  C5_8 
REMARK    3  A    between atoms: C7_12  and  N4_13 
REMARK    4  A    between atoms: C9_20  and  S1_21 
REMARK    5  A    between atoms: S1_21  and  N6_22 
ROOT
HETATM    1  C5  UNL     1     -13.283   2.026 -13.897  1.00  0.00     0.036 C 
HETATM    2  C6  UNL     1     -14.207   2.008 -12.784  1.00  0.00     0.078 A 
HETATM    3  N3  UNL     1     -14.677   3.173 -12.241  1.00  0.00    -0.190 N 
ATOM      4  H3  UNL     1     -14.386   4.067 -12.635  1.00  0.00     0.184 HD
HETATM    5  C7  UNL     1     -15.528   3.148 -11.180  1.00  0.00     0.679 A 
HETATM    6  N5  UNL     1     -15.909   1.982 -10.667  1.00  0.00    -0.155 N 
ATOM      7  H5  UNL     1     -16.546   1.963  -9.870  1.00  0.00     0.187 HD
HETATM    8  C8  UNL     1     -15.460   0.835 -11.187  1.00  0.00     0.285 A 
HETATM    9  O1  UNL     1     -15.850  -0.235 -10.664  1.00  0.00    -0.266 OA
HETATM   10  C9  UNL     1     -14.595   0.802 -12.261  1.00  0.00     0.174 A 
ENDROOT
BRANCH   1  11
HETATM   11  C4  UNL     1     -12.903   3.166 -14.435  1.00  0.00     0.052 C 
BRANCH  11  12
HETATM   12  C3  UNL     1     -11.464   3.524 -14.440  1.00  0.00     0.120 A 
HETATM   13  N2  UNL     1     -10.453   2.682 -14.106  1.00  0.00    -0.336 N 
HETATM   14  C2  UNL     1      -9.287   3.340 -14.224  1.00  0.00     0.201 A 
ATOM     15  H2  UNL     1     -10.560   1.711 -13.814  1.00  0.00     0.168 HD
HETATM   16  N1  UNL     1      -9.576   4.590 -14.631  1.00  0.00    -0.290 N 
HETATM   17  C1  UNL     1      -8.554   5.591 -14.866  1.00  0.00     0.178 C 
HETATM   18  N7  UNL     1     -10.882   4.688 -14.758  1.00  0.00    -0.283 N 
ATOM     19  H7  UNL     1     -11.379   5.528 -15.055  1.00  0.00     0.189 HD
ENDBRANCH  11  12
ENDBRANCH   1  11
BRANCH  10  20
HETATM   20  S1  UNL     1     -14.080  -0.682 -12.919  1.00  0.00     0.264 S 
HETATM   21  O2  UNL     1     -12.686  -0.753 -13.401  1.00  0.00    -0.200 OA
HETATM   22  O3  UNL     1     -14.942  -0.922 -14.182  1.00  0.00    -0.200 OA
BRANCH  20  23
HETATM   23  N6  UNL     1     -14.387  -2.042 -11.904  1.00  0.00    -0.324 N 
ATOM     24  H62 UNL     1     -14.982  -1.980 -11.078  1.00  0.00     0.169 HD
ATOM     25  H61 UNL     1     -13.922  -2.899 -12.207  1.00  0.00     0.169 HD
ENDBRANCH  20  23
ENDBRANCH  10  20
BRANCH   5  26
HETATM   26  N4  UNL     1     -15.925   4.292 -10.727  1.00  0.00    -0.234 N 
ATOM     27  H42 UNL     1     -15.311   5.100 -10.622  1.00  0.00     0.174 HD
ATOM     28  H41 UNL     1     -16.909   4.365 -10.467  1.00  0.00     0.174 HD
ENDBRANCH   5  26
TORSDOF 5
ENDMDL
MODEL 2
REMARK VINA RESULT: -6.527448618      0.553      1.040
REMARK  5 active torsions:
REMARK  status: ('A' for Active; 'I' for Inactive)
REMARK    1  A    between atoms: C3_6  and  C4_7 
REMARK    2  A    between atoms: C4_7  and  C5_8 
REMARK    3  A    between atoms: C7_12  and  N4_13 
REMARK    4  A    between atoms: C9_20  and  S1_21 
REMARK    5  A    between atoms: S1_21  and  N6_22 
ROOT
HETATM    1  C5  UNL     1     -13.228   2.043 -13.829  1.00  0.00     0.036 C 
HETATM    2  C6  UNL     1     -14.194   2.034 -12.752  1.00  0.00     0.078 A 
HETATM    3  N3  UNL     1     -14.670   3.204 -12.224  1.00  0.00    -0.190 N 
ATOM      4  H3  UNL     1     -14.352   4.095 -12.603  1.00  0.00     0.184 HD
HETATM    5  C7  UNL     1     -15.562   3.187 -11.198  1.00  0.00     0.679 A 
HETATM    6  N5  UNL     1     -15.977   2.025 -10.703  1.00  0.00    -0.155 N 
ATOM      7  H5  UNL     1     -16.645   2.012  -9.932  1.00  0.00     0.187 HD
HETATM    8  C8  UNL     1     -15.524   0.873 -11.209  1.00  0.00     0.285 A 
HETATM    9  O1  UNL     1     -15.948  -0.192 -10.706  1.00  0.00    -0.266 OA
HETATM   10  C9  UNL     1     -14.619   0.833 -12.249  1.00  0.00     0.174 A 
ENDROOT
BRANCH   1  11
HETATM   11  C4  UNL     1     -12.812   3.180 -14.348  1.00  0.00     0.052 C 
BRANCH  11  12
HETATM   12  C3  UNL     1     -11.361   3.483 -14.367  1.00  0.00     0.120 A 
HETATM   13  N2  UNL     1     -10.820   4.679 -14.711  1.00  0.00    -0.336 N 
HETATM   14  C2  UNL     1      -9.483   4.593 -14.614  1.00  0.00     0.201 A 
ATOM     15  H2  UNL     1     -11.343   5.507 -14.996  1.00  0.00     0.168 HD
HETATM   16  N1  UNL     1      -9.194   3.342 -14.209  1.00  0.00    -0.290 N 
HETATM   17  C1  UNL     1      -7.836   2.884 -13.996  1.00  0.00     0.178 C 
HETATM   18  N7  UNL     1     -10.325   2.687 -14.064  1.00  0.00    -0.283 N 
ATOM     19  H7  UNL     1     -10.404   1.715 -13.764  1.00  0.00     0.189 HD
ENDBRANCH  11  12
ENDBRANCH   1  11
BRANCH  10  20
HETATM   20  S1  UNL     1     -14.098  -0.657 -12.891  1.00  0.00     0.264 S 
HETATM   21  O2  UNL     1     -12.702  -0.729 -13.367  1.00  0.00    -0.200 OA
HETATM   22  O3  UNL     1     -14.954  -0.909 -14.156  1.00  0.00    -0.200 OA
BRANCH  20  23
HETATM   23  N6  UNL     1     -14.406  -2.009 -11.866  1.00  0.00    -0.324 N 
ATOM     24  H62 UNL     1     -15.184  -2.023 -11.206  1.00  0.00     0.169 HD
ATOM     25  H61 UNL     1     -13.747  -2.778 -11.984  1.00  0.00     0.169 HD
ENDBRANCH  20  23
ENDBRANCH  10  20
BRANCH   5  26
HETATM   26  N4  UNL     1     -15.961   4.335 -10.756  1.00  0.00    -0.234 N 
ATOM     27  H42 UNL     1     -15.838   5.209 -11.267  1.00  0.00     0.174 HD
ATOM     28  H41 UNL     1     -16.420   4.341  -9.845  1.00  0.00     0.174 HD
ENDBRANCH   5  26
TORSDOF 5
ENDMDL
MODEL 3
REMARK VINA RESULT: -6.408128998      1.650      2.221
REMARK  5 active torsions:
REMARK  status: ('A' for Active; 'I' for Inactive)
REMARK    1  A    between atoms: C3_6  and  C4_7 
REMARK    2  A    between atoms: C4_7  and  C5_8 
REMARK    3  A    between atoms: C7_12  and  N4_13 
REMARK    4  A    between atoms: C9_20  and  S1_21 
REMARK    5  A    between atoms: S1_21  and  N6_22 
ROOT
HETATM    1  C5  UNL     1     -12.929   2.056 -13.502  1.00  0.00     0.036 C 
HETATM    2  C6  UNL     1     -14.058   2.078 -12.598  1.00  0.00     0.078 A 
HETATM    3  N3  UNL     1     -14.527   3.257 -12.086  1.00  0.00    -0.190 N 
ATOM      4  H3  UNL     1     -14.086   4.136 -12.356  1.00  0.00     0.184 HD
HETATM    5  C7  UNL     1     -15.575   3.267 -11.220  1.00  0.00     0.679 A 
HETATM    6  N5  UNL     1     -16.152   2.122 -10.868  1.00  0.00    -0.155 N 
ATOM      7  H5  UNL     1     -16.937   2.129 -10.217  1.00  0.00     0.187 HD
HETATM    8  C8  UNL     1     -15.707   0.961 -11.361  1.00  0.00     0.285 A 
HETATM    9  O1  UNL     1     -16.286  -0.088 -10.996  1.00  0.00    -0.266 OA
HETATM   10  C9  UNL     1     -14.647   0.893 -12.242  1.00  0.00     0.174 A 
ENDROOT
BRANCH   1  11
HETATM   11  C4  UNL     1     -12.350   3.178 -13.880  1.00  0.00     0.052 C 
BRANCH  11  12
HETATM   12  C3  UNL     1     -12.335   3.539 -15.318  1.00  0.00     0.120 A 
HETATM   13  N2  UNL     1     -11.644   4.578 -15.851  1.00  0.00    -0.336 N 
HETATM   14  C2  UNL     1     -11.860   4.606 -17.177  1.00  0.00     0.201 A 
ATOM     15  H2  UNL     1     -11.057   5.230 -15.332  1.00  0.00     0.168 HD
HETATM   16  N1  UNL     1     -12.687   3.583 -17.466  1.00  0.00    -0.290 N 
HETATM   17  C1  UNL     1     -13.141   3.302 -18.813  1.00  0.00     0.178 C 
HETATM   18  N7  UNL     1     -12.963   2.951 -16.346  1.00  0.00    -0.283 N 
ATOM     19  H7  UNL     1     -13.568   2.133 -16.270  1.00  0.00     0.189 HD
ENDBRANCH  11  12
ENDBRANCH   1  11
BRANCH  10  20
HETATM   20  S1  UNL     1     -14.138  -0.603 -12.877  1.00  0.00     0.264 S 
HETATM   21  O2  UNL     1     -12.745  -0.687 -13.359  1.00  0.00    -0.200 OA
HETATM   22  O3  UNL     1     -15.001  -0.858 -14.137  1.00  0.00    -0.200 OA
BRANCH  20  23
HETATM   23  N6  UNL     1     -14.450  -1.947 -11.843  1.00  0.00    -0.324 N 
ATOM     24  H62 UNL     1     -15.376  -2.367 -11.764  1.00  0.00     0.169 HD
ATOM     25  H61 UNL     1     -13.632  -2.273 -11.328  1.00  0.00     0.169 HD
ENDBRANCH  20  23
ENDBRANCH  10  20
BRANCH   5  26
HETATM   26  N4  UNL     1     -15.957   4.423 -10.783  1.00  0.00    -0.234 N 
ATOM     27  H42 UNL     1     -15.538   4.885  -9.976  1.00  0.00     0.174 HD
ATOM     28  H41 UNL     1     -16.719   4.875 -11.288  1.00  0.00     0.174 HD
ENDBRANCH   5  26
TORSDOF 5
ENDMDL
MODEL 4
REMARK VINA RESULT: -6.377911308      1.979      2.295
REMARK  5 active torsions:
REMARK  status: ('A' for Active; 'I' for Inactive)
REMARK    1  A    between atoms: C3_6  and  C4_7 
REMARK    2  A    between atoms: C4_7  and  C5_8 
REMARK    3  A    between atoms: C7_12  and  N4_13 
REMARK    4  A    between atoms: C9_20  and  S1_21 
REMARK    5  A    between atoms: S1_21  and  N6_22 
ROOT
HETATM    1  C5  UNL     1     -12.987   2.246 -14.232  1.00  0.00     0.036 C 
HETATM    2  C6  UNL     1     -14.104   2.237 -13.313  1.00  0.00     0.078 A 
HETATM    3  N3  UNL     1     -14.203   3.172 -12.318  1.00  0.00    -0.190 N 
ATOM      4  H3  UNL     1     -13.490   3.895 -12.231  1.00  0.00     0.184 HD
HETATM    5  C7  UNL     1     -15.245   3.143 -11.445  1.00  0.00     0.679 A 
HETATM    6  N5  UNL     1     -16.176   2.201 -11.558  1.00  0.00    -0.155 N 
ATOM      7  H5  UNL     1     -16.958   2.179 -10.902  1.00  0.00     0.187 HD
HETATM    8  C8  UNL     1     -16.095   1.282 -12.526  1.00  0.00     0.285 A 
HETATM    9  O1  UNL     1     -16.999   0.417 -12.587  1.00  0.00    -0.266 OA
HETATM   10  C9  UNL     1     -15.060   1.264 -13.437  1.00  0.00     0.174 A 
ENDROOT
BRANCH   1  11
HETATM   11  C4  UNL     1     -12.059   3.178 -14.152  1.00  0.00     0.052 C 
BRANCH  11  12
HETATM   12  C3  UNL     1     -11.846   4.091 -15.301  1.00  0.00     0.120 A 
HETATM   13  N2  UNL     1     -11.109   5.230 -15.263  1.00  0.00    -0.336 N 
HETATM   14  C2  UNL     1     -11.133   5.801 -16.478  1.00  0.00     0.201 A 
ATOM     15  H2  UNL     1     -10.618   5.592 -14.446  1.00  0.00     0.168 HD
HETATM   16  N1  UNL     1     -11.886   5.016 -17.271  1.00  0.00    -0.290 N 
HETATM   17  C1  UNL     1     -12.135   5.323 -18.666  1.00  0.00     0.178 C 
HETATM   18  N7  UNL     1     -12.306   3.995 -16.556  1.00  0.00    -0.283 N 
ATOM     19  H7  UNL     1     -12.896   3.240 -16.906  1.00  0.00     0.189 HD
ENDBRANCH  11  12
ENDBRANCH   1  11
BRANCH  10  20
HETATM   20  S1  UNL     1     -15.016   0.099 -14.680  1.00  0.00     0.264 S 
HETATM   21  O2  UNL     1     -13.899   0.189 -15.642  1.00  0.00    -0.200 OA
HETATM   22  O3  UNL     1     -16.285   0.326 -15.535  1.00  0.00    -0.200 OA
BRANCH  20  23
HETATM   23  N6  UNL     1     -15.138  -1.527 -14.121  1.00  0.00    -0.324 N 
ATOM     24  H62 UNL     1     -15.120  -1.763 -13.129  1.00  0.00     0.169 HD
ATOM     25  H61 UNL     1     -15.228  -2.217 -14.868  1.00  0.00     0.169 HD
ENDBRANCH  20  23
ENDBRANCH  10  20
BRANCH   5  26
HETATM   26  N4  UNL     1     -15.265   4.062 -10.534  1.00  0.00    -0.234 N 
ATOM     27  H42 UNL     1     -15.592   5.013 -10.701  1.00  0.00     0.174 HD
ATOM     28  H41 UNL     1     -14.931   3.795  -9.608  1.00  0.00     0.174 HD
ENDBRANCH   5  26
TORSDOF 5
ENDMDL
MODEL 5
REMARK VINA RESULT: -6.355937493      1.870      2.099
REMARK  5 active torsions:
REMARK  status: ('A' for Active; 'I' for Inactive)
REMARK    1  A    between atoms: C3_6  and  C4_7 
REMARK    2  A    between atoms: C4_7  and  C5_8 
REMARK    3  A    between atoms: C7_12  and  N4_13 
REMARK    4  A    between atoms: C9_20  and  S1_21 
REMARK    5  A    between atoms: S1_21  and  N6_22 
ROOT
HETATM    1  C5  UNL     1     -13.017   2.273 -14.236  1.00  0.00     0.036 C 
HETATM    2  C6  UNL     1     -14.135   2.245 -13.319  1.00  0.00     0.078 A 
HETATM    3  N3  UNL     1     -14.240   3.163 -12.309  1.00  0.00    -0.190 N 
ATOM      4  H3  UNL     1     -13.529   3.887 -12.209  1.00  0.00     0.184 HD
HETATM    5  C7  UNL     1     -15.283   3.117 -11.437  1.00  0.00     0.679 A 
HETATM    6  N5  UNL     1     -16.211   2.174 -11.567  1.00  0.00    -0.155 N 
ATOM      7  H5  UNL     1     -16.993   2.138 -10.913  1.00  0.00     0.187 HD
HETATM    8  C8  UNL     1     -16.124   1.271 -12.551  1.00  0.00     0.285 A 
HETATM    9  O1  UNL     1     -17.025   0.404 -12.627  1.00  0.00    -0.266 OA
HETATM   10  C9  UNL     1     -15.088   1.271 -13.461  1.00  0.00     0.174 A 
ENDROOT
BRANCH   1  11
HETATM   11  C4  UNL     1     -12.093   3.206 -14.139  1.00  0.00     0.052 C 
BRANCH  11  12
HETATM   12  C3  UNL     1     -11.860   4.120 -15.284  1.00  0.00     0.120 A 
HETATM   13  N2  UNL     1     -12.241   3.875 -16.563  1.00  0.00    -0.336 N 
HETATM   14  C2  UNL     1     -11.870   4.914 -17.330  1.00  0.00     0.201 A 
ATOM     15  H2  UNL     1     -12.727   3.041 -16.889  1.00  0.00     0.168 HD
HETATM   16  N1  UNL     1     -11.259   5.804 -16.526  1.00  0.00    -0.290 N 
HETATM   17  C1  UNL     1     -10.723   7.059 -17.013  1.00  0.00     0.178 C 
HETATM   18  N7  UNL     1     -11.260   5.318 -15.303  1.00  0.00    -0.283 N 
ATOM     19  H7  UNL     1     -10.862   5.785 -14.488  1.00  0.00     0.189 HD
ENDBRANCH  11  12
ENDBRANCH   1  11
BRANCH  10  20
HETATM   20  S1  UNL     1     -15.038   0.127 -14.722  1.00  0.00     0.264 S 
HETATM   21  O2  UNL     1     -13.913   0.229 -15.673  1.00  0.00    -0.200 OA
HETATM   22  O3  UNL     1     -16.300   0.373 -15.584  1.00  0.00    -0.200 OA
BRANCH  20  23
HETATM   23  N6  UNL     1     -15.171  -1.508 -14.192  1.00  0.00    -0.324 N 
ATOM     24  H62 UNL     1     -15.774  -1.779 -13.415  1.00  0.00     0.169 HD
ATOM     25  H61 UNL     1     -14.598  -2.164 -14.723  1.00  0.00     0.169 HD
ENDBRANCH  20  23
ENDBRANCH  10  20
BRANCH   5  26
HETATM   26  N4  UNL     1     -15.307   4.020 -10.512  1.00  0.00    -0.234 N 
ATOM     27  H42 UNL     1     -16.123   4.205  -9.928  1.00  0.00     0.174 HD
ATOM     28  H41 UNL     1     -14.454   4.562 -10.379  1.00  0.00     0.174 HD
ENDBRANCH   5  26
TORSDOF 5
ENDMDL
