MODEL 1
REMARK VINA RESULT: -5.342058560      0.000      0.000
REMARK  8 active torsions:
REMARK  status: ('A' for Active; 'I' for Inactive)
REMARK    1  A    between atoms: C2_2  and  C3_3 
REMARK    2  A    between atoms: C3_3  and  O1_4 
REMARK    3  A    between atoms: O1_4  and  C4_5 
REMARK    4  A    between atoms: N2_10  and  C7_12 
REMARK    5  A    between atoms: C7_12  and  C8_13 
REMARK    6  A    between atoms: C8_13  and  N3_14 
REMARK    7  A    between atoms: N6_23  and  C11_24 
REMARK    8  A    between atoms: C11_24  and  C12_25 
ROOT
HETATM    1  C4  UNL     1     -62.917 -20.056 -20.755  1.00  0.00     0.228 A 
HETATM    2  N1  UNL     1     -64.109 -19.442 -20.651  1.00  0.00    -0.316 N 
ATOM      3  H1  UNL     1     -64.453 -18.928 -19.839  1.00  0.00     0.169 HD
HETATM    4  C5  UNL     1     -64.769 -19.625 -21.812  1.00  0.00     0.124 A 
HETATM    5  C6  UNL     1     -66.038 -19.170 -22.196  1.00  0.00     0.137 A 
HETATM    6  N2  UNL     1     -66.720 -18.496 -21.364  1.00  0.00    -0.349 N 
ATOM      7  H2  UNL     1     -66.252 -18.349 -20.470  1.00  0.00     0.167 HD
HETATM    8  N4  UNL     1     -66.475 -19.477 -23.428  1.00  0.00    -0.337 N 
ATOM      9  H4  UNL     1     -67.391 -19.165 -23.749  1.00  0.00     0.168 HD
HETATM   10  C9  UNL     1     -65.675 -20.205 -24.227  1.00  0.00     0.183 A 
HETATM   11  N5  UNL     1     -64.454 -20.653 -23.881  1.00  0.00    -0.336 N 
ATOM     12  H5  UNL     1     -63.899 -21.202 -24.538  1.00  0.00     0.168 HD
HETATM   13  C10 UNL     1     -63.974 -20.363 -22.646  1.00  0.00     0.143 A 
HETATM   14  N6  UNL     1     -62.836 -20.621 -21.975  1.00  0.00    -0.287 N 
ENDROOT
BRANCH   6  15
HETATM   15  C7  UNL     1     -67.992 -17.914 -21.441  1.00  0.00     0.106 C 
BRANCH  15  16
HETATM   16  C8  UNL     1     -68.207 -16.702 -20.629  1.00  0.00     0.097 C 
BRANCH  16  17
HETATM   17  N3  UNL     1     -67.417 -15.716 -20.721  1.00  0.00    -0.407 N 
ATOM     18  H32 UNL     1     -67.360 -15.060 -19.943  1.00  0.00     0.155 HD
ATOM     19  H31 UNL     1     -66.850 -15.581 -21.558  1.00  0.00     0.155 HD
ENDBRANCH  16  17
ENDBRANCH  15  16
ENDBRANCH   6  15
BRANCH   1  20
HETATM   20  O1  UNL     1     -61.960 -20.084 -19.756  1.00  0.00    -0.318 OA
BRANCH  20  21
HETATM   21  C3  UNL     1     -61.445 -18.851 -19.243  1.00  0.00     0.205 C 
BRANCH  21  22
HETATM   22  C2  UNL     1     -60.939 -17.967 -20.334  1.00  0.00    -0.011 C 
HETATM   23  C1  UNL     1     -61.349 -16.720 -20.379  1.00  0.00     0.009 C 
ENDBRANCH  21  22
ENDBRANCH  20  21
ENDBRANCH   1  20
BRANCH  14  24
HETATM   24  C11 UNL     1     -61.739 -21.373 -22.528  1.00  0.00     0.247 C 
BRANCH  24  25
HETATM   25  C12 UNL     1     -60.558 -20.513 -22.791  1.00  0.00     0.192 C 
HETATM   26  O2  UNL     1     -60.696 -19.458 -23.477  1.00  0.00    -0.647 OA
HETATM   27  O3  UNL     1     -59.305 -20.888 -22.267  1.00  0.00    -0.647 OA
ENDBRANCH  24  25
ENDBRANCH  14  24
TORSDOF 8
ENDMDL
MODEL 2
REMARK VINA RESULT: -5.232609158      1.135      1.322
REMARK  8 active torsions:
REMARK  status: ('A' for Active; 'I' for Inactive)
REMARK    1  A    between atoms: C2_2  and  C3_3 
REMARK    2  A    between atoms: C3_3  and  O1_4 
REMARK    3  A    between atoms: O1_4  and  C4_5 
REMARK    4  A    between atoms: N2_10  and  C7_12 
REMARK    5  A    between atoms: C7_12  and  C8_13 
REMARK    6  A    between atoms: C8_13  and  N3_14 
REMARK    7  A    between atoms: N6_23  and  C11_24 
REMARK    8  A    between atoms: C11_24  and  C12_25 
ROOT
HETATM    1  C4  UNL     1     -62.576 -20.247 -20.895  1.00  0.00     0.228 A 
HETATM    2  N1  UNL     1     -63.695 -19.589 -21.247  1.00  0.00    -0.316 N 
ATOM      3  H1  UNL     1     -64.174 -18.878 -20.693  1.00  0.00     0.169 HD
HETATM    4  C5  UNL     1     -64.072 -20.037 -22.461  1.00  0.00     0.124 A 
HETATM    5  C6  UNL     1     -65.164 -19.653 -23.251  1.00  0.00     0.137 A 
HETATM    6  N2  UNL     1     -65.959 -18.771 -22.804  1.00  0.00    -0.349 N 
ATOM      7  H2  UNL     1     -65.708 -18.420 -21.880  1.00  0.00     0.167 HD
HETATM    8  N4  UNL     1     -65.320 -20.245 -24.446  1.00  0.00    -0.337 N 
ATOM      9  H4  UNL     1     -66.099 -19.995 -25.055  1.00  0.00     0.168 HD
HETATM   10  C9  UNL     1     -64.424 -21.175 -24.820  1.00  0.00     0.183 A 
HETATM   11  N5  UNL     1     -63.369 -21.560 -24.080  1.00  0.00    -0.336 N 
ATOM     12  H5  UNL     1     -62.726 -22.274 -24.425  1.00  0.00     0.168 HD
HETATM   13  C10 UNL     1     -63.173 -20.985 -22.866  1.00  0.00     0.143 A 
HETATM   14  N6  UNL     1     -62.258 -21.102 -21.886  1.00  0.00    -0.287 N 
ENDROOT
BRANCH   6  15
HETATM   15  C7  UNL     1     -67.116 -18.187 -23.337  1.00  0.00     0.106 C 
BRANCH  15  16
HETATM   16  C8  UNL     1     -67.611 -16.977 -22.656  1.00  0.00     0.097 C 
BRANCH  16  17
HETATM   17  N3  UNL     1     -67.177 -16.660 -21.508  1.00  0.00    -0.407 N 
ATOM     18  H32 UNL     1     -67.345 -15.714 -21.166  1.00  0.00     0.155 HD
ATOM     19  H31 UNL     1     -66.672 -17.338 -20.938  1.00  0.00     0.155 HD
ENDBRANCH  16  17
ENDBRANCH  15  16
ENDBRANCH   6  15
BRANCH   1  20
HETATM   20  O1  UNL     1     -61.893 -20.054 -19.707  1.00  0.00    -0.318 OA
BRANCH  20  21
HETATM   21  C3  UNL     1     -61.545 -18.725 -19.307  1.00  0.00     0.205 C 
BRANCH  21  22
HETATM   22  C2  UNL     1     -60.817 -17.995 -20.385  1.00  0.00    -0.011 C 
HETATM   23  C1  UNL     1     -61.217 -16.788 -20.715  1.00  0.00     0.009 C 
ENDBRANCH  21  22
ENDBRANCH  20  21
ENDBRANCH   1  20
BRANCH  14  24
HETATM   24  C11 UNL     1     -61.136 -22.003 -21.949  1.00  0.00     0.247 C 
BRANCH  24  25
HETATM   25  C12 UNL     1     -59.846 -21.289 -21.784  1.00  0.00     0.192 C 
HETATM   26  O2  UNL     1     -59.409 -20.564 -22.727  1.00  0.00    -0.647 OA
HETATM   27  O3  UNL     1     -59.132 -21.428 -20.577  1.00  0.00    -0.647 OA
ENDBRANCH  24  25
ENDBRANCH  14  24
TORSDOF 8
ENDMDL
MODEL 3
REMARK VINA RESULT: -5.232356197      2.350      2.682
REMARK  8 active torsions:
REMARK  status: ('A' for Active; 'I' for Inactive)
REMARK    1  A    between atoms: C2_2  and  C3_3 
REMARK    2  A    between atoms: C3_3  and  O1_4 
REMARK    3  A    between atoms: O1_4  and  C4_5 
REMARK    4  A    between atoms: N2_10  and  C7_12 
REMARK    5  A    between atoms: C7_12  and  C8_13 
REMARK    6  A    between atoms: C8_13  and  N3_14 
REMARK    7  A    between atoms: N6_23  and  C11_24 
REMARK    8  A    between atoms: C11_24  and  C12_25 
ROOT
HETATM    1  C4  UNL     1     -61.940 -20.345 -20.502  1.00  0.00     0.228 A 
HETATM    2  N1  UNL     1     -63.235 -20.704 -20.463  1.00  0.00    -0.316 N 
ATOM      3  H1  UNL     1     -63.878 -20.554 -19.685  1.00  0.00     0.169 HD
HETATM    4  C5  UNL     1     -63.534 -21.296 -21.636  1.00  0.00     0.124 A 
HETATM    5  C6  UNL     1     -64.752 -21.829 -22.081  1.00  0.00     0.137 A 
HETATM    6  N2  UNL     1     -65.752 -21.791 -21.301  1.00  0.00    -0.349 N 
ATOM      7  H2  UNL     1     -65.556 -21.359 -20.398  1.00  0.00     0.167 HD
HETATM    8  N4  UNL     1     -64.799 -22.361 -23.312  1.00  0.00    -0.337 N 
ATOM      9  H4  UNL     1     -65.665 -22.758 -23.676  1.00  0.00     0.168 HD
HETATM   10  C9  UNL     1     -63.677 -22.358 -24.053  1.00  0.00     0.183 A 
HETATM   11  N5  UNL     1     -62.497 -21.854 -23.649  1.00  0.00    -0.336 N 
ATOM     12  H5  UNL     1     -61.683 -21.884 -24.264  1.00  0.00     0.168 HD
HETATM   13  C10 UNL     1     -62.406 -21.304 -22.412  1.00  0.00     0.143 A 
HETATM   14  N6  UNL     1     -61.433 -20.713 -21.694  1.00  0.00    -0.287 N 
ENDROOT
BRANCH   6  15
HETATM   15  C7  UNL     1     -67.075 -22.231 -21.443  1.00  0.00     0.106 C 
BRANCH  15  16
HETATM   16  C8  UNL     1     -68.023 -21.269 -22.036  1.00  0.00     0.097 C 
BRANCH  16  17
HETATM   17  N3  UNL     1     -67.964 -20.039 -21.738  1.00  0.00    -0.407 N 
ATOM     18  H32 UNL     1     -68.622 -19.397 -22.179  1.00  0.00     0.155 HD
ATOM     19  H31 UNL     1     -67.273 -19.699 -21.070  1.00  0.00     0.155 HD
ENDBRANCH  16  17
ENDBRANCH  15  16
ENDBRANCH   6  15
BRANCH   1  20
HETATM   20  O1  UNL     1     -61.272 -19.706 -19.471  1.00  0.00    -0.318 OA
BRANCH  20  21
HETATM   21  C3  UNL     1     -61.512 -18.315 -19.236  1.00  0.00     0.205 C 
BRANCH  21  22
HETATM   22  C2  UNL     1     -60.902 -17.462 -20.298  1.00  0.00    -0.011 C 
HETATM   23  C1  UNL     1     -61.634 -16.523 -20.853  1.00  0.00     0.009 C 
ENDBRANCH  21  22
ENDBRANCH  20  21
ENDBRANCH   1  20
BRANCH  14  24
HETATM   24  C11 UNL     1     -60.090 -20.524 -22.179  1.00  0.00     0.247 C 
BRANCH  24  25
HETATM   25  C12 UNL     1     -59.132 -21.449 -21.525  1.00  0.00     0.192 C 
HETATM   26  O2  UNL     1     -59.222 -21.662 -20.280  1.00  0.00    -0.647 OA
HETATM   27  O3  UNL     1     -58.141 -22.077 -22.306  1.00  0.00    -0.647 OA
ENDBRANCH  24  25
ENDBRANCH  14  24
TORSDOF 8
ENDMDL
MODEL 4
REMARK VINA RESULT: -5.173743034      2.146      4.252
REMARK  8 active torsions:
REMARK  status: ('A' for Active; 'I' for Inactive)
REMARK    1  A    between atoms: C2_2  and  C3_3 
REMARK    2  A    between atoms: C3_3  and  O1_4 
REMARK    3  A    between atoms: O1_4  and  C4_5 
REMARK    4  A    between atoms: N2_10  and  C7_12 
REMARK    5  A    between atoms: C7_12  and  C8_13 
REMARK    6  A    between atoms: C8_13  and  N3_14 
REMARK    7  A    between atoms: N6_23  and  C11_24 
REMARK    8  A    between atoms: C11_24  and  C12_25 
ROOT
HETATM    1  C4  UNL     1     -61.954 -19.981 -22.770  1.00  0.00     0.228 A 
HETATM    2  N1  UNL     1     -62.739 -20.220 -23.835  1.00  0.00    -0.316 N 
ATOM      3  H1  UNL     1     -62.456 -20.683 -24.699  1.00  0.00     0.169 HD
HETATM    4  C5  UNL     1     -63.968 -19.740 -23.558  1.00  0.00     0.124 A 
HETATM    5  C6  UNL     1     -65.129 -19.758 -24.342  1.00  0.00     0.137 A 
HETATM    6  N2  UNL     1     -65.072 -20.274 -25.500  1.00  0.00    -0.349 N 
ATOM      7  H2  UNL     1     -64.152 -20.637 -25.746  1.00  0.00     0.167 HD
HETATM    8  N4  UNL     1     -66.248 -19.220 -23.831  1.00  0.00    -0.337 N 
ATOM      9  H4  UNL     1     -67.116 -19.213 -24.366  1.00  0.00     0.168 HD
HETATM   10  C9  UNL     1     -66.195 -18.690 -22.596  1.00  0.00     0.183 A 
HETATM   11  N5  UNL     1     -65.093 -18.660 -21.824  1.00  0.00    -0.336 N 
ATOM     12  H5  UNL     1     -65.124 -18.241 -20.894  1.00  0.00     0.168 HD
HETATM   13  C10 UNL     1     -63.942 -19.196 -22.302  1.00  0.00     0.143 A 
HETATM   14  N6  UNL     1     -62.690 -19.353 -21.833  1.00  0.00    -0.287 N 
ENDROOT
BRANCH   6  15
HETATM   15  C7  UNL     1     -66.035 -20.441 -26.506  1.00  0.00     0.106 C 
BRANCH  15  16
HETATM   16  C8  UNL     1     -65.859 -19.624 -27.720  1.00  0.00     0.097 C 
BRANCH  16  17
HETATM   17  N3  UNL     1     -64.887 -18.817 -27.819  1.00  0.00    -0.407 N 
ATOM     18  H32 UNL     1     -64.284 -18.675 -27.009  1.00  0.00     0.155 HD
ATOM     19  H31 UNL     1     -64.713 -18.319 -28.692  1.00  0.00     0.155 HD
ENDBRANCH  16  17
ENDBRANCH  15  16
ENDBRANCH   6  15
BRANCH   1  20
HETATM   20  O1  UNL     1     -60.619 -20.334 -22.685  1.00  0.00    -0.318 OA
BRANCH  20  21
HETATM   21  C3  UNL     1     -60.244 -21.483 -21.918  1.00  0.00     0.205 C 
BRANCH  21  22
HETATM   22  C2  UNL     1     -58.888 -21.328 -21.316  1.00  0.00    -0.011 C 
HETATM   23  C1  UNL     1     -57.840 -21.718 -22.006  1.00  0.00     0.009 C 
ENDBRANCH  21  22
ENDBRANCH  20  21
ENDBRANCH   1  20
BRANCH  14  24
HETATM   24  C11 UNL     1     -62.269 -18.912 -20.528  1.00  0.00     0.247 C 
BRANCH  24  25
HETATM   25  C12 UNL     1     -61.358 -17.744 -20.608  1.00  0.00     0.192 C 
HETATM   26  O2  UNL     1     -60.107 -17.922 -20.523  1.00  0.00    -0.647 OA
HETATM   27  O3  UNL     1     -61.905 -16.457 -20.782  1.00  0.00    -0.647 OA
ENDBRANCH  24  25
ENDBRANCH  14  24
TORSDOF 8
ENDMDL
MODEL 5
REMARK VINA RESULT: -5.164799553      2.728      4.917
REMARK  8 active torsions:
REMARK  status: ('A' for Active; 'I' for Inactive)
REMARK    1  A    between atoms: C2_2  and  C3_3 
REMARK    2  A    between atoms: C3_3  and  O1_4 
REMARK    3  A    between atoms: O1_4  and  C4_5 
REMARK    4  A    between atoms: N2_10  and  C7_12 
REMARK    5  A    between atoms: C7_12  and  C8_13 
REMARK    6  A    between atoms: C8_13  and  N3_14 
REMARK    7  A    between atoms: N6_23  and  C11_24 
REMARK    8  A    between atoms: C11_24  and  C12_25 
ROOT
HETATM    1  C4  UNL     1     -61.452 -20.202 -21.649  1.00  0.00     0.228 A 
HETATM    2  N1  UNL     1     -62.076 -21.393 -21.655  1.00  0.00    -0.316 N 
ATOM      3  H1  UNL     1     -61.625 -22.308 -21.640  1.00  0.00     0.169 HD
HETATM    4  C5  UNL     1     -63.403 -21.163 -21.684  1.00  0.00     0.124 A 
HETATM    5  C6  UNL     1     -64.465 -22.077 -21.689  1.00  0.00     0.137 A 
HETATM    6  N2  UNL     1     -64.200 -23.318 -21.685  1.00  0.00    -0.349 N 
ATOM      7  H2  UNL     1     -63.202 -23.526 -21.675  1.00  0.00     0.167 HD
HETATM    8  N4  UNL     1     -65.718 -21.593 -21.708  1.00  0.00    -0.337 N 
ATOM      9  H4  UNL     1     -66.521 -22.222 -21.711  1.00  0.00     0.168 HD
HETATM   10  C9  UNL     1     -65.887 -20.259 -21.721  1.00  0.00     0.183 A 
HETATM   11  N5  UNL     1     -64.884 -19.362 -21.716  1.00  0.00    -0.336 N 
ATOM     12  H5  UNL     1     -65.084 -18.362 -21.727  1.00  0.00     0.168 HD
HETATM   13  C10 UNL     1     -63.603 -19.809 -21.696  1.00  0.00     0.143 A 
HETATM   14  N6  UNL     1     -62.387 -19.233 -21.675  1.00  0.00    -0.287 N 
ENDROOT
BRANCH   6  15
HETATM   15  C7  UNL     1     -65.017 -24.457 -21.690  1.00  0.00     0.106 C 
BRANCH  15  16
HETATM   16  C8  UNL     1     -64.325 -25.757 -21.730  1.00  0.00     0.097 C 
BRANCH  16  17
HETATM   17  N3  UNL     1     -63.067 -25.823 -21.592  1.00  0.00    -0.407 N 
ATOM     18  H32 UNL     1     -62.498 -25.037 -21.907  1.00  0.00     0.155 HD
ATOM     19  H31 UNL     1     -62.632 -26.645 -21.173  1.00  0.00     0.155 HD
ENDBRANCH  16  17
ENDBRANCH  15  16
ENDBRANCH   6  15
BRANCH   1  20
HETATM   20  O1  UNL     1     -60.078 -20.036 -21.621  1.00  0.00    -0.318 OA
BRANCH  20  21
HETATM   21  C3  UNL     1     -59.262 -21.049 -21.025  1.00  0.00     0.205 C 
BRANCH  21  22
HETATM   22  C2  UNL     1     -58.508 -21.827 -22.052  1.00  0.00    -0.011 C 
HETATM   23  C1  UNL     1     -57.197 -21.854 -21.989  1.00  0.00     0.009 C 
ENDBRANCH  21  22
ENDBRANCH  20  21
ENDBRANCH   1  20
BRANCH  14  24
HETATM   24  C11 UNL     1     -62.182 -17.807 -21.671  1.00  0.00     0.247 C 
BRANCH  24  25
HETATM   25  C12 UNL     1     -61.196 -17.396 -20.641  1.00  0.00     0.192 C 
HETATM   26  O2  UNL     1     -60.284 -16.571 -20.946  1.00  0.00    -0.647 OA
HETATM   27  O3  UNL     1     -61.296 -17.929 -19.341  1.00  0.00    -0.647 OA
ENDBRANCH  24  25
ENDBRANCH  14  24
TORSDOF 8
ENDMDL
