MODEL 1
REMARK VINA RESULT: -7.646046776      0.000      0.000
REMARK  10 active torsions:
REMARK  status: ('A' for Active; 'I' for Inactive)
REMARK    1  A    between atoms: N1_2  and  C2_4 
REMARK    2  A    between atoms: C3_7  and  N3_8 
REMARK    3  A    between atoms: C8_20  and  N7_21 
REMARK    4  A    between atoms: N7_21  and  C9_23 
REMARK    5  A    between atoms: C9_23  and  C10_24 
REMARK    6  A    between atoms: C10_24  and  O3_25 
REMARK    7  A    between atoms: C10_24  and  C11_27 
REMARK    8  A    between atoms: C11_27  and  O4_28 
REMARK    9  A    between atoms: C11_27  and  C12_30 
REMARK   10  A    between atoms: C12_30  and  O5_32 
ROOT
HETATM    1  C2  UNL     1     -29.380 -14.888  -8.903  1.00  0.00     0.706 A 
HETATM    2  N2  UNL     1     -29.485 -13.558  -9.042  1.00  0.00    -0.021 N 
ATOM      3  H2  UNL     1     -29.416 -12.965  -8.215  1.00  0.00     0.203 HD
HETATM    4  C3  UNL     1     -29.684 -12.980 -10.261  1.00  0.00     0.725 A 
HETATM    5  N6  UNL     1     -29.776 -13.770 -11.346  1.00  0.00    -0.021 N 
ATOM      6  H6  UNL     1     -29.925 -13.349 -12.263  1.00  0.00     0.203 HD
HETATM    7  C8  UNL     1     -29.673 -15.111 -11.241  1.00  0.00     0.707 A 
HETATM    8  N8  UNL     1     -29.476 -15.648 -10.009  1.00  0.00    -0.022 N 
ATOM      9  H8  UNL     1     -29.398 -16.661  -9.919  1.00  0.00     0.203 HD
ENDROOT
BRANCH   7  10
HETATM   10  N7  UNL     1     -29.768 -15.814 -12.307  1.00  0.00    -0.223 N 
ATOM     11  H7  UNL     1     -30.464 -16.560 -12.313  1.00  0.00     0.177 HD
BRANCH  10  12
HETATM   12  C9  UNL     1     -28.983 -15.644 -13.487  1.00  0.00     0.172 C 
BRANCH  12  13
HETATM   13  C10 UNL     1     -29.624 -14.513 -14.295  1.00  0.00     0.167 C 
BRANCH  13  14
HETATM   14  O3  UNL     1     -29.984 -15.102 -15.526  1.00  0.00    -0.391 OA
ATOM     15  H3  UNL     1     -30.916 -15.271 -15.454  1.00  0.00     0.210 HD
ENDBRANCH  13  14
BRANCH  13  16
HETATM   16  C11 UNL     1     -28.618 -13.427 -14.608  1.00  0.00     0.176 C 
BRANCH  16  17
HETATM   17  O4  UNL     1     -27.727 -13.336 -13.565  1.00  0.00    -0.390 OA
ATOM     18  H4  UNL     1     -28.211 -13.174 -12.763  1.00  0.00     0.210 HD
ENDBRANCH  16  17
BRANCH  16  19
HETATM   19  C12 UNL     1     -29.315 -12.137 -14.929  1.00  0.00     0.145 C 
HETATM   20  C13 UNL     1     -28.350 -10.993 -14.693  1.00  0.00     0.042 C 
BRANCH  19  21
HETATM   21  O5  UNL     1     -29.734 -12.182 -16.254  1.00  0.00    -0.393 OA
ATOM     22  H5  UNL     1     -28.965 -12.193 -16.811  1.00  0.00     0.210 HD
ENDBRANCH  19  21
ENDBRANCH  16  19
ENDBRANCH  13  16
ENDBRANCH  12  13
ENDBRANCH  10  12
ENDBRANCH   7  10
BRANCH   4  23
HETATM   23  N3  UNL     1     -29.792 -11.575 -10.380  1.00  0.00    -0.058 N 
HETATM   24  C4  UNL     1     -30.854 -10.906  -9.902  1.00  0.00     0.274 A 
HETATM   25  O1  UNL     1     -31.751 -11.618  -9.339  1.00  0.00    -0.267 OA
HETATM   26  C5  UNL     1     -30.978  -9.542 -10.007  1.00  0.00     0.120 A 
HETATM   27  C6  UNL     1     -29.993  -8.826 -10.618  1.00  0.00     0.125 A 
HETATM   28  N4  UNL     1     -30.061  -7.390 -10.762  1.00  0.00    -0.082 NA
HETATM   29  N5  UNL     1     -28.924  -9.501 -11.099  1.00  0.00    -0.296 N 
HETATM   30  C7  UNL     1     -28.832 -10.858 -10.977  1.00  0.00     0.349 A 
ATOM     31  H5  UNL     1     -28.173  -8.987 -11.560  1.00  0.00     0.171 HD
HETATM   32  O2  UNL     1     -27.810 -11.404 -11.450  1.00  0.00    -0.245 OA
ENDBRANCH   4  23
BRANCH   1  33
HETATM   33  N1  UNL     1     -29.191 -15.469  -7.767  1.00  0.00    -0.229 N 
HETATM   34  C1  UNL     1     -28.424 -14.930  -6.693  1.00  0.00     0.165 C 
ATOM     35  H1  UNL     1     -29.624 -16.382  -7.626  1.00  0.00     0.177 HD
ENDBRANCH   1  33
TORSDOF 10
ENDMDL
MODEL 2
REMARK VINA RESULT: -7.431256177      1.057      2.084
REMARK  10 active torsions:
REMARK  status: ('A' for Active; 'I' for Inactive)
REMARK    1  A    between atoms: N1_2  and  C2_4 
REMARK    2  A    between atoms: C3_7  and  N3_8 
REMARK    3  A    between atoms: C8_20  and  N7_21 
REMARK    4  A    between atoms: N7_21  and  C9_23 
REMARK    5  A    between atoms: C9_23  and  C10_24 
REMARK    6  A    between atoms: C10_24  and  O3_25 
REMARK    7  A    between atoms: C10_24  and  C11_27 
REMARK    8  A    between atoms: C11_27  and  O4_28 
REMARK    9  A    between atoms: C11_27  and  C12_30 
REMARK   10  A    between atoms: C12_30  and  O5_32 
ROOT
HETATM    1  C2  UNL     1     -29.453 -14.856  -8.877  1.00  0.00     0.706 A 
HETATM    2  N2  UNL     1     -29.848 -13.576  -8.913  1.00  0.00    -0.021 N 
ATOM      3  H2  UNL     1     -29.941 -13.059  -8.038  1.00  0.00     0.203 HD
HETATM    4  C3  UNL     1     -30.129 -12.947 -10.090  1.00  0.00     0.725 A 
HETATM    5  N6  UNL     1     -30.005 -13.637 -11.239  1.00  0.00    -0.021 N 
ATOM      6  H6  UNL     1     -30.214 -13.177 -12.126  1.00  0.00     0.203 HD
HETATM    7  C8  UNL     1     -29.610 -14.926 -11.237  1.00  0.00     0.707 A 
HETATM    8  N8  UNL     1     -29.339 -15.516 -10.043  1.00  0.00    -0.022 N 
ATOM      9  H8  UNL     1     -29.039 -16.491 -10.031  1.00  0.00     0.203 HD
ENDROOT
BRANCH   7  10
HETATM   10  N7  UNL     1     -29.508 -15.534 -12.359  1.00  0.00    -0.223 N 
ATOM     11  H7  UNL     1     -30.373 -15.848 -12.799  1.00  0.00     0.177 HD
BRANCH  10  12
HETATM   12  C9  UNL     1     -28.288 -15.809 -13.048  1.00  0.00     0.172 C 
BRANCH  12  13
HETATM   13  C10 UNL     1     -27.896 -14.533 -13.798  1.00  0.00     0.167 C 
BRANCH  13  14
HETATM   14  O3  UNL     1     -27.467 -13.638 -12.794  1.00  0.00    -0.391 OA
ATOM     15  H3  UNL     1     -27.125 -12.887 -13.265  1.00  0.00     0.210 HD
ENDBRANCH  13  14
BRANCH  13  16
HETATM   16  C11 UNL     1     -29.098 -13.900 -14.463  1.00  0.00     0.176 C 
BRANCH  16  17
HETATM   17  O4  UNL     1     -29.826 -14.883 -15.090  1.00  0.00    -0.390 OA
ATOM     18  H4  UNL     1     -29.735 -14.778 -16.030  1.00  0.00     0.210 HD
ENDBRANCH  16  17
BRANCH  16  19
HETATM   19  C12 UNL     1     -28.671 -12.784 -15.373  1.00  0.00     0.145 C 
HETATM   20  C13 UNL     1     -29.225 -11.481 -14.835  1.00  0.00     0.042 C 
BRANCH  19  21
HETATM   21  O5  UNL     1     -27.281 -12.763 -15.420  1.00  0.00    -0.393 OA
ATOM     22  H5  UNL     1     -27.015 -12.424 -16.266  1.00  0.00     0.210 HD
ENDBRANCH  19  21
ENDBRANCH  16  19
ENDBRANCH  13  16
ENDBRANCH  12  13
ENDBRANCH  10  12
ENDBRANCH   7  10
BRANCH   4  23
HETATM   23  N3  UNL     1     -30.544 -11.595 -10.101  1.00  0.00    -0.058 N 
HETATM   24  C4  UNL     1     -29.818 -10.639 -10.703  1.00  0.00     0.274 A 
HETATM   25  O1  UNL     1     -28.739 -11.029 -11.260  1.00  0.00    -0.267 OA
HETATM   26  C5  UNL     1     -30.204  -9.320 -10.726  1.00  0.00     0.120 A 
HETATM   27  C6  UNL     1     -31.366  -8.953 -10.116  1.00  0.00     0.125 A 
HETATM   28  N4  UNL     1     -31.829  -7.585 -10.102  1.00  0.00    -0.082 NA
HETATM   29  N5  UNL     1     -32.096  -9.917  -9.509  1.00  0.00    -0.296 N 
HETATM   30  C7  UNL     1     -31.683 -11.219  -9.506  1.00  0.00     0.349 A 
ATOM     31  H5  UNL     1     -32.970  -9.667  -9.046  1.00  0.00     0.171 HD
HETATM   32  O2  UNL     1     -32.417 -12.048  -8.922  1.00  0.00    -0.245 OA
ENDBRANCH   4  23
BRANCH   1  33
HETATM   33  N1  UNL     1     -29.178 -15.482  -7.782  1.00  0.00    -0.229 N 
HETATM   34  C1  UNL     1     -28.384 -14.958  -6.721  1.00  0.00     0.165 C 
ATOM     35  H1  UNL     1     -29.558 -16.422  -7.668  1.00  0.00     0.177 HD
ENDBRANCH   1  33
TORSDOF 10
ENDMDL
MODEL 3
REMARK VINA RESULT: -7.393361476      0.659      1.590
REMARK  10 active torsions:
REMARK  status: ('A' for Active; 'I' for Inactive)
REMARK    1  A    between atoms: N1_2  and  C2_4 
REMARK    2  A    between atoms: C3_7  and  N3_8 
REMARK    3  A    between atoms: C8_20  and  N7_21 
REMARK    4  A    between atoms: N7_21  and  C9_23 
REMARK    5  A    between atoms: C9_23  and  C10_24 
REMARK    6  A    between atoms: C10_24  and  O3_25 
REMARK    7  A    between atoms: C10_24  and  C11_27 
REMARK    8  A    between atoms: C11_27  and  O4_28 
REMARK    9  A    between atoms: C11_27  and  C12_30 
REMARK   10  A    between atoms: C12_30  and  O5_32 
ROOT
HETATM    1  C2  UNL     1     -29.229 -14.771  -8.852  1.00  0.00     0.706 A 
HETATM    2  N2  UNL     1     -29.524 -13.469  -8.977  1.00  0.00    -0.021 N 
ATOM      3  H2  UNL     1     -29.477 -12.867  -8.155  1.00  0.00     0.203 HD
HETATM    4  C3  UNL     1     -29.884 -12.930 -10.177  1.00  0.00     0.725 A 
HETATM    5  N6  UNL     1     -29.944 -13.732 -11.256  1.00  0.00    -0.021 N 
ATOM      6  H6  UNL     1     -30.213 -13.339 -12.159  1.00  0.00     0.203 HD
HETATM    7  C8  UNL     1     -29.653 -15.045 -11.164  1.00  0.00     0.707 A 
HETATM    8  N8  UNL     1     -29.298 -15.544  -9.950  1.00  0.00    -0.022 N 
ATOM      9  H8  UNL     1     -29.077 -16.536  -9.870  1.00  0.00     0.203 HD
ENDROOT
BRANCH   7  10
HETATM   10  N7  UNL     1     -29.726 -15.761 -12.223  1.00  0.00    -0.223 N 
ATOM     11  H7  UNL     1     -30.408 -16.520 -12.226  1.00  0.00     0.177 HD
BRANCH  10  12
HETATM   12  C9  UNL     1     -28.936 -15.588 -13.399  1.00  0.00     0.172 C 
BRANCH  12  13
HETATM   13  C10 UNL     1     -29.582 -14.465 -14.215  1.00  0.00     0.167 C 
BRANCH  13  14
HETATM   14  O3  UNL     1     -29.926 -15.062 -15.448  1.00  0.00    -0.391 OA
ATOM     15  H3  UNL     1     -30.797 -14.737 -15.643  1.00  0.00     0.210 HD
ENDBRANCH  13  14
BRANCH  13  16
HETATM   16  C11 UNL     1     -28.585 -13.370 -14.523  1.00  0.00     0.176 C 
BRANCH  16  17
HETATM   17  O4  UNL     1     -27.744 -13.223 -13.446  1.00  0.00    -0.390 OA
ATOM     18  H4  UNL     1     -27.615 -12.296 -13.283  1.00  0.00     0.210 HD
ENDBRANCH  16  17
BRANCH  16  19
HETATM   19  C12 UNL     1     -29.293 -12.107 -14.919  1.00  0.00     0.145 C 
HETATM   20  C13 UNL     1     -28.355 -10.938 -14.705  1.00  0.00     0.042 C 
BRANCH  19  21
HETATM   21  O5  UNL     1     -29.672 -12.216 -16.253  1.00  0.00    -0.393 OA
ATOM     22  H5  UNL     1     -30.620 -12.235 -16.294  1.00  0.00     0.210 HD
ENDBRANCH  19  21
ENDBRANCH  16  19
ENDBRANCH  13  16
ENDBRANCH  12  13
ENDBRANCH  10  12
ENDBRANCH   7  10
BRANCH   4  23
HETATM   23  N3  UNL     1     -30.190 -11.553 -10.282  1.00  0.00    -0.058 N 
HETATM   24  C4  UNL     1     -29.373 -10.695 -10.915  1.00  0.00     0.274 A 
HETATM   25  O1  UNL     1     -28.312 -11.202 -11.411  1.00  0.00    -0.267 OA
HETATM   26  C5  UNL     1     -29.652  -9.355 -11.029  1.00  0.00     0.120 A 
HETATM   27  C6  UNL     1     -30.799  -8.862 -10.482  1.00  0.00     0.125 A 
HETATM   28  N4  UNL     1     -31.152  -7.464 -10.566  1.00  0.00    -0.082 NA
HETATM   29  N5  UNL     1     -31.620  -9.727  -9.845  1.00  0.00    -0.296 N 
HETATM   30  C7  UNL     1     -31.312 -11.054  -9.750  1.00  0.00     0.349 A 
ATOM     31  H5  UNL     1     -32.485  -9.382  -9.428  1.00  0.00     0.171 HD
HETATM   32  O2  UNL     1     -32.127 -11.786  -9.144  1.00  0.00    -0.245 OA
ENDBRANCH   4  23
BRANCH   1  33
HETATM   33  N1  UNL     1     -28.884 -15.315  -7.734  1.00  0.00    -0.229 N 
HETATM   34  C1  UNL     1     -28.455 -14.599  -6.578  1.00  0.00     0.165 C 
ATOM     35  H1  UNL     1     -28.921 -16.332  -7.672  1.00  0.00     0.177 HD
ENDBRANCH   1  33
TORSDOF 10
ENDMDL
MODEL 4
REMARK VINA RESULT: -7.380582552      2.531      4.257
REMARK  10 active torsions:
REMARK  status: ('A' for Active; 'I' for Inactive)
REMARK    1  A    between atoms: N1_2  and  C2_4 
REMARK    2  A    between atoms: C3_7  and  N3_8 
REMARK    3  A    between atoms: C8_20  and  N7_21 
REMARK    4  A    between atoms: N7_21  and  C9_23 
REMARK    5  A    between atoms: C9_23  and  C10_24 
REMARK    6  A    between atoms: C10_24  and  O3_25 
REMARK    7  A    between atoms: C10_24  and  C11_27 
REMARK    8  A    between atoms: C11_27  and  O4_28 
REMARK    9  A    between atoms: C11_27  and  C12_30 
REMARK   10  A    between atoms: C12_30  and  O5_32 
ROOT
HETATM    1  C2  UNL     1     -29.656 -14.548 -11.228  1.00  0.00     0.706 A 
HETATM    2  N2  UNL     1     -30.696 -14.256 -10.434  1.00  0.00    -0.021 N 
ATOM      3  H2  UNL     1     -31.387 -14.979 -10.232  1.00  0.00     0.203 HD
HETATM    4  C3  UNL     1     -30.853 -13.015  -9.888  1.00  0.00     0.725 A 
HETATM    5  N6  UNL     1     -29.937 -12.067 -10.159  1.00  0.00    -0.021 N 
ATOM      6  H6  UNL     1     -30.044 -11.136  -9.758  1.00  0.00     0.203 HD
HETATM    7  C8  UNL     1     -28.880 -12.329 -10.954  1.00  0.00     0.707 A 
HETATM    8  N8  UNL     1     -28.759 -13.577 -11.478  1.00  0.00    -0.022 N 
ATOM      9  H8  UNL     1     -27.963 -13.785 -12.081  1.00  0.00     0.203 HD
ENDROOT
BRANCH   7  10
HETATM   10  N7  UNL     1     -28.039 -11.390 -11.178  1.00  0.00    -0.223 N 
ATOM     11  H7  UNL     1     -27.153 -11.427 -10.674  1.00  0.00     0.177 HD
BRANCH  10  12
HETATM   12  C9  UNL     1     -28.236 -10.295 -12.074  1.00  0.00     0.172 C 
BRANCH  12  13
HETATM   13  C10 UNL     1     -27.764 -10.753 -13.456  1.00  0.00     0.167 C 
BRANCH  13  14
HETATM   14  O3  UNL     1     -27.072  -9.645 -13.992  1.00  0.00    -0.391 OA
ATOM     15  H3  UNL     1     -27.385  -9.569 -14.886  1.00  0.00     0.210 HD
ENDBRANCH  13  14
BRANCH  13  16
HETATM   16  C11 UNL     1     -28.938 -11.021 -14.373  1.00  0.00     0.176 C 
BRANCH  16  17
HETATM   17  O4  UNL     1     -30.101 -10.762 -13.688  1.00  0.00    -0.390 OA
ATOM     18  H4  UNL     1     -30.693 -11.496 -13.803  1.00  0.00     0.210 HD
ENDBRANCH  16  17
BRANCH  16  19
HETATM   19  C12 UNL     1     -28.860 -12.409 -14.940  1.00  0.00     0.145 C 
HETATM   20  C13 UNL     1     -27.489 -12.978 -14.642  1.00  0.00     0.042 C 
BRANCH  19  21
HETATM   21  O5  UNL     1     -29.865 -13.176 -14.360  1.00  0.00    -0.393 OA
ATOM     22  H5  UNL     1     -29.624 -13.354 -13.459  1.00  0.00     0.210 HD
ENDBRANCH  19  21
ENDBRANCH  16  19
ENDBRANCH  13  16
ENDBRANCH  12  13
ENDBRANCH  10  12
ENDBRANCH   7  10
BRANCH   4  23
HETATM   23  N3  UNL     1     -31.959 -12.733  -9.053  1.00  0.00    -0.058 N 
HETATM   24  C4  UNL     1     -32.800 -11.719  -9.316  1.00  0.00     0.274 A 
HETATM   25  O1  UNL     1     -32.536 -11.034 -10.360  1.00  0.00    -0.267 OA
HETATM   26  C5  UNL     1     -33.880 -11.427  -8.518  1.00  0.00     0.120 A 
HETATM   27  C6  UNL     1     -34.120 -12.189  -7.413  1.00  0.00     0.125 A 
HETATM   28  N4  UNL     1     -35.236 -11.937  -6.533  1.00  0.00    -0.082 NA
HETATM   29  N5  UNL     1     -33.272 -13.209  -7.150  1.00  0.00    -0.296 N 
HETATM   30  C7  UNL     1     -32.207 -13.471  -7.965  1.00  0.00     0.349 A 
ATOM     31  H5  UNL     1     -33.430 -13.793  -6.329  1.00  0.00     0.171 HD
HETATM   32  O2  UNL     1     -31.472 -14.433  -7.649  1.00  0.00    -0.245 OA
ENDBRANCH   4  23
BRANCH   1  33
HETATM   33  N1  UNL     1     -29.476 -15.709 -11.760  1.00  0.00    -0.229 N 
HETATM   34  C1  UNL     1     -28.452 -16.024 -12.700  1.00  0.00     0.165 C 
ATOM     35  H1  UNL     1     -30.113 -16.457 -11.488  1.00  0.00     0.177 HD
ENDBRANCH   1  33
TORSDOF 10
ENDMDL
MODEL 5
REMARK VINA RESULT: -7.363268843      1.287      1.969
REMARK  10 active torsions:
REMARK  status: ('A' for Active; 'I' for Inactive)
REMARK    1  A    between atoms: N1_2  and  C2_4 
REMARK    2  A    between atoms: C3_7  and  N3_8 
REMARK    3  A    between atoms: C8_20  and  N7_21 
REMARK    4  A    between atoms: N7_21  and  C9_23 
REMARK    5  A    between atoms: C9_23  and  C10_24 
REMARK    6  A    between atoms: C10_24  and  O3_25 
REMARK    7  A    between atoms: C10_24  and  C11_27 
REMARK    8  A    between atoms: C11_27  and  O4_28 
REMARK    9  A    between atoms: C11_27  and  C12_30 
REMARK   10  A    between atoms: C12_30  and  O5_32 
ROOT
HETATM    1  C2  UNL     1     -29.213 -13.829  -8.047  1.00  0.00     0.706 A 
HETATM    2  N2  UNL     1     -29.604 -12.586  -8.365  1.00  0.00    -0.021 N 
ATOM      3  H2  UNL     1     -29.612 -11.867  -7.642  1.00  0.00     0.203 HD
HETATM    4  C3  UNL     1     -29.991 -12.261  -9.632  1.00  0.00     0.725 A 
HETATM    5  N6  UNL     1     -29.979 -13.216 -10.580  1.00  0.00    -0.021 N 
ATOM      6  H6  UNL     1     -30.267 -12.985 -11.530  1.00  0.00     0.203 HD
HETATM    7  C8  UNL     1     -29.591 -14.476 -10.292  1.00  0.00     0.707 A 
HETATM    8  N8  UNL     1     -29.213 -14.759  -9.018  1.00  0.00    -0.022 N 
ATOM      9  H8  UNL     1     -28.919 -15.709  -8.791  1.00  0.00     0.203 HD
ENDROOT
BRANCH   7  10
HETATM   10  N7  UNL     1     -29.599 -15.345 -11.232  1.00  0.00    -0.223 N 
ATOM     11  H7  UNL     1     -30.459 -15.875 -11.370  1.00  0.00     0.177 HD
BRANCH  10  12
HETATM   12  C9  UNL     1     -28.506 -15.635 -12.105  1.00  0.00     0.172 C 
BRANCH  12  13
HETATM   13  C10 UNL     1     -28.885 -15.111 -13.492  1.00  0.00     0.167 C 
BRANCH  13  14
HETATM   14  O3  UNL     1     -28.484 -16.126 -14.388  1.00  0.00    -0.391 OA
ATOM     15  H3  UNL     1     -28.390 -15.690 -15.226  1.00  0.00     0.210 HD
ENDBRANCH  13  14
BRANCH  13  16
HETATM   16  C11 UNL     1     -28.088 -13.876 -13.846  1.00  0.00     0.176 C 
BRANCH  16  17
HETATM   17  O4  UNL     1     -27.789 -13.196 -12.690  1.00  0.00    -0.390 OA
ATOM     18  H4  UNL     1     -27.483 -12.325 -12.917  1.00  0.00     0.210 HD
ENDBRANCH  16  17
BRANCH  16  19
HETATM   19  C12 UNL     1     -28.817 -13.050 -14.867  1.00  0.00     0.145 C 
HETATM   20  C13 UNL     1     -28.467 -11.593 -14.652  1.00  0.00     0.042 C 
BRANCH  19  21
HETATM   21  O5  UNL     1     -28.436 -13.482 -16.133  1.00  0.00    -0.393 OA
ATOM     22  H5  UNL     1     -28.000 -12.764 -16.576  1.00  0.00     0.210 HD
ENDBRANCH  19  21
ENDBRANCH  16  19
ENDBRANCH  13  16
ENDBRANCH  12  13
ENDBRANCH  10  12
ENDBRANCH   7  10
BRANCH   4  23
HETATM   23  N3  UNL     1     -30.399 -10.943  -9.942  1.00  0.00    -0.058 N 
HETATM   24  C4  UNL     1     -29.712 -10.176 -10.806  1.00  0.00     0.274 A 
HETATM   25  O1  UNL     1     -28.677 -10.714 -11.323  1.00  0.00    -0.267 OA
HETATM   26  C5  UNL     1     -30.091  -8.894 -11.121  1.00  0.00     0.120 A 
HETATM   27  C6  UNL     1     -31.205  -8.364 -10.540  1.00  0.00     0.125 A 
HETATM   28  N4  UNL     1     -31.658  -7.023 -10.827  1.00  0.00    -0.082 NA
HETATM   29  N5  UNL     1     -31.895  -9.137  -9.671  1.00  0.00    -0.296 N 
HETATM   30  C7  UNL     1     -31.490 -10.409  -9.380  1.00  0.00     0.349 A 
ATOM     31  H5  UNL     1     -32.732  -8.763  -9.224  1.00  0.00     0.171 HD
HETATM   32  O2  UNL     1     -32.185 -11.055  -8.565  1.00  0.00    -0.245 OA
ENDBRANCH   4  23
BRANCH   1  33
HETATM   33  N1  UNL     1     -28.841 -14.172  -6.861  1.00  0.00    -0.229 N 
HETATM   34  C1  UNL     1     -28.426 -15.483  -6.485  1.00  0.00     0.165 C 
ATOM     35  H1  UNL     1     -28.842 -13.452  -6.139  1.00  0.00     0.177 HD
ENDBRANCH   1  33
TORSDOF 10
ENDMDL
