MODEL 1
REMARK VINA RESULT: -7.136641825      0.000      0.000
REMARK  3 active torsions:
REMARK  status: ('A' for Active; 'I' for Inactive)
REMARK       I    between atoms: C1_4  and  N3_6 
REMARK    1  A    between atoms: N3_6  and  C2_8 
REMARK    2  A    between atoms: N5_11  and  C3_12 
REMARK    3  A    between atoms: N6_20  and  N7_21 
ROOT
HETATM    1  C2  UNL     1     -30.754 -23.152 -55.379  1.00  0.00     0.725 A 
HETATM    2  N4  UNL     1     -31.771 -24.012 -55.185  1.00  0.00    -0.119 N 
ATOM      3  H4  UNL     1     -31.882 -24.907 -55.661  1.00  0.00     0.206 HD
HETATM    4  N5  UNL     1     -32.602 -23.523 -54.289  1.00  0.00    -0.189 N 
HETATM    5  C9  UNL     1     -32.097 -22.336 -53.915  1.00  0.00     0.382 A 
HETATM    6  O1  UNL     1     -32.594 -21.531 -53.060  1.00  0.00    -0.242 OA
HETATM    7  N6  UNL     1     -30.945 -22.078 -54.577  1.00  0.00    -0.035 N 
ENDROOT
BRANCH   1   8
HETATM    8  N3  UNL     1     -29.771 -23.342 -56.198  1.00  0.00    -0.161 N 
HETATM    9  C1  UNL     1     -29.757 -24.286 -57.234  1.00  0.00     0.200 C 
HETATM   10  N1  UNL     1     -30.074 -23.930 -58.451  1.00  0.00    -0.373 N 
HETATM   11  N2  UNL     1     -29.404 -25.645 -57.023  1.00  0.00    -0.063 NA
ATOM     12  H12 UNL     1     -30.063 -24.616 -59.205  1.00  0.00     0.158 HD
ATOM     13  H11 UNL     1     -30.327 -22.954 -58.602  1.00  0.00     0.158 HD
ATOM     14  H3  UNL     1     -28.943 -22.759 -56.080  1.00  0.00     0.187 HD
ENDBRANCH   1   8
BRANCH   7  15
HETATM   15  N7  UNL     1     -30.130 -20.955 -54.463  1.00  0.00    -0.320 N 
ATOM     16  H72 UNL     1     -29.998 -20.208 -55.145  1.00  0.00     0.178 HD
ATOM     17  H71 UNL     1     -29.533 -20.701 -53.676  1.00  0.00     0.178 HD
ENDBRANCH   7  15
BRANCH   4  18
HETATM   18  C3  UNL     1     -33.812 -24.105 -53.786  1.00  0.00     0.062 A 
HETATM   19  C4  UNL     1     -33.875 -24.732 -52.559  1.00  0.00     0.032 A 
HETATM   20  C5  UNL     1     -35.089 -25.278 -52.130  1.00  0.00     0.002 A 
HETATM   21  C6  UNL     1     -36.224 -25.210 -52.893  1.00  0.00     0.000 A 
HETATM   22  C7  UNL     1     -36.174 -24.587 -54.118  1.00  0.00     0.002 A 
HETATM   23  C8  UNL     1     -34.975 -24.057 -54.525  1.00  0.00     0.032 A 
ENDBRANCH   4  18
TORSDOF 3
ENDMDL
MODEL 2
REMARK VINA RESULT: -7.112444656      0.080      1.146
REMARK  3 active torsions:
REMARK  status: ('A' for Active; 'I' for Inactive)
REMARK       I    between atoms: C1_4  and  N3_6 
REMARK    1  A    between atoms: N3_6  and  C2_8 
REMARK    2  A    between atoms: N5_11  and  C3_12 
REMARK    3  A    between atoms: N6_20  and  N7_21 
ROOT
HETATM    1  C2  UNL     1     -30.756 -23.131 -55.391  1.00  0.00     0.725 A 
HETATM    2  N4  UNL     1     -31.792 -23.973 -55.213  1.00  0.00    -0.119 N 
ATOM      3  H4  UNL     1     -31.911 -24.866 -55.690  1.00  0.00     0.206 HD
HETATM    4  N5  UNL     1     -32.629 -23.468 -54.331  1.00  0.00    -0.189 N 
HETATM    5  C9  UNL     1     -32.109 -22.290 -53.949  1.00  0.00     0.382 A 
HETATM    6  O1  UNL     1     -32.604 -21.475 -53.104  1.00  0.00    -0.242 OA
HETATM    7  N6  UNL     1     -30.941 -22.053 -54.592  1.00  0.00    -0.035 N 
ENDROOT
BRANCH   1   8
HETATM    8  N3  UNL     1     -29.764 -23.340 -56.193  1.00  0.00    -0.161 N 
HETATM    9  C1  UNL     1     -29.749 -24.287 -57.226  1.00  0.00     0.200 C 
HETATM   10  N1  UNL     1     -30.040 -23.929 -58.449  1.00  0.00    -0.373 N 
HETATM   11  N2  UNL     1     -29.422 -25.651 -57.007  1.00  0.00    -0.063 NA
ATOM     12  H12 UNL     1     -30.029 -24.618 -59.201  1.00  0.00     0.158 HD
ATOM     13  H11 UNL     1     -30.274 -22.949 -58.607  1.00  0.00     0.158 HD
ATOM     14  H3  UNL     1     -28.928 -22.770 -56.064  1.00  0.00     0.187 HD
ENDBRANCH   1   8
BRANCH   7  15
HETATM   15  N7  UNL     1     -30.108 -20.945 -54.466  1.00  0.00    -0.320 N 
ATOM     16  H72 UNL     1     -29.093 -20.934 -54.370  1.00  0.00     0.178 HD
ATOM     17  H71 UNL     1     -30.384 -19.963 -54.448  1.00  0.00     0.178 HD
ENDBRANCH   7  15
BRANCH   4  18
HETATM   18  C3  UNL     1     -33.858 -24.028 -53.848  1.00  0.00     0.062 A 
HETATM   19  C4  UNL     1     -35.045 -23.907 -54.539  1.00  0.00     0.032 A 
HETATM   20  C5  UNL     1     -36.207 -24.477 -54.009  1.00  0.00     0.002 A 
HETATM   21  C6  UNL     1     -36.203 -25.156 -52.820  1.00  0.00     0.000 A 
HETATM   22  C7  UNL     1     -35.026 -25.283 -52.122  1.00  0.00     0.002 A 
HETATM   23  C8  UNL     1     -33.894 -24.717 -52.655  1.00  0.00     0.032 A 
ENDBRANCH   4  18
TORSDOF 3
ENDMDL
MODEL 3
REMARK VINA RESULT: -6.825076775      2.784      5.712
REMARK  3 active torsions:
REMARK  status: ('A' for Active; 'I' for Inactive)
REMARK       I    between atoms: C1_4  and  N3_6 
REMARK    1  A    between atoms: N3_6  and  C2_8 
REMARK    2  A    between atoms: N5_11  and  C3_12 
REMARK    3  A    between atoms: N6_20  and  N7_21 
ROOT
HETATM    1  C2  UNL     1     -34.510 -22.018 -53.704  1.00  0.00     0.725 A 
HETATM    2  N4  UNL     1     -33.519 -21.954 -54.613  1.00  0.00    -0.119 N 
ATOM      3  H4  UNL     1     -33.356 -21.175 -55.251  1.00  0.00     0.206 HD
HETATM    4  N5  UNL     1     -32.791 -23.049 -54.554  1.00  0.00    -0.189 N 
HETATM    5  C9  UNL     1     -33.335 -23.812 -53.593  1.00  0.00     0.382 A 
HETATM    6  O1  UNL     1     -32.934 -24.961 -53.212  1.00  0.00    -0.242 OA
HETATM    7  N6  UNL     1     -34.408 -23.195 -53.043  1.00  0.00    -0.035 N 
ENDROOT
BRANCH   1   8
HETATM    8  N3  UNL     1     -35.397 -21.097 -53.512  1.00  0.00    -0.161 N 
HETATM    9  C1  UNL     1     -35.425 -19.857 -54.165  1.00  0.00     0.200 C 
HETATM   10  N1  UNL     1     -36.176 -19.688 -55.222  1.00  0.00    -0.373 N 
HETATM   11  N2  UNL     1     -34.662 -18.744 -53.723  1.00  0.00    -0.063 NA
ATOM     12  H12 UNL     1     -36.197 -18.786 -55.697  1.00  0.00     0.158 HD
ATOM     13  H11 UNL     1     -36.725 -20.487 -55.538  1.00  0.00     0.158 HD
ATOM     14  H3  UNL     1     -36.133 -21.288 -52.832  1.00  0.00     0.187 HD
ENDBRANCH   1   8
BRANCH   7  15
HETATM   15  N7  UNL     1     -35.231 -23.665 -52.023  1.00  0.00    -0.320 N 
ATOM     16  H72 UNL     1     -34.953 -23.997 -51.100  1.00  0.00     0.178 HD
ATOM     17  H71 UNL     1     -36.247 -23.752 -52.040  1.00  0.00     0.178 HD
ENDBRANCH   7  15
BRANCH   4  18
HETATM   18  C3  UNL     1     -31.643 -23.398 -55.340  1.00  0.00     0.062 A 
HETATM   19  C4  UNL     1     -30.521 -22.599 -55.400  1.00  0.00     0.032 A 
HETATM   20  C5  UNL     1     -29.436 -23.000 -56.187  1.00  0.00     0.002 A 
HETATM   21  C6  UNL     1     -29.453 -24.168 -56.902  1.00  0.00     0.000 A 
HETATM   22  C7  UNL     1     -30.566 -24.973 -56.849  1.00  0.00     0.002 A 
HETATM   23  C8  UNL     1     -31.622 -24.564 -56.073  1.00  0.00     0.032 A 
ENDBRANCH   4  18
TORSDOF 3
ENDMDL
MODEL 4
REMARK VINA RESULT: -6.448650399      2.632      4.119
REMARK  3 active torsions:
REMARK  status: ('A' for Active; 'I' for Inactive)
REMARK       I    between atoms: C1_4  and  N3_6 
REMARK    1  A    between atoms: N3_6  and  C2_8 
REMARK    2  A    between atoms: N5_11  and  C3_12 
REMARK    3  A    between atoms: N6_20  and  N7_21 
ROOT
HETATM    1  C2  UNL     1     -34.256 -22.927 -54.303  1.00  0.00     0.725 A 
HETATM    2  N4  UNL     1     -35.157 -23.506 -55.120  1.00  0.00    -0.119 N 
ATOM      3  H4  UNL     1     -35.397 -23.178 -56.055  1.00  0.00     0.206 HD
HETATM    4  N5  UNL     1     -35.682 -24.558 -54.528  1.00  0.00    -0.189 N 
HETATM    5  C9  UNL     1     -35.100 -24.641 -53.320  1.00  0.00     0.382 A 
HETATM    6  O1  UNL     1     -35.323 -25.520 -52.425  1.00  0.00    -0.242 OA
HETATM    7  N6  UNL     1     -34.206 -23.638 -53.152  1.00  0.00    -0.035 N 
ENDROOT
BRANCH   1   8
HETATM    8  N3  UNL     1     -33.566 -21.873 -54.593  1.00  0.00    -0.161 N 
HETATM    9  C1  UNL     1     -32.166 -21.816 -54.650  1.00  0.00     0.200 C 
HETATM   10  N1  UNL     1     -31.550 -21.948 -55.795  1.00  0.00    -0.373 N 
HETATM   11  N2  UNL     1     -31.363 -21.616 -53.496  1.00  0.00    -0.063 NA
ATOM     12  H12 UNL     1     -30.532 -21.907 -55.837  1.00  0.00     0.158 HD
ATOM     13  H11 UNL     1     -32.127 -22.092 -56.623  1.00  0.00     0.158 HD
ATOM     14  H3  UNL     1     -34.080 -21.016 -54.795  1.00  0.00     0.187 HD
ENDBRANCH   1   8
BRANCH   7  15
HETATM   15  N7  UNL     1     -33.408 -23.387 -52.039  1.00  0.00    -0.320 N 
ATOM     16  H72 UNL     1     -33.424 -22.568 -51.431  1.00  0.00     0.178 HD
ATOM     17  H71 UNL     1     -32.676 -23.985 -51.656  1.00  0.00     0.178 HD
ENDBRANCH   7  15
BRANCH   4  18
HETATM   18  C3  UNL     1     -36.676 -25.460 -55.033  1.00  0.00     0.062 A 
HETATM   19  C4  UNL     1     -36.647 -26.812 -54.768  1.00  0.00     0.032 A 
HETATM   20  C5  UNL     1     -37.649 -27.635 -55.292  1.00  0.00     0.002 A 
HETATM   21  C6  UNL     1     -38.664 -27.137 -56.066  1.00  0.00     0.000 A 
HETATM   22  C7  UNL     1     -38.703 -25.790 -56.337  1.00  0.00     0.002 A 
HETATM   23  C8  UNL     1     -37.712 -24.996 -55.815  1.00  0.00     0.032 A 
ENDBRANCH   4  18
TORSDOF 3
ENDMDL
MODEL 5
REMARK VINA RESULT: -6.440184175      2.635      4.244
REMARK  3 active torsions:
REMARK  status: ('A' for Active; 'I' for Inactive)
REMARK       I    between atoms: C1_4  and  N3_6 
REMARK    1  A    between atoms: N3_6  and  C2_8 
REMARK    2  A    between atoms: N5_11  and  C3_12 
REMARK    3  A    between atoms: N6_20  and  N7_21 
ROOT
HETATM    1  C2  UNL     1     -34.251 -22.920 -54.313  1.00  0.00     0.725 A 
HETATM    2  N4  UNL     1     -35.148 -23.491 -55.139  1.00  0.00    -0.119 N 
ATOM      3  H4  UNL     1     -35.378 -23.159 -56.075  1.00  0.00     0.206 HD
HETATM    4  N5  UNL     1     -35.682 -24.543 -54.557  1.00  0.00    -0.189 N 
HETATM    5  C9  UNL     1     -35.111 -24.634 -53.344  1.00  0.00     0.382 A 
HETATM    6  O1  UNL     1     -35.344 -25.516 -52.454  1.00  0.00    -0.242 OA
HETATM    7  N6  UNL     1     -34.214 -23.635 -53.164  1.00  0.00    -0.035 N 
ENDROOT
BRANCH   1   8
HETATM    8  N3  UNL     1     -33.555 -21.867 -54.592  1.00  0.00    -0.161 N 
HETATM    9  C1  UNL     1     -32.154 -21.817 -54.641  1.00  0.00     0.200 C 
HETATM   10  N1  UNL     1     -31.532 -21.945 -55.783  1.00  0.00    -0.373 N 
HETATM   11  N2  UNL     1     -31.356 -21.627 -53.481  1.00  0.00    -0.063 NA
ATOM     12  H12 UNL     1     -30.514 -21.908 -55.819  1.00  0.00     0.158 HD
ATOM     13  H11 UNL     1     -32.105 -22.081 -56.616  1.00  0.00     0.158 HD
ATOM     14  H3  UNL     1     -34.064 -21.006 -54.792  1.00  0.00     0.187 HD
ENDBRANCH   1   8
BRANCH   7  15
HETATM   15  N7  UNL     1     -33.424 -23.392 -52.044  1.00  0.00    -0.320 N 
ATOM     16  H72 UNL     1     -33.460 -23.863 -51.140  1.00  0.00     0.178 HD
ATOM     17  H71 UNL     1     -32.682 -22.698 -51.950  1.00  0.00     0.178 HD
ENDBRANCH   7  15
BRANCH   4  18
HETATM   18  C3  UNL     1     -36.675 -25.439 -55.074  1.00  0.00     0.062 A 
HETATM   19  C4  UNL     1     -37.698 -25.011 -55.893  1.00  0.00     0.032 A 
HETATM   20  C5  UNL     1     -38.634 -25.939 -56.362  1.00  0.00     0.002 A 
HETATM   21  C6  UNL     1     -38.565 -27.266 -56.032  1.00  0.00     0.000 A 
HETATM   22  C7  UNL     1     -37.549 -27.705 -55.217  1.00  0.00     0.002 A 
HETATM   23  C8  UNL     1     -36.640 -26.781 -54.765  1.00  0.00     0.032 A 
ENDBRANCH   4  18
TORSDOF 3
ENDMDL
