MODEL 1
REMARK VINA RESULT: -7.771062962      0.000      0.000
REMARK  6 active torsions:
REMARK  status: ('A' for Active; 'I' for Inactive)
REMARK    1  A    between atoms: C5_8  and  C6_9 
REMARK    2  A    between atoms: C7_12  and  C8_13 
REMARK    3  A    between atoms: C10_19  and  N6_20 
REMARK    4  A    between atoms: C11_25  and  N8_26 
REMARK    5  A    between atoms: N8_26  and  N9_28 
REMARK    6  A    between atoms: N9_28  and  C12_30 
ROOT
HETATM    1  C6  UNL     1     -18.452  36.519 -10.831  1.00  0.00     0.077 A 
HETATM    2  N3  UNL     1     -17.695  36.531 -11.950  1.00  0.00    -0.336 N 
ATOM      3  H3  UNL     1     -16.711  36.785 -11.855  1.00  0.00     0.168 HD
HETATM    4  C7  UNL     1     -18.140  36.237 -13.157  1.00  0.00     0.172 A 
HETATM    5  N5  UNL     1     -19.455  35.896 -13.282  1.00  0.00    -0.333 N 
ATOM      6  H5  UNL     1     -19.812  35.666 -14.209  1.00  0.00     0.168 HD
HETATM    7  C9  UNL     1     -20.301  35.849 -12.241  1.00  0.00     0.108 A 
HETATM    8  C10 UNL     1     -21.626  35.485 -12.375  1.00  0.00     0.144 A 
HETATM    9  N7  UNL     1     -22.434  35.431 -11.309  1.00  0.00    -0.173 N 
ATOM     10  H7  UNL     1     -23.412  35.161 -11.418  1.00  0.00     0.186 HD
HETATM   11  C11 UNL     1     -21.946  35.735 -10.098  1.00  0.00     0.698 A 
HETATM   12  N10 UNL     1     -20.633  36.098  -9.952  1.00  0.00    -0.186 N 
ATOM     13  H10 UNL     1     -20.289  36.325  -9.018  1.00  0.00     0.184 HD
HETATM   14  C15 UNL     1     -19.789  36.168 -10.978  1.00  0.00     0.107 A 
ENDROOT
BRANCH   1  15
HETATM   15  C5  UNL     1     -17.927  36.847  -9.519  1.00  0.00     0.034 A 
HETATM   16  C2  UNL     1     -17.880  38.111  -8.913  1.00  0.00     0.036 A 
HETATM   17  C1  UNL     1     -18.345  39.339  -9.618  1.00  0.00     0.070 C 
HETATM   18  N1  UNL     1     -17.356  37.956  -7.695  1.00  0.00    -0.303 N 
HETATM   19  N2  UNL     1     -17.051  36.674  -7.451  1.00  0.00    -0.307 N 
ATOM     20  H1  UNL     1     -17.206  38.718  -7.034  1.00  0.00     0.186 HD
HETATM   21  C3  UNL     1     -16.470  36.115  -6.247  1.00  0.00     0.177 C 
HETATM   22  C4  UNL     1     -17.405  36.012  -8.571  1.00  0.00     0.125 A 
ENDBRANCH   1  15
BRANCH   4  23
HETATM   23  C8  UNL     1     -17.312  36.250 -14.380  1.00  0.00     0.298 C 
HETATM   24  N4  UNL     1     -16.690  35.100 -14.872  1.00  0.00    -0.054 NA
HETATM   25  O1  UNL     1     -17.192  37.360 -14.967  1.00  0.00    -0.268 OA
ENDBRANCH   4  23
BRANCH   8  26
HETATM   26  N6  UNL     1     -22.060  35.197 -13.564  1.00  0.00    -0.383 N 
ATOM     27  H62 UNL     1     -21.415  34.977 -14.323  1.00  0.00     0.157 HD
ATOM     28  H61 UNL     1     -23.068  35.198 -13.718  1.00  0.00     0.157 HD
ENDBRANCH   8  26
BRANCH  11  29
HETATM   29  N8  UNL     1     -22.625  35.681  -9.029  1.00  0.00    -0.136 N 
ATOM     30  H8  UNL     1     -22.383  36.426  -8.375  1.00  0.00     0.205 HD
BRANCH  29  31
HETATM   31  N9  UNL     1     -23.592  34.871  -8.551  1.00  0.00    -0.318 N 
ATOM     32  H9  UNL     1     -23.300  34.213  -7.830  1.00  0.00     0.181 HD
BRANCH  31  33
HETATM   33  C12 UNL     1     -24.981  34.810  -8.922  1.00  0.00     0.091 C 
HETATM   34  C13 UNL     1     -25.877  34.720  -7.701  1.00  0.00     0.033 C 
HETATM   35  C14 UNL     1     -25.387  36.143  -9.590  1.00  0.00     0.033 C 
ENDBRANCH  31  33
ENDBRANCH  29  31
ENDBRANCH  11  29
TORSDOF 6
ENDMDL
MODEL 2
REMARK VINA RESULT: -7.610062005      0.794      1.635
REMARK  6 active torsions:
REMARK  status: ('A' for Active; 'I' for Inactive)
REMARK    1  A    between atoms: C5_8  and  C6_9 
REMARK    2  A    between atoms: C7_12  and  C8_13 
REMARK    3  A    between atoms: C10_19  and  N6_20 
REMARK    4  A    between atoms: C11_25  and  N8_26 
REMARK    5  A    between atoms: N8_26  and  N9_28 
REMARK    6  A    between atoms: N9_28  and  C12_30 
ROOT
HETATM    1  C6  UNL     1     -18.304  36.030 -10.843  1.00  0.00     0.077 A 
HETATM    2  N3  UNL     1     -17.629  36.146 -12.008  1.00  0.00    -0.336 N 
ATOM      3  H3  UNL     1     -16.619  36.278 -11.961  1.00  0.00     0.168 HD
HETATM    4  C7  UNL     1     -18.187  36.100 -13.203  1.00  0.00     0.172 A 
HETATM    5  N5  UNL     1     -19.538  35.921 -13.264  1.00  0.00    -0.333 N 
ATOM      6  H5  UNL     1     -19.982  35.884 -14.181  1.00  0.00     0.168 HD
HETATM    7  C9  UNL     1     -20.310  35.793 -12.174  1.00  0.00     0.108 A 
HETATM    8  C10 UNL     1     -21.674  35.594 -12.248  1.00  0.00     0.144 A 
HETATM    9  N7  UNL     1     -22.408  35.450 -11.136  1.00  0.00    -0.173 N 
ATOM     10  H7  UNL     1     -23.416  35.304 -11.200  1.00  0.00     0.186 HD
HETATM   11  C11 UNL     1     -21.805  35.500  -9.939  1.00  0.00     0.698 A 
HETATM   12  N10 UNL     1     -20.453  35.698  -9.853  1.00  0.00    -0.186 N 
ATOM     13  H10 UNL     1     -20.021  35.733  -8.929  1.00  0.00     0.184 HD
HETATM   14  C15 UNL     1     -19.678  35.847 -10.926  1.00  0.00     0.107 A 
ENDROOT
BRANCH   1  15
HETATM   15  C5  UNL     1     -17.654  36.084  -9.546  1.00  0.00     0.034 A 
HETATM   16  C2  UNL     1     -16.887  35.081  -8.937  1.00  0.00     0.036 A 
HETATM   17  C1  UNL     1     -16.687  33.748  -9.572  1.00  0.00     0.070 C 
HETATM   18  N1  UNL     1     -16.448  35.560  -7.771  1.00  0.00    -0.303 N 
HETATM   19  N2  UNL     1     -16.873  36.814  -7.564  1.00  0.00    -0.307 N 
ATOM     20  H1  UNL     1     -15.864  35.037  -7.119  1.00  0.00     0.186 HD
HETATM   21  C3  UNL     1     -16.604  37.664  -6.422  1.00  0.00     0.177 C 
HETATM   22  C4  UNL     1     -17.606  37.118  -8.654  1.00  0.00     0.125 A 
ENDBRANCH   1  15
BRANCH   4  23
HETATM   23  C8  UNL     1     -17.451  36.227 -14.476  1.00  0.00     0.298 C 
HETATM   24  N4  UNL     1     -16.581  35.236 -14.937  1.00  0.00    -0.054 NA
HETATM   25  O1  UNL     1     -17.644  37.285 -15.136  1.00  0.00    -0.268 OA
ENDBRANCH   4  23
BRANCH   8  26
HETATM   26  N6  UNL     1     -22.220  35.550 -13.424  1.00  0.00    -0.383 N 
ATOM     27  H62 UNL     1     -21.842  36.090 -14.202  1.00  0.00     0.157 HD
ATOM     28  H61 UNL     1     -23.042  34.958 -13.549  1.00  0.00     0.157 HD
ENDBRANCH   8  26
BRANCH  11  29
HETATM   29  N8  UNL     1     -22.410  35.343  -8.837  1.00  0.00    -0.136 N 
ATOM     30  H8  UNL     1     -21.851  35.643  -8.039  1.00  0.00     0.205 HD
BRANCH  29  31
HETATM   31  N9  UNL     1     -23.620  34.872  -8.470  1.00  0.00    -0.318 N 
ATOM     32  H9  UNL     1     -23.670  33.868  -8.301  1.00  0.00     0.181 HD
BRANCH  31  33
HETATM   33  C12 UNL     1     -24.851  35.595  -8.285  1.00  0.00     0.091 C 
HETATM   34  C13 UNL     1     -25.443  36.030  -9.612  1.00  0.00     0.033 C 
HETATM   35  C14 UNL     1     -25.913  34.644  -7.692  1.00  0.00     0.033 C 
ENDBRANCH  31  33
ENDBRANCH  29  31
ENDBRANCH  11  29
TORSDOF 6
ENDMDL
MODEL 3
REMARK VINA RESULT: -7.534400747      1.487      2.052
REMARK  6 active torsions:
REMARK  status: ('A' for Active; 'I' for Inactive)
REMARK    1  A    between atoms: C5_8  and  C6_9 
REMARK    2  A    between atoms: C7_12  and  C8_13 
REMARK    3  A    between atoms: C10_19  and  N6_20 
REMARK    4  A    between atoms: C11_25  and  N8_26 
REMARK    5  A    between atoms: N8_26  and  N9_28 
REMARK    6  A    between atoms: N9_28  and  C12_30 
ROOT
HETATM    1  C6  UNL     1     -18.188  35.821  -9.469  1.00  0.00     0.077 A 
HETATM    2  N3  UNL     1     -17.188  35.837 -10.378  1.00  0.00    -0.336 N 
ATOM      3  H3  UNL     1     -16.230  35.881 -10.028  1.00  0.00     0.168 HD
HETATM    4  C7  UNL     1     -17.364  35.798 -11.685  1.00  0.00     0.172 A 
HETATM    5  N5  UNL     1     -18.645  35.737 -12.149  1.00  0.00    -0.333 N 
ATOM      6  H5  UNL     1     -18.795  35.707 -13.158  1.00  0.00     0.168 HD
HETATM    7  C9  UNL     1     -19.717  35.715 -11.342  1.00  0.00     0.108 A 
HETATM    8  C10 UNL     1     -21.008  35.635 -11.822  1.00  0.00     0.144 A 
HETATM    9  N7  UNL     1     -22.052  35.595 -10.983  1.00  0.00    -0.173 N 
ATOM     10  H7  UNL     1     -23.003  35.536 -11.347  1.00  0.00     0.186 HD
HETATM   11  C11 UNL     1     -21.833  35.633  -9.660  1.00  0.00     0.698 A 
HETATM   12  N10 UNL     1     -20.556  35.714  -9.172  1.00  0.00    -0.186 N 
ATOM     13  H10 UNL     1     -20.420  35.743  -8.161  1.00  0.00     0.184 HD
HETATM   14  C15 UNL     1     -19.486  35.757  -9.962  1.00  0.00     0.107 A 
ENDROOT
BRANCH   1  15
HETATM   15  C5  UNL     1     -17.955  35.862  -8.038  1.00  0.00     0.034 A 
HETATM   16  C2  UNL     1     -17.697  34.779  -7.186  1.00  0.00     0.036 A 
HETATM   17  C1  UNL     1     -17.687  33.373  -7.681  1.00  0.00     0.070 C 
HETATM   18  N1  UNL     1     -17.505  35.266  -5.958  1.00  0.00    -0.303 N 
HETATM   19  N2  UNL     1     -17.618  36.602  -5.937  1.00  0.00    -0.307 N 
ATOM     20  H1  UNL     1     -17.299  34.695  -5.140  1.00  0.00     0.186 HD
HETATM   21  C3  UNL     1     -17.476  37.485  -4.797  1.00  0.00     0.177 C 
HETATM   22  C4  UNL     1     -17.892  36.949  -7.211  1.00  0.00     0.125 A 
ENDBRANCH   1  15
BRANCH   4  23
HETATM   23  C8  UNL     1     -16.271  35.816 -12.677  1.00  0.00     0.298 C 
HETATM   24  N4  UNL     1     -16.174  34.866 -13.697  1.00  0.00    -0.054 NA
HETATM   25  O1  UNL     1     -15.418  36.738 -12.560  1.00  0.00    -0.268 OA
ENDBRANCH   4  23
BRANCH   8  26
HETATM   26  N6  UNL     1     -21.178  35.598 -13.108  1.00  0.00    -0.383 N 
ATOM     27  H62 UNL     1     -20.764  36.304 -13.716  1.00  0.00     0.157 HD
ATOM     28  H61 UNL     1     -21.741  34.840 -13.495  1.00  0.00     0.157 HD
ENDBRANCH   8  26
BRANCH  11  29
HETATM   29  N8  UNL     1     -22.753  35.569  -8.790  1.00  0.00    -0.136 N 
ATOM     30  H8  UNL     1     -22.720  36.344  -8.130  1.00  0.00     0.205 HD
BRANCH  29  31
HETATM   31  N9  UNL     1     -23.765  34.715  -8.533  1.00  0.00    -0.318 N 
ATOM     32  H9  UNL     1     -23.533  33.924  -7.934  1.00  0.00     0.181 HD
BRANCH  31  33
HETATM   33  C12 UNL     1     -25.129  34.770  -8.989  1.00  0.00     0.091 C 
HETATM   34  C13 UNL     1     -26.103  34.746  -7.826  1.00  0.00     0.033 C 
HETATM   35  C14 UNL     1     -25.383  36.135  -9.665  1.00  0.00     0.033 C 
ENDBRANCH  31  33
ENDBRANCH  29  31
ENDBRANCH  11  29
TORSDOF 6
ENDMDL
MODEL 4
REMARK VINA RESULT: -7.525823169      1.965      5.136
REMARK  6 active torsions:
REMARK  status: ('A' for Active; 'I' for Inactive)
REMARK    1  A    between atoms: C5_8  and  C6_9 
REMARK    2  A    between atoms: C7_12  and  C8_13 
REMARK    3  A    between atoms: C10_19  and  N6_20 
REMARK    4  A    between atoms: C11_25  and  N8_26 
REMARK    5  A    between atoms: N8_26  and  N9_28 
REMARK    6  A    between atoms: N9_28  and  C12_30 
ROOT
HETATM    1  C6  UNL     1     -19.643  36.394 -11.613  1.00  0.00     0.077 A 
HETATM    2  N3  UNL     1     -19.077  36.321 -12.838  1.00  0.00    -0.336 N 
ATOM      3  H3  UNL     1     -19.641  36.608 -13.639  1.00  0.00     0.168 HD
HETATM    4  C7  UNL     1     -17.847  35.904 -13.071  1.00  0.00     0.172 A 
HETATM    5  N5  UNL     1     -17.095  35.522 -11.998  1.00  0.00    -0.333 N 
ATOM      6  H5  UNL     1     -16.142  35.198 -12.163  1.00  0.00     0.168 HD
HETATM    7  C9  UNL     1     -17.550  35.553 -10.736  1.00  0.00     0.108 A 
HETATM    8  C10 UNL     1     -16.775  35.181  -9.657  1.00  0.00     0.144 A 
HETATM    9  N7  UNL     1     -17.259  35.245  -8.409  1.00  0.00    -0.173 N 
ATOM     10  H7  UNL     1     -16.679  34.968  -7.617  1.00  0.00     0.186 HD
HETATM   11  C11 UNL     1     -18.514  35.675  -8.212  1.00  0.00     0.698 A 
HETATM   12  N10 UNL     1     -19.294  36.046  -9.275  1.00  0.00    -0.186 N 
ATOM     13  H10 UNL     1     -20.245  36.369  -9.096  1.00  0.00     0.184 HD
HETATM   14  C15 UNL     1     -18.861  36.002 -10.534  1.00  0.00     0.107 A 
ENDROOT
BRANCH   1  15
HETATM   15  C5  UNL     1     -21.000  36.859 -11.397  1.00  0.00     0.034 A 
HETATM   16  C2  UNL     1     -21.426  38.182 -11.205  1.00  0.00     0.036 A 
HETATM   17  C1  UNL     1     -20.462  39.317 -11.145  1.00  0.00     0.070 C 
HETATM   18  N1  UNL     1     -22.755  38.165 -11.083  1.00  0.00    -0.303 N 
HETATM   19  N2  UNL     1     -23.242  36.920 -11.181  1.00  0.00    -0.307 N 
ATOM     20  H1  UNL     1     -23.328  38.995 -10.934  1.00  0.00     0.186 HD
HETATM   21  C3  UNL     1     -24.626  36.502 -11.103  1.00  0.00     0.177 C 
HETATM   22  C4  UNL     1     -22.160  36.137 -11.372  1.00  0.00     0.125 A 
ENDBRANCH   1  15
BRANCH   4  23
HETATM   23  C8  UNL     1     -17.229  35.825 -14.409  1.00  0.00     0.298 C 
HETATM   24  N4  UNL     1     -16.444  34.740 -14.805  1.00  0.00    -0.054 NA
HETATM   25  O1  UNL     1     -17.444  36.795 -15.187  1.00  0.00    -0.268 OA
ENDBRANCH   4  23
BRANCH   8  26
HETATM   26  N6  UNL     1     -15.566  34.772  -9.888  1.00  0.00    -0.383 N 
ATOM     27  H62 UNL     1     -14.802  35.433 -10.029  1.00  0.00     0.157 HD
ATOM     28  H61 UNL     1     -15.400  33.766  -9.928  1.00  0.00     0.157 HD
ENDBRANCH   8  26
BRANCH  11  29
HETATM   29  N8  UNL     1     -19.047  35.799  -7.069  1.00  0.00    -0.136 N 
ATOM     30  H8  UNL     1     -19.431  34.921  -6.720  1.00  0.00     0.205 HD
BRANCH  29  31
HETATM   31  N9  UNL     1     -19.225  36.819  -6.204  1.00  0.00    -0.318 N 
ATOM     32  H9  UNL     1     -20.140  36.862  -5.756  1.00  0.00     0.181 HD
BRANCH  31  33
HETATM   33  C12 UNL     1     -18.299  37.853  -5.826  1.00  0.00     0.091 C 
HETATM   34  C13 UNL     1     -18.989  38.957  -5.047  1.00  0.00     0.033 C 
HETATM   35  C14 UNL     1     -17.271  37.274  -4.829  1.00  0.00     0.033 C 
ENDBRANCH  31  33
ENDBRANCH  29  31
ENDBRANCH  11  29
TORSDOF 6
ENDMDL
MODEL 5
REMARK VINA RESULT: -7.448514102      3.306      5.110
REMARK  6 active torsions:
REMARK  status: ('A' for Active; 'I' for Inactive)
REMARK    1  A    between atoms: C5_8  and  C6_9 
REMARK    2  A    between atoms: C7_12  and  C8_13 
REMARK    3  A    between atoms: C10_19  and  N6_20 
REMARK    4  A    between atoms: C11_25  and  N8_26 
REMARK    5  A    between atoms: N8_26  and  N9_28 
REMARK    6  A    between atoms: N9_28  and  C12_30 
ROOT
HETATM    1  C6  UNL     1     -16.828  34.694  -7.532  1.00  0.00     0.077 A 
HETATM    2  N3  UNL     1     -15.685  35.387  -7.336  1.00  0.00    -0.336 N 
ATOM      3  H3  UNL     1     -14.970  34.966  -6.742  1.00  0.00     0.168 HD
HETATM    4  C7  UNL     1     -15.430  36.572  -7.858  1.00  0.00     0.172 A 
HETATM    5  N5  UNL     1     -16.387  37.133  -8.652  1.00  0.00    -0.333 N 
ATOM      6  H5  UNL     1     -16.203  38.048  -9.062  1.00  0.00     0.168 HD
HETATM    7  C9  UNL     1     -17.559  36.537  -8.919  1.00  0.00     0.108 A 
HETATM    8  C10 UNL     1     -18.513  37.105  -9.738  1.00  0.00     0.144 A 
HETATM    9  N7  UNL     1     -19.664  36.469  -9.997  1.00  0.00    -0.173 N 
ATOM     10  H7  UNL     1     -20.363  36.897 -10.603  1.00  0.00     0.186 HD
HETATM   11  C11 UNL     1     -19.886  35.265  -9.449  1.00  0.00     0.698 A 
HETATM   12  N10 UNL     1     -18.948  34.691  -8.634  1.00  0.00    -0.186 N 
ATOM     13  H10 UNL     1     -19.145  33.775  -8.230  1.00  0.00     0.184 HD
HETATM   14  C15 UNL     1     -17.789  35.281  -8.345  1.00  0.00     0.107 A 
ENDROOT
BRANCH   1  15
HETATM   15  C5  UNL     1     -17.072  33.391  -6.942  1.00  0.00     0.034 A 
HETATM   16  C2  UNL     1     -17.628  33.118  -5.684  1.00  0.00     0.036 A 
HETATM   17  C1  UNL     1     -18.001  34.205  -4.736  1.00  0.00     0.070 C 
HETATM   18  N1  UNL     1     -17.709  31.792  -5.556  1.00  0.00    -0.303 N 
HETATM   19  N2  UNL     1     -17.244  31.164  -6.646  1.00  0.00    -0.307 N 
ATOM     20  H1  UNL     1     -18.078  31.315  -4.734  1.00  0.00     0.186 HD
HETATM   21  C3  UNL     1     -17.171  29.737  -6.883  1.00  0.00     0.177 C 
HETATM   22  C4  UNL     1     -16.860  32.152  -7.480  1.00  0.00     0.125 A 
ENDBRANCH   1  15
BRANCH   4  23
HETATM   23  C8  UNL     1     -14.181  37.330  -7.643  1.00  0.00     0.298 C 
HETATM   24  N4  UNL     1     -12.945  36.880  -8.113  1.00  0.00    -0.054 NA
HETATM   25  O1  UNL     1     -14.283  38.415  -7.008  1.00  0.00    -0.268 OA
ENDBRANCH   4  23
BRANCH   8  26
HETATM   26  N6  UNL     1     -18.260  38.270 -10.250  1.00  0.00    -0.383 N 
ATOM     27  H62 UNL     1     -17.363  38.731 -10.095  1.00  0.00     0.157 HD
ATOM     28  H61 UNL     1     -18.986  38.714 -10.813  1.00  0.00     0.157 HD
ENDBRANCH   8  26
BRANCH  11  29
HETATM   29  N8  UNL     1     -20.929  34.576  -9.661  1.00  0.00    -0.136 N 
ATOM     30  H8  UNL     1     -20.836  33.617  -9.327  1.00  0.00     0.205 HD
BRANCH  29  31
HETATM   31  N9  UNL     1     -22.132  34.811 -10.223  1.00  0.00    -0.318 N 
ATOM     32  H9  UNL     1     -22.292  34.363 -11.125  1.00  0.00     0.181 HD
BRANCH  31  33
HETATM   33  C12 UNL     1     -23.220  35.609  -9.724  1.00  0.00     0.091 C 
HETATM   34  C13 UNL     1     -24.301  35.790 -10.772  1.00  0.00     0.033 C 
HETATM   35  C14 UNL     1     -23.926  34.845  -8.582  1.00  0.00     0.033 C 
ENDBRANCH  31  33
ENDBRANCH  29  31
ENDBRANCH  11  29
TORSDOF 6
ENDMDL
