MODEL 1
REMARK VINA RESULT: -7.253491812      0.000      0.000
REMARK  19 active torsions:
REMARK  status: ('A' for Active; 'I' for Inactive)
REMARK    1  A    between atoms: C1_2  and  C2_4 
REMARK    2  A    between atoms: C3_5  and  C4_6 
REMARK    3  A    between atoms: C4_6  and  O3_7 
REMARK    4  A    between atoms: C4_6  and  O4_9 
REMARK    5  A    between atoms: O4_9  and  C5_10 
REMARK    6  A    between atoms: C5_10  and  C6_11 
REMARK    7  A    between atoms: C6_11  and  O5_12 
REMARK    8  A    between atoms: C6_11  and  C7_14 
REMARK    9  A    between atoms: C7_14  and  O6_15 
REMARK   10  A    between atoms: C10_19  and  O7_20 
REMARK   11  A    between atoms: O7_20  and  C11_21 
REMARK   12  A    between atoms: C11_21  and  O8_22 
REMARK   13  A    between atoms: C11_21  and  C12_24 
REMARK   14  A    between atoms: C13_26  and  C14_27 
REMARK   15  A    between atoms: C14_27  and  O10_28 
REMARK   16  A    between atoms: C14_27  and  O11_30 
REMARK   17  A    between atoms: C17_35  and  O13_36 
REMARK   18  A    between atoms: C18_42  and  O14_43 
REMARK   19  A    between atoms: C19_46  and  O16_47 
ROOT
HETATM    1  C2  UNL     1      31.724   5.745   9.305  1.00  0.00     0.093 C 
HETATM    2  C3  UNL     1      31.093   6.365  10.276  1.00  0.00     0.065 C 
HETATM    3  C8  UNL     1      29.725   6.869   9.899  1.00  0.00     0.216 C 
HETATM    4  C9  UNL     1      28.785   5.760   9.499  1.00  0.00     0.093 C 
HETATM    5  C10 UNL     1      29.126   5.090   8.217  1.00  0.00     0.194 C 
HETATM    6  S1  UNL     1      30.778   5.657   7.729  1.00  0.00    -0.090 SA
HETATM    7  N1  UNL     1      29.119   7.469  11.072  1.00  0.00    -0.007 N 
ATOM      8  H11 UNL     1      29.768   7.649  11.837  1.00  0.00     0.284 HD
ATOM      9  H12 UNL     1      28.506   6.846  11.596  1.00  0.00     0.284 HD
HETATM   10  C18 UNL     1      28.465   8.653  10.548  1.00  0.00     0.470 C 
HETATM   11  O15 UNL     1      29.503   9.170   9.755  1.00  0.00    -0.306 OA
HETATM   12  C19 UNL     1      29.792   8.021   8.963  1.00  0.00     0.303 C 
ENDROOT
BRANCH   5  13
HETATM   13  O7  UNL     1      29.185   3.716   8.389  1.00  0.00    -0.339 OA
BRANCH  13  14
HETATM   14  C11 UNL     1      28.077   3.059   7.864  1.00  0.00     0.320 C 
BRANCH  14  15
HETATM   15  O8  UNL     1      27.455   3.749   6.851  1.00  0.00    -0.365 OA
ATOM     16  H8  UNL     1      27.941   3.751   6.036  1.00  0.00     0.213 HD
ENDBRANCH  14  15
BRANCH  14  17
HETATM   17  C12 UNL     1      28.437   1.657   7.450  1.00  0.00     0.145 A 
HETATM   18  O9  UNL     1      28.834   1.379   6.232  1.00  0.00    -0.306 OA
HETATM   19  C13 UNL     1      29.159   0.201   5.802  1.00  0.00     0.112 A 
HETATM   20  C15 UNL     1      29.088  -0.854   6.688  1.00  0.00     0.095 A 
HETATM   21  C16 UNL     1      28.681  -0.643   7.988  1.00  0.00     0.210 A 
HETATM   22  O12 UNL     1      28.605  -1.572   8.814  1.00  0.00    -0.285 OA
HETATM   23  C17 UNL     1      28.353   0.629   8.369  1.00  0.00     0.151 A 
BRANCH  19  24
HETATM   24  C14 UNL     1      29.606  -0.041   4.386  1.00  0.00     0.312 C 
BRANCH  24  25
HETATM   25  O10 UNL     1      28.534   0.116   3.502  1.00  0.00    -0.365 OA
ATOM     26  H10 UNL     1      28.192   1.001   3.549  1.00  0.00     0.213 HD
ENDBRANCH  24  25
BRANCH  24  27
HETATM   27  O11 UNL     1      30.626   0.842   4.038  1.00  0.00    -0.365 OA
ATOM     28  H11 UNL     1      31.349   0.375   3.636  1.00  0.00     0.213 HD
ENDBRANCH  24  27
ENDBRANCH  19  24
BRANCH  23  29
HETATM   29  O13 UNL     1      27.932   0.932   9.656  1.00  0.00    -0.355 OA
ATOM     30  H13 UNL     1      27.486   0.256  10.155  1.00  0.00     0.218 HD
ENDBRANCH  23  29
ENDBRANCH  14  17
ENDBRANCH  13  14
ENDBRANCH   5  13
BRANCH   1  31
HETATM   31  C1  UNL     1      33.019   5.161   9.352  1.00  0.00     0.217 C 
HETATM   32  O1  UNL     1      33.991   6.031   9.308  1.00  0.00    -0.643 OA
HETATM   33  O2  UNL     1      33.480   3.894   9.431  1.00  0.00    -0.643 OA
ENDBRANCH   1  31
BRANCH   2  34
HETATM   34  C4  UNL     1      31.622   6.573  11.614  1.00  0.00     0.189 C 
BRANCH  34  35
HETATM   35  O3  UNL     1      32.693   7.306  11.695  1.00  0.00    -0.340 OA
ATOM     36  H3  UNL     1      32.657   8.028  12.312  1.00  0.00     0.220 HD
ENDBRANCH  34  35
BRANCH  34  37
HETATM   37  O4  UNL     1      31.223   6.153  12.819  1.00  0.00    -0.328 OA
BRANCH  37  38
HETATM   38  C5  UNL     1      31.639   6.419  14.099  1.00  0.00     0.211 C 
BRANCH  38  39
HETATM   39  C6  UNL     1      30.692   6.906  15.117  1.00  0.00     0.166 C 
BRANCH  39  40
HETATM   40  O5  UNL     1      29.692   6.044  15.440  1.00  0.00    -0.391 OA
ATOM     41  H5  UNL     1      28.842   6.444  15.583  1.00  0.00     0.210 HD
ENDBRANCH  39  40
BRANCH  39  42
HETATM   42  C7  UNL     1      30.069   8.196  14.536  1.00  0.00     0.198 C 
BRANCH  42  43
HETATM   43  O6  UNL     1      28.845   7.798  13.998  1.00  0.00    -0.398 OA
ATOM     44  H6  UNL     1      29.059   7.112  13.378  1.00  0.00     0.209 HD
ENDBRANCH  42  43
ENDBRANCH  39  42
ENDBRANCH  38  39
ENDBRANCH  37  38
ENDBRANCH  34  37
ENDBRANCH   2  34
BRANCH  12  45
HETATM   45  O16 UNL     1      28.808   8.038   7.977  1.00  0.00    -0.368 OA
ATOM     46  H16 UNL     1      28.732   8.855   7.498  1.00  0.00     0.212 HD
ENDBRANCH  12  45
BRANCH  10  47
HETATM   47  O14 UNL     1      28.153   9.551  11.563  1.00  0.00    -0.349 OA
ATOM     48  H14 UNL     1      28.911  10.067  11.813  1.00  0.00     0.214 HD
ENDBRANCH  10  47
TORSDOF 19
ENDMDL
MODEL 2
REMARK VINA RESULT: -7.227739731     12.332     15.775
REMARK  19 active torsions:
REMARK  status: ('A' for Active; 'I' for Inactive)
REMARK    1  A    between atoms: C1_2  and  C2_4 
REMARK    2  A    between atoms: C3_5  and  C4_6 
REMARK    3  A    between atoms: C4_6  and  O3_7 
REMARK    4  A    between atoms: C4_6  and  O4_9 
REMARK    5  A    between atoms: O4_9  and  C5_10 
REMARK    6  A    between atoms: C5_10  and  C6_11 
REMARK    7  A    between atoms: C6_11  and  O5_12 
REMARK    8  A    between atoms: C6_11  and  C7_14 
REMARK    9  A    between atoms: C7_14  and  O6_15 
REMARK   10  A    between atoms: C10_19  and  O7_20 
REMARK   11  A    between atoms: O7_20  and  C11_21 
REMARK   12  A    between atoms: C11_21  and  O8_22 
REMARK   13  A    between atoms: C11_21  and  C12_24 
REMARK   14  A    between atoms: C13_26  and  C14_27 
REMARK   15  A    between atoms: C14_27  and  O10_28 
REMARK   16  A    between atoms: C14_27  and  O11_30 
REMARK   17  A    between atoms: C17_35  and  O13_36 
REMARK   18  A    between atoms: C18_42  and  O14_43 
REMARK   19  A    between atoms: C19_46  and  O16_47 
ROOT
HETATM    1  C2  UNL     1      31.962  -2.604  -1.839  1.00  0.00     0.093 C 
HETATM    2  C3  UNL     1      32.206  -3.825  -2.259  1.00  0.00     0.065 C 
HETATM    3  C8  UNL     1      32.061  -4.883  -1.197  1.00  0.00     0.216 C 
HETATM    4  C9  UNL     1      30.663  -4.958  -0.636  1.00  0.00     0.093 C 
HETATM    5  C10 UNL     1      30.256  -3.783   0.177  1.00  0.00     0.194 C 
HETATM    6  S1  UNL     1      31.514  -2.498  -0.058  1.00  0.00    -0.090 SA
HETATM    7  N1  UNL     1      32.291  -6.178  -1.807  1.00  0.00    -0.007 N 
ATOM      8  H11 UNL     1      32.716  -6.139  -2.733  1.00  0.00     0.284 HD
ATOM      9  H12 UNL     1      31.444  -6.663  -2.099  1.00  0.00     0.284 HD
HETATM   10  C18 UNL     1      33.077  -6.885  -0.814  1.00  0.00     0.470 C 
HETATM   11  O15 UNL     1      34.027  -5.897  -0.510  1.00  0.00    -0.306 OA
HETATM   12  C19 UNL     1      33.152  -4.818  -0.191  1.00  0.00     0.303 C 
ENDROOT
BRANCH   5  13
HETATM   13  O7  UNL     1      29.048  -3.278  -0.274  1.00  0.00    -0.339 OA
BRANCH  13  14
HETATM   14  C11 UNL     1      28.089  -3.199   0.731  1.00  0.00     0.320 C 
BRANCH  14  15
HETATM   15  O8  UNL     1      28.062  -1.985   1.375  1.00  0.00    -0.365 OA
ATOM     16  H8  UNL     1      28.893  -1.743   1.767  1.00  0.00     0.213 HD
ENDBRANCH  14  15
BRANCH  14  17
HETATM   17  C12 UNL     1      26.732  -3.585   0.203  1.00  0.00     0.145 A 
HETATM   18  O9  UNL     1      25.880  -2.687  -0.228  1.00  0.00    -0.306 OA
HETATM   19  C13 UNL     1      24.699  -2.940  -0.695  1.00  0.00     0.112 A 
HETATM   20  C15 UNL     1      24.293  -4.258  -0.749  1.00  0.00     0.095 A 
HETATM   21  C16 UNL     1      25.132  -5.261  -0.314  1.00  0.00     0.210 A 
HETATM   22  O12 UNL     1      24.798  -6.461  -0.347  1.00  0.00    -0.285 OA
HETATM   23  C17 UNL     1      26.365  -4.916   0.166  1.00  0.00     0.151 A 
BRANCH  19  24
HETATM   24  C14 UNL     1      23.774  -1.853  -1.173  1.00  0.00     0.312 C 
BRANCH  24  25
HETATM   25  O10 UNL     1      24.503  -0.816  -1.764  1.00  0.00    -0.365 OA
ATOM     26  H10 UNL     1      23.941  -0.290  -2.320  1.00  0.00     0.213 HD
ENDBRANCH  24  25
BRANCH  24  27
HETATM   27  O11 UNL     1      22.860  -2.360  -2.095  1.00  0.00    -0.365 OA
ATOM     28  H11 UNL     1      21.978  -2.080  -1.878  1.00  0.00     0.213 HD
ENDBRANCH  24  27
ENDBRANCH  19  24
BRANCH  23  29
HETATM   29  O13 UNL     1      27.273  -5.860   0.625  1.00  0.00    -0.355 OA
ATOM     30  H13 UNL     1      26.947  -6.574   1.161  1.00  0.00     0.218 HD
ENDBRANCH  23  29
ENDBRANCH  14  17
ENDBRANCH  13  14
ENDBRANCH   5  13
BRANCH   1  31
HETATM   31  C1  UNL     1      32.014  -1.403  -2.598  1.00  0.00     0.217 C 
HETATM   32  O1  UNL     1      32.785  -0.486  -2.081  1.00  0.00    -0.643 OA
HETATM   33  O2  UNL     1      31.438  -0.989  -3.747  1.00  0.00    -0.643 OA
ENDBRANCH   1  31
BRANCH   2  34
HETATM   34  C4  UNL     1      32.584  -4.179  -3.618  1.00  0.00     0.189 C 
BRANCH  34  35
HETATM   35  O3  UNL     1      31.633  -4.130  -4.503  1.00  0.00    -0.340 OA
ATOM     36  H3  UNL     1      31.762  -4.662  -5.280  1.00  0.00     0.220 HD
ENDBRANCH  34  35
BRANCH  34  37
HETATM   37  O4  UNL     1      33.744  -4.557  -4.164  1.00  0.00    -0.328 OA
BRANCH  37  38
HETATM   38  C5  UNL     1      34.071  -5.326  -5.252  1.00  0.00     0.211 C 
BRANCH  38  39
HETATM   39  C6  UNL     1      33.761  -6.766  -5.281  1.00  0.00     0.166 C 
BRANCH  39  40
HETATM   40  O5  UNL     1      32.599  -7.122  -4.672  1.00  0.00    -0.391 OA
ATOM     41  H5  UNL     1      32.274  -7.988  -4.892  1.00  0.00     0.210 HD
ENDBRANCH  39  40
BRANCH  39  42
HETATM   42  C7  UNL     1      34.936  -7.469  -4.564  1.00  0.00     0.198 C 
BRANCH  42  43
HETATM   43  O6  UNL     1      35.116  -6.756  -3.378  1.00  0.00    -0.398 OA
ATOM     44  H6  UNL     1      36.041  -6.544  -3.354  1.00  0.00     0.209 HD
ENDBRANCH  42  43
ENDBRANCH  39  42
ENDBRANCH  38  39
ENDBRANCH  37  38
ENDBRANCH  34  37
ENDBRANCH   2  34
BRANCH  12  45
HETATM   45  O16 UNL     1      32.762  -5.080   1.120  1.00  0.00    -0.368 OA
ATOM     46  H16 UNL     1      33.252  -4.613   1.787  1.00  0.00     0.212 HD
ENDBRANCH  12  45
BRANCH  10  47
HETATM   47  O14 UNL     1      33.710  -7.995  -1.366  1.00  0.00    -0.349 OA
ATOM     48  H14 UNL     1      34.274  -8.421  -0.732  1.00  0.00     0.214 HD
ENDBRANCH  10  47
TORSDOF 19
ENDMDL
MODEL 3
REMARK VINA RESULT: -7.139563160      3.678      6.665
REMARK  19 active torsions:
REMARK  status: ('A' for Active; 'I' for Inactive)
REMARK    1  A    between atoms: C1_2  and  C2_4 
REMARK    2  A    between atoms: C3_5  and  C4_6 
REMARK    3  A    between atoms: C4_6  and  O3_7 
REMARK    4  A    between atoms: C4_6  and  O4_9 
REMARK    5  A    between atoms: O4_9  and  C5_10 
REMARK    6  A    between atoms: C5_10  and  C6_11 
REMARK    7  A    between atoms: C6_11  and  O5_12 
REMARK    8  A    between atoms: C6_11  and  C7_14 
REMARK    9  A    between atoms: C7_14  and  O6_15 
REMARK   10  A    between atoms: C10_19  and  O7_20 
REMARK   11  A    between atoms: O7_20  and  C11_21 
REMARK   12  A    between atoms: C11_21  and  O8_22 
REMARK   13  A    between atoms: C11_21  and  C12_24 
REMARK   14  A    between atoms: C13_26  and  C14_27 
REMARK   15  A    between atoms: C14_27  and  O10_28 
REMARK   16  A    between atoms: C14_27  and  O11_30 
REMARK   17  A    between atoms: C17_35  and  O13_36 
REMARK   18  A    between atoms: C18_42  and  O14_43 
REMARK   19  A    between atoms: C19_46  and  O16_47 
ROOT
HETATM    1  C2  UNL     1      30.774   7.917   7.353  1.00  0.00     0.093 C 
HETATM    2  C3  UNL     1      31.303   7.522   6.217  1.00  0.00     0.065 C 
HETATM    3  C8  UNL     1      32.103   6.250   6.319  1.00  0.00     0.216 C 
HETATM    4  C9  UNL     1      31.274   5.073   6.769  1.00  0.00     0.093 C 
HETATM    5  C10 UNL     1      30.807   5.145   8.178  1.00  0.00     0.194 C 
HETATM    6  S1  UNL     1      31.152   6.820   8.780  1.00  0.00    -0.090 SA
HETATM    7  N1  UNL     1      32.571   5.895   4.994  1.00  0.00    -0.007 N 
ATOM      8  H11 UNL     1      32.486   6.640   4.303  1.00  0.00     0.284 HD
ATOM      9  H12 UNL     1      31.980   5.226   4.503  1.00  0.00     0.284 HD
HETATM   10  C18 UNL     1      33.929   5.441   5.223  1.00  0.00     0.470 C 
HETATM   11  O15 UNL     1      34.393   6.476   6.051  1.00  0.00    -0.306 OA
HETATM   12  C19 UNL     1      33.380   6.451   7.052  1.00  0.00     0.303 C 
ENDROOT
BRANCH   5  13
HETATM   13  O7  UNL     1      29.438   4.947   8.244  1.00  0.00    -0.339 OA
BRANCH  13  14
HETATM   14  C11 UNL     1      29.091   3.829   8.995  1.00  0.00     0.320 C 
BRANCH  14  15
HETATM   15  O8  UNL     1      28.127   4.078   9.942  1.00  0.00    -0.365 OA
ATOM     16  H8  UNL     1      27.717   3.292  10.285  1.00  0.00     0.213 HD
ENDBRANCH  14  15
BRANCH  14  17
HETATM   17  C12 UNL     1      28.713   2.681   8.097  1.00  0.00     0.145 A 
HETATM   18  O9  UNL     1      29.292   1.509   8.198  1.00  0.00    -0.306 OA
HETATM   19  C13 UNL     1      29.022   0.476   7.465  1.00  0.00     0.112 A 
HETATM   20  C15 UNL     1      28.050   0.607   6.495  1.00  0.00     0.095 A 
HETATM   21  C16 UNL     1      27.396   1.808   6.325  1.00  0.00     0.210 A 
HETATM   22  O12 UNL     1      26.514   1.961   5.459  1.00  0.00    -0.285 OA
HETATM   23  C17 UNL     1      27.734   2.854   7.138  1.00  0.00     0.151 A 
BRANCH  19  24
HETATM   24  C14 UNL     1      29.730  -0.841   7.641  1.00  0.00     0.312 C 
BRANCH  24  25
HETATM   25  O10 UNL     1      28.812  -1.896   7.618  1.00  0.00    -0.365 OA
ATOM     26  H10 UNL     1      28.989  -2.474   6.886  1.00  0.00     0.213 HD
ENDBRANCH  24  25
BRANCH  24  27
HETATM   27  O11 UNL     1      30.673  -1.027   6.632  1.00  0.00    -0.365 OA
ATOM     28  H11 UNL     1      30.329  -0.734   5.796  1.00  0.00     0.213 HD
ENDBRANCH  24  27
ENDBRANCH  19  24
BRANCH  23  29
HETATM   29  O13 UNL     1      27.128   4.098   7.037  1.00  0.00    -0.355 OA
ATOM     30  H13 UNL     1      27.684   4.868   7.002  1.00  0.00     0.218 HD
ENDBRANCH  23  29
ENDBRANCH  14  17
ENDBRANCH  13  14
ENDBRANCH   5  13
BRANCH   1  31
HETATM   31  C1  UNL     1      29.971   9.068   7.576  1.00  0.00     0.217 C 
HETATM   32  O1  UNL     1      28.865   8.821   8.223  1.00  0.00    -0.643 OA
HETATM   33  O2  UNL     1      30.092  10.377   7.267  1.00  0.00    -0.643 OA
ENDBRANCH   1  31
BRANCH   2  34
HETATM   34  C4  UNL     1      31.159   8.211   4.945  1.00  0.00     0.189 C 
BRANCH  34  35
HETATM   35  O3  UNL     1      31.419   9.486   4.957  1.00  0.00    -0.340 OA
ATOM     36  H3  UNL     1      31.153   9.971   4.185  1.00  0.00     0.220 HD
ENDBRANCH  34  35
BRANCH  34  37
HETATM   37  O4  UNL     1      30.803   7.795   3.726  1.00  0.00    -0.328 OA
BRANCH  37  38
HETATM   38  C5  UNL     1      31.133   8.194   2.456  1.00  0.00     0.211 C 
BRANCH  38  39
HETATM   39  C6  UNL     1      32.325   7.655   1.779  1.00  0.00     0.166 C 
BRANCH  39  40
HETATM   40  O5  UNL     1      32.671   6.388   2.133  1.00  0.00    -0.391 OA
ATOM     41  H5  UNL     1      33.468   6.313   2.644  1.00  0.00     0.210 HD
ENDBRANCH  39  40
BRANCH  39  42
HETATM   42  C7  UNL     1      33.488   8.607   2.141  1.00  0.00     0.198 C 
BRANCH  42  43
HETATM   43  O6  UNL     1      33.876   8.234   3.428  1.00  0.00    -0.398 OA
ATOM     44  H6  UNL     1      34.457   8.926   3.721  1.00  0.00     0.209 HD
ENDBRANCH  42  43
ENDBRANCH  39  42
ENDBRANCH  38  39
ENDBRANCH  37  38
ENDBRANCH  34  37
ENDBRANCH   2  34
BRANCH  12  45
HETATM   45  O16 UNL     1      33.756   5.397   7.882  1.00  0.00    -0.368 OA
ATOM     46  H16 UNL     1      34.539   5.551   8.398  1.00  0.00     0.212 HD
ENDBRANCH  12  45
BRANCH  10  47
HETATM   47  O14 UNL     1      34.662   5.417   4.041  1.00  0.00    -0.349 OA
ATOM     48  H14 UNL     1      35.545   5.740   4.174  1.00  0.00     0.214 HD
ENDBRANCH  10  47
TORSDOF 19
ENDMDL
MODEL 4
REMARK VINA RESULT: -7.014866693      7.204     11.633
REMARK  19 active torsions:
REMARK  status: ('A' for Active; 'I' for Inactive)
REMARK    1  A    between atoms: C1_2  and  C2_4 
REMARK    2  A    between atoms: C3_5  and  C4_6 
REMARK    3  A    between atoms: C4_6  and  O3_7 
REMARK    4  A    between atoms: C4_6  and  O4_9 
REMARK    5  A    between atoms: O4_9  and  C5_10 
REMARK    6  A    between atoms: C5_10  and  C6_11 
REMARK    7  A    between atoms: C6_11  and  O5_12 
REMARK    8  A    between atoms: C6_11  and  C7_14 
REMARK    9  A    between atoms: C7_14  and  O6_15 
REMARK   10  A    between atoms: C10_19  and  O7_20 
REMARK   11  A    between atoms: O7_20  and  C11_21 
REMARK   12  A    between atoms: C11_21  and  O8_22 
REMARK   13  A    between atoms: C11_21  and  C12_24 
REMARK   14  A    between atoms: C13_26  and  C14_27 
REMARK   15  A    between atoms: C14_27  and  O10_28 
REMARK   16  A    between atoms: C14_27  and  O11_30 
REMARK   17  A    between atoms: C17_35  and  O13_36 
REMARK   18  A    between atoms: C18_42  and  O14_43 
REMARK   19  A    between atoms: C19_46  and  O16_47 
ROOT
HETATM    1  C2  UNL     1      29.789  -2.699   2.882  1.00  0.00     0.093 C 
HETATM    2  C3  UNL     1      30.424  -1.700   2.312  1.00  0.00     0.065 C 
HETATM    3  C8  UNL     1      30.952  -2.010   0.935  1.00  0.00     0.216 C 
HETATM    4  C9  UNL     1      29.859  -2.359  -0.044  1.00  0.00     0.093 C 
HETATM    5  C10 UNL     1      29.180  -3.654   0.220  1.00  0.00     0.194 C 
HETATM    6  S1  UNL     1      29.714  -4.225   1.856  1.00  0.00    -0.090 SA
HETATM    7  N1  UNL     1      31.566  -0.811   0.400  1.00  0.00    -0.007 N 
ATOM      8  H11 UNL     1      31.736  -0.079   1.091  1.00  0.00     0.284 HD
ATOM      9  H12 UNL     1      30.956  -0.254  -0.197  1.00  0.00     0.284 HD
HETATM   10  C18 UNL     1      32.761  -1.306  -0.257  1.00  0.00     0.470 C 
HETATM   11  O15 UNL     1      33.256  -2.151   0.749  1.00  0.00    -0.306 OA
HETATM   12  C19 UNL     1      32.100  -2.952   0.977  1.00  0.00     0.303 C 
ENDROOT
BRANCH   5  13
HETATM   13  O7  UNL     1      27.806  -3.480   0.262  1.00  0.00    -0.339 OA
BRANCH  13  14
HETATM   14  C11 UNL     1      27.107  -4.675   0.133  1.00  0.00     0.320 C 
BRANCH  14  15
HETATM   15  O8  UNL     1      27.096  -5.435   1.278  1.00  0.00    -0.365 OA
ATOM     16  H8  UNL     1      26.332  -5.292   1.824  1.00  0.00     0.213 HD
ENDBRANCH  14  15
BRANCH  14  17
HETATM   17  C12 UNL     1      25.717  -4.425  -0.389  1.00  0.00     0.145 A 
HETATM   18  O9  UNL     1      25.247  -3.210  -0.542  1.00  0.00    -0.306 OA
HETATM   19  C13 UNL     1      24.066  -2.916  -0.984  1.00  0.00     0.112 A 
HETATM   20  C15 UNL     1      23.224  -3.955  -1.324  1.00  0.00     0.095 A 
HETATM   21  C16 UNL     1      23.644  -5.261  -1.191  1.00  0.00     0.210 A 
HETATM   22  O12 UNL     1      22.910  -6.222  -1.487  1.00  0.00    -0.285 OA
HETATM   23  C17 UNL     1      24.906  -5.493  -0.718  1.00  0.00     0.151 A 
BRANCH  19  24
HETATM   24  C14 UNL     1      23.596  -1.494  -1.134  1.00  0.00     0.312 C 
BRANCH  24  25
HETATM   25  O10 UNL     1      24.689  -0.625  -1.222  1.00  0.00    -0.365 OA
ATOM     26  H10 UNL     1      25.303  -0.931  -1.880  1.00  0.00     0.213 HD
ENDBRANCH  24  25
BRANCH  24  27
HETATM   27  O11 UNL     1      22.805  -1.358  -2.272  1.00  0.00    -0.365 OA
ATOM     28  H11 UNL     1      23.307  -0.980  -2.985  1.00  0.00     0.213 HD
ENDBRANCH  24  27
ENDBRANCH  19  24
BRANCH  23  29
HETATM   29  O13 UNL     1      25.411  -6.776  -0.551  1.00  0.00    -0.355 OA
ATOM     30  H13 UNL     1      25.976  -6.943   0.194  1.00  0.00     0.218 HD
ENDBRANCH  23  29
ENDBRANCH  14  17
ENDBRANCH  13  14
ENDBRANCH   5  13
BRANCH   1  31
HETATM   31  C1  UNL     1      29.181  -2.715   4.166  1.00  0.00     0.217 C 
HETATM   32  O1  UNL     1      27.985  -2.193   4.190  1.00  0.00    -0.643 OA
HETATM   33  O2  UNL     1      29.564  -3.153   5.385  1.00  0.00    -0.643 OA
ENDBRANCH   1  31
BRANCH   2  34
HETATM   34  C4  UNL     1      30.626  -0.391   2.910  1.00  0.00     0.189 C 
BRANCH  34  35
HETATM   35  O3  UNL     1      31.779   0.166   2.684  1.00  0.00    -0.340 OA
ATOM     36  H3  UNL     1      32.472  -0.051   3.296  1.00  0.00     0.220 HD
ENDBRANCH  34  35
BRANCH  34  37
HETATM   37  O4  UNL     1      29.847   0.385   3.670  1.00  0.00    -0.328 OA
BRANCH  37  38
HETATM   38  C5  UNL     1      29.898   0.779   4.984  1.00  0.00     0.211 C 
BRANCH  38  39
HETATM   39  C6  UNL     1      28.925   0.269   5.965  1.00  0.00     0.166 C 
BRANCH  39  40
HETATM   40  O5  UNL     1      27.939   1.138   6.310  1.00  0.00    -0.391 OA
ATOM     41  H5  UNL     1      28.116   2.052   6.116  1.00  0.00     0.210 HD
ENDBRANCH  39  40
BRANCH  39  42
HETATM   42  C7  UNL     1      29.742  -0.084   7.230  1.00  0.00     0.198 C 
BRANCH  42  43
HETATM   43  O6  UNL     1      30.667  -1.040   6.809  1.00  0.00    -0.398 OA
ATOM     44  H6  UNL     1      31.189  -0.604   6.146  1.00  0.00     0.209 HD
ENDBRANCH  42  43
ENDBRANCH  39  42
ENDBRANCH  38  39
ENDBRANCH  37  38
ENDBRANCH  34  37
ENDBRANCH   2  34
BRANCH  12  45
HETATM   45  O16 UNL     1      32.132  -3.888  -0.055  1.00  0.00    -0.368 OA
ATOM     46  H16 UNL     1      32.948  -4.367  -0.137  1.00  0.00     0.212 HD
ENDBRANCH  12  45
BRANCH  10  47
HETATM   47  O14 UNL     1      33.667  -0.279  -0.501  1.00  0.00    -0.349 OA
ATOM     48  H14 UNL     1      34.551  -0.536  -0.266  1.00  0.00     0.214 HD
ENDBRANCH  10  47
TORSDOF 19
ENDMDL
MODEL 5
REMARK VINA RESULT: -7.007642245      9.184     12.369
REMARK  19 active torsions:
REMARK  status: ('A' for Active; 'I' for Inactive)
REMARK    1  A    between atoms: C1_2  and  C2_4 
REMARK    2  A    between atoms: C3_5  and  C4_6 
REMARK    3  A    between atoms: C4_6  and  O3_7 
REMARK    4  A    between atoms: C4_6  and  O4_9 
REMARK    5  A    between atoms: O4_9  and  C5_10 
REMARK    6  A    between atoms: C5_10  and  C6_11 
REMARK    7  A    between atoms: C6_11  and  O5_12 
REMARK    8  A    between atoms: C6_11  and  C7_14 
REMARK    9  A    between atoms: C7_14  and  O6_15 
REMARK   10  A    between atoms: C10_19  and  O7_20 
REMARK   11  A    between atoms: O7_20  and  C11_21 
REMARK   12  A    between atoms: C11_21  and  O8_22 
REMARK   13  A    between atoms: C11_21  and  C12_24 
REMARK   14  A    between atoms: C13_26  and  C14_27 
REMARK   15  A    between atoms: C14_27  and  O10_28 
REMARK   16  A    between atoms: C14_27  and  O11_30 
REMARK   17  A    between atoms: C17_35  and  O13_36 
REMARK   18  A    between atoms: C18_42  and  O14_43 
REMARK   19  A    between atoms: C19_46  and  O16_47 
ROOT
HETATM    1  C2  UNL     1      29.984  -2.544   2.680  1.00  0.00     0.093 C 
HETATM    2  C3  UNL     1      30.679  -1.680   1.975  1.00  0.00     0.065 C 
HETATM    3  C8  UNL     1      31.163  -2.211   0.651  1.00  0.00     0.216 C 
HETATM    4  C9  UNL     1      30.035  -2.611  -0.265  1.00  0.00     0.093 C 
HETATM    5  C10 UNL     1      29.271  -3.807   0.177  1.00  0.00     0.194 C 
HETATM    6  S1  UNL     1      29.788  -4.186   1.873  1.00  0.00    -0.090 SA
HETATM    7  N1  UNL     1      31.852  -1.143  -0.046  1.00  0.00    -0.007 N 
ATOM      8  H11 UNL     1      32.082  -0.338   0.537  1.00  0.00     0.284 HD
ATOM      9  H12 UNL     1      31.273  -0.631  -0.710  1.00  0.00     0.284 HD
HETATM   10  C18 UNL     1      32.999  -1.806  -0.635  1.00  0.00     0.470 C 
HETATM   11  O15 UNL     1      33.449  -2.539   0.474  1.00  0.00    -0.306 OA
HETATM   12  C19 UNL     1      32.244  -3.218   0.816  1.00  0.00     0.303 C 
ENDROOT
BRANCH   5  13
HETATM   13  O7  UNL     1      27.913  -3.531   0.202  1.00  0.00    -0.339 OA
BRANCH  13  14
HETATM   14  C11 UNL     1      27.131  -4.680   0.237  1.00  0.00     0.320 C 
BRANCH  14  15
HETATM   15  O8  UNL     1      27.069  -5.270   1.477  1.00  0.00    -0.365 OA
ATOM     16  H8  UNL     1      27.888  -5.665   1.752  1.00  0.00     0.213 HD
ENDBRANCH  14  15
BRANCH  14  17
HETATM   17  C12 UNL     1      25.760  -4.408  -0.324  1.00  0.00     0.145 A 
HETATM   18  O9  UNL     1      25.329  -3.187  -0.527  1.00  0.00    -0.306 OA
HETATM   19  C13 UNL     1      24.167  -2.873  -1.004  1.00  0.00     0.112 A 
HETATM   20  C15 UNL     1      23.303  -3.898  -1.331  1.00  0.00     0.095 A 
HETATM   21  C16 UNL     1      23.682  -5.211  -1.147  1.00  0.00     0.210 A 
HETATM   22  O12 UNL     1      22.928  -6.160  -1.430  1.00  0.00    -0.285 OA
HETATM   23  C17 UNL     1      24.926  -5.463  -0.638  1.00  0.00     0.151 A 
BRANCH  19  24
HETATM   24  C14 UNL     1      23.742  -1.444  -1.209  1.00  0.00     0.312 C 
BRANCH  24  25
HETATM   25  O10 UNL     1      24.839  -0.655  -1.569  1.00  0.00    -0.365 OA
ATOM     26  H10 UNL     1      24.590  -0.022  -2.232  1.00  0.00     0.213 HD
ENDBRANCH  24  25
BRANCH  24  27
HETATM   27  O11 UNL     1      22.768  -1.362  -2.203  1.00  0.00    -0.365 OA
ATOM     28  H11 UNL     1      22.443  -2.227  -2.423  1.00  0.00     0.213 HD
ENDBRANCH  24  27
ENDBRANCH  19  24
BRANCH  23  29
HETATM   29  O13 UNL     1      25.390  -6.754  -0.420  1.00  0.00    -0.355 OA
ATOM     30  H13 UNL     1      24.936  -7.292   0.218  1.00  0.00     0.218 HD
ENDBRANCH  23  29
ENDBRANCH  14  17
ENDBRANCH  13  14
ENDBRANCH   5  13
BRANCH   1  31
HETATM   31  C1  UNL     1      29.396  -2.342   3.957  1.00  0.00     0.217 C 
HETATM   32  O1  UNL     1      28.273  -1.677   3.921  1.00  0.00    -0.643 OA
HETATM   33  O2  UNL     1      29.738  -2.685   5.218  1.00  0.00    -0.643 OA
ENDBRANCH   1  31
BRANCH   2  34
HETATM   34  C4  UNL     1      30.980  -0.319   2.388  1.00  0.00     0.189 C 
BRANCH  34  35
HETATM   35  O3  UNL     1      30.554   0.025   3.568  1.00  0.00    -0.340 OA
ATOM     36  H3  UNL     1      31.224   0.156   4.228  1.00  0.00     0.220 HD
ENDBRANCH  34  35
BRANCH  34  37
HETATM   37  O4  UNL     1      31.624   0.687   1.786  1.00  0.00    -0.328 OA
BRANCH  37  38
HETATM   38  C5  UNL     1      32.619   1.544   2.183  1.00  0.00     0.211 C 
BRANCH  38  39
HETATM   39  C6  UNL     1      33.689   1.943   1.253  1.00  0.00     0.166 C 
BRANCH  39  40
HETATM   40  O5  UNL     1      33.424   1.730  -0.064  1.00  0.00    -0.391 OA
ATOM     41  H5  UNL     1      33.144   0.849  -0.284  1.00  0.00     0.210 HD
ENDBRANCH  39  40
BRANCH  39  42
HETATM   42  C7  UNL     1      34.931   1.112   1.651  1.00  0.00     0.198 C 
BRANCH  42  43
HETATM   43  O6  UNL     1      34.460  -0.191   1.811  1.00  0.00    -0.398 OA
ATOM     44  H6  UNL     1      34.700  -0.641   1.010  1.00  0.00     0.209 HD
ENDBRANCH  42  43
ENDBRANCH  39  42
ENDBRANCH  38  39
ENDBRANCH  37  38
ENDBRANCH  34  37
ENDBRANCH   2  34
BRANCH  12  45
HETATM   45  O16 UNL     1      32.195  -4.285  -0.078  1.00  0.00    -0.368 OA
ATOM     46  H16 UNL     1      32.420  -5.131   0.293  1.00  0.00     0.212 HD
ENDBRANCH  12  45
BRANCH  10  47
HETATM   47  O14 UNL     1      33.971  -0.889  -1.022  1.00  0.00    -0.349 OA
ATOM     48  H14 UNL     1      34.825  -1.299  -1.092  1.00  0.00     0.214 HD
ENDBRANCH  10  47
TORSDOF 19
ENDMDL
