MODEL 1
REMARK VINA RESULT: -5.002191180      0.000      0.000
REMARK  3 active torsions:
REMARK  status: ('A' for Active; 'I' for Inactive)
REMARK    1  A    between atoms: C3_3  and  C4_4 
REMARK    2  A    between atoms: C10_11  and  C11_12 
REMARK    3  A    between atoms: C11_12  and  O2_13 
ROOT
HETATM    1  C1  UNL     1      17.796   5.444  -1.512  1.00  0.00     0.096 C 
HETATM    2  C2  UNL     1      18.404   6.595  -1.506  1.00  0.00    -0.187 C 
HETATM    3  C3  UNL     1      19.061   7.715  -1.589  1.00  0.00     0.084 C 
ENDROOT
BRANCH   3   4
HETATM    4  C4  UNL     1      20.018   7.861  -2.664  1.00  0.00     0.004 C 
HETATM    5  C5  UNL     1      21.448   7.549  -2.299  1.00  0.00     0.038 C 
HETATM    6  C6  UNL     1      22.306   8.307  -3.294  1.00  0.00     0.128 C 
HETATM    7  O1  UNL     1      21.800   8.278  -4.575  1.00  0.00    -0.385 OA
HETATM    8  C10 UNL     1      22.332   9.752  -2.793  1.00  0.00     0.039 C 
HETATM    9  C7  UNL     1      20.614   8.925  -4.750  1.00  0.00     0.173 C 
HETATM   10  C8  UNL     1      20.005   9.178  -3.370  1.00  0.00     0.015 C 
HETATM   11  C9  UNL     1      20.912  10.209  -2.717  1.00  0.00     0.016 C 
BRANCH   8  12
HETATM   12  C11 UNL     1      23.184  10.557  -3.732  1.00  0.00     0.171 C 
BRANCH  12  13
HETATM   13  O2  UNL     1      22.948  11.909  -3.627  1.00  0.00    -0.400 OA
ATOM     14  H2  UNL     1      22.506  12.261  -4.390  1.00  0.00     0.209 HD
ENDBRANCH  12  13
ENDBRANCH   8  12
ENDBRANCH   3   4
TORSDOF 3
ENDMDL
MODEL 2
REMARK VINA RESULT: -4.896736777      1.319      2.101
REMARK  3 active torsions:
REMARK  status: ('A' for Active; 'I' for Inactive)
REMARK    1  A    between atoms: C3_3  and  C4_4 
REMARK    2  A    between atoms: C10_11  and  C11_12 
REMARK    3  A    between atoms: C11_12  and  O2_13 
ROOT
HETATM    1  C1  UNL     1      18.310   5.135  -1.497  1.00  0.00     0.096 C 
HETATM    2  C2  UNL     1      18.376   6.422  -1.683  1.00  0.00    -0.187 C 
HETATM    3  C3  UNL     1      18.547   7.697  -1.876  1.00  0.00     0.084 C 
ENDROOT
BRANCH   3   4
HETATM    4  C4  UNL     1      19.901   8.186  -2.013  1.00  0.00     0.004 C 
HETATM    5  C5  UNL     1      20.036   9.528  -2.687  1.00  0.00     0.038 C 
HETATM    6  C6  UNL     1      21.442   9.568  -3.256  1.00  0.00     0.128 C 
HETATM    7  O1  UNL     1      22.381   9.018  -2.413  1.00  0.00    -0.385 OA
HETATM    8  C10 UNL     1      21.383   8.753  -4.549  1.00  0.00     0.039 C 
HETATM    9  C7  UNL     1      22.257   7.679  -2.194  1.00  0.00     0.173 C 
HETATM   10  C8  UNL     1      20.868   7.249  -2.665  1.00  0.00     0.015 C 
HETATM   11  C9  UNL     1      20.898   7.390  -4.178  1.00  0.00     0.016 C 
BRANCH   8  12
HETATM   12  C11 UNL     1      22.748   8.767  -5.173  1.00  0.00     0.171 C 
BRANCH  12  13
HETATM   13  O2  UNL     1      23.416   9.950  -4.952  1.00  0.00    -0.400 OA
ATOM     14  H2  UNL     1      23.750  10.018  -4.066  1.00  0.00     0.209 HD
ENDBRANCH  12  13
ENDBRANCH   8  12
ENDBRANCH   3   4
TORSDOF 3
ENDMDL
MODEL 3
REMARK VINA RESULT: -4.557936863      1.687      2.774
REMARK  3 active torsions:
REMARK  status: ('A' for Active; 'I' for Inactive)
REMARK    1  A    between atoms: C3_3  and  C4_4 
REMARK    2  A    between atoms: C10_11  and  C11_12 
REMARK    3  A    between atoms: C11_12  and  O2_13 
ROOT
HETATM    1  C1  UNL     1      18.231   5.116  -1.581  1.00  0.00     0.096 C 
HETATM    2  C2  UNL     1      19.401   5.048  -2.149  1.00  0.00    -0.187 C 
HETATM    3  C3  UNL     1      20.576   5.087  -2.706  1.00  0.00     0.084 C 
ENDROOT
BRANCH   3   4
HETATM    4  C4  UNL     1      21.196   6.380  -2.891  1.00  0.00     0.004 C 
HETATM    5  C5  UNL     1      20.274   7.563  -2.737  1.00  0.00     0.038 C 
HETATM    6  C6  UNL     1      20.911   8.693  -3.526  1.00  0.00     0.128 C 
HETATM    7  O1  UNL     1      22.280   8.742  -3.385  1.00  0.00    -0.385 OA
HETATM    8  C10 UNL     1      20.563   8.417  -4.989  1.00  0.00     0.039 C 
HETATM    9  C7  UNL     1      22.961   7.683  -3.905  1.00  0.00     0.173 C 
HETATM   10  C8  UNL     1      21.958   6.559  -4.165  1.00  0.00     0.015 C 
HETATM   11  C9  UNL     1      21.089   7.056  -5.309  1.00  0.00     0.016 C 
BRANCH   8  12
HETATM   12  C11 UNL     1      21.155   9.513  -5.826  1.00  0.00     0.171 C 
BRANCH  12  13
HETATM   13  O2  UNL     1      20.308   9.922  -6.831  1.00  0.00    -0.400 OA
ATOM     14  H2  UNL     1      20.753  10.016  -7.665  1.00  0.00     0.209 HD
ENDBRANCH  12  13
ENDBRANCH   8  12
ENDBRANCH   3   4
TORSDOF 3
ENDMDL
MODEL 4
REMARK VINA RESULT: -4.556677082      1.522      1.893
REMARK  3 active torsions:
REMARK  status: ('A' for Active; 'I' for Inactive)
REMARK    1  A    between atoms: C3_3  and  C4_4 
REMARK    2  A    between atoms: C10_11  and  C11_12 
REMARK    3  A    between atoms: C11_12  and  O2_13 
ROOT
HETATM    1  C1  UNL     1      18.313   7.548  -1.535  1.00  0.00     0.096 C 
HETATM    2  C2  UNL     1      19.566   7.513  -1.887  1.00  0.00    -0.187 C 
HETATM    3  C3  UNL     1      20.786   7.508  -2.337  1.00  0.00     0.084 C 
ENDROOT
BRANCH   3   4
HETATM    4  C4  UNL     1      20.996   7.823  -3.733  1.00  0.00     0.004 C 
HETATM    5  C5  UNL     1      22.437   7.837  -4.179  1.00  0.00     0.038 C 
HETATM    6  C6  UNL     1      22.483   8.730  -5.406  1.00  0.00     0.128 C 
HETATM    7  O1  UNL     1      21.404   8.552  -6.243  1.00  0.00    -0.385 OA
HETATM    8  C10 UNL     1      22.475  10.162  -4.868  1.00  0.00     0.039 C 
HETATM    9  C7  UNL     1      20.198   8.923  -5.731  1.00  0.00     0.173 C 
HETATM   10  C8  UNL     1      20.356   9.083  -4.218  1.00  0.00     0.015 C 
HETATM   11  C9  UNL     1      21.242  10.305  -4.037  1.00  0.00     0.016 C 
BRANCH   8  12
HETATM   12  C11 UNL     1      22.535  11.101  -6.038  1.00  0.00     0.171 C 
BRANCH  12  13
HETATM   13  O2  UNL     1      21.605  12.112  -5.949  1.00  0.00    -0.400 OA
ATOM     14  H2  UNL     1      21.975  12.917  -5.608  1.00  0.00     0.209 HD
ENDBRANCH  12  13
ENDBRANCH   8  12
ENDBRANCH   3   4
TORSDOF 3
ENDMDL
MODEL 5
REMARK VINA RESULT: -4.541504174      1.922      4.862
REMARK  3 active torsions:
REMARK  status: ('A' for Active; 'I' for Inactive)
REMARK    1  A    between atoms: C3_3  and  C4_4 
REMARK    2  A    between atoms: C10_11  and  C11_12 
REMARK    3  A    between atoms: C11_12  and  O2_13 
ROOT
HETATM    1  C1  UNL     1      23.570  12.950  -4.507  1.00  0.00     0.096 C 
HETATM    2  C2  UNL     1      22.728  12.066  -4.957  1.00  0.00    -0.187 C 
HETATM    3  C3  UNL     1      21.919  11.117  -5.329  1.00  0.00     0.084 C 
ENDROOT
BRANCH   3   4
HETATM    4  C4  UNL     1      21.963   9.865  -4.606  1.00  0.00     0.004 C 
HETATM    5  C5  UNL     1      21.018   8.801  -5.104  1.00  0.00     0.038 C 
HETATM    6  C6  UNL     1      20.780   7.873  -3.927  1.00  0.00     0.128 C 
HETATM    7  O1  UNL     1      21.921   7.628  -3.195  1.00  0.00    -0.385 OA
HETATM    8  C10 UNL     1      19.756   8.587  -3.045  1.00  0.00     0.039 C 
HETATM    9  C7  UNL     1      22.438   8.705  -2.540  1.00  0.00     0.173 C 
HETATM   10  C8  UNL     1      21.797   9.965  -3.124  1.00  0.00     0.015 C 
HETATM   11  C9  UNL     1      20.343   9.913  -2.687  1.00  0.00     0.016 C 
BRANCH   8  12
HETATM   12  C11 UNL     1      19.463   7.709  -1.863  1.00  0.00     0.171 C 
BRANCH  12  13
HETATM   13  O2  UNL     1      18.328   8.097  -1.188  1.00  0.00    -0.400 OA
ATOM     14  H2  UNL     1      17.608   8.299  -1.774  1.00  0.00     0.209 HD
ENDBRANCH  12  13
ENDBRANCH   8  12
ENDBRANCH   3   4
TORSDOF 3
ENDMDL
