MODEL 1
REMARK VINA RESULT: -6.225705212      0.000      0.000
REMARK  10 active torsions:
REMARK  status: ('A' for Active; 'I' for Inactive)
REMARK    1  A    between atoms: C1_2  and  C2_4 
REMARK    2  A    between atoms: C2_4  and  C3_5 
REMARK    3  A    between atoms: C3_5  and  C4_6 
REMARK    4  A    between atoms: C4_6  and  C5_7 
REMARK    5  A    between atoms: C5_7  and  C6_8 
REMARK    6  A    between atoms: C6_8  and  C7_9 
REMARK    7  A    between atoms: C7_9  and  C8_10 
REMARK    8  A    between atoms: C8_10  and  C9_11 
REMARK    9  A    between atoms: C9_11  and  C10_12 
REMARK   10  A    between atoms: C10_12  and  N2_13 
ROOT
HETATM    1  C9  UNL     1      -0.463  14.674 -39.609  1.00  0.00     0.020 C 
ENDROOT
BRANCH   1   2
HETATM    2  C8  UNL     1       0.315  14.202 -40.795  1.00  0.00     0.002 C 
BRANCH   2   3
HETATM    3  C7  UNL     1       1.725  14.728 -40.806  1.00  0.00     0.000 C 
BRANCH   3   4
HETATM    4  C6  UNL     1       1.828  16.206 -41.038  1.00  0.00     0.000 C 
BRANCH   4   5
HETATM    5  C5  UNL     1       2.942  16.804 -40.245  1.00  0.00     0.000 C 
BRANCH   5   6
HETATM    6  C4  UNL     1       4.215  15.978 -40.348  1.00  0.00     0.000 C 
BRANCH   6   7
HETATM    7  C3  UNL     1       4.920  16.052 -39.042  1.00  0.00     0.009 C 
BRANCH   7   8
HETATM    8  C2  UNL     1       4.588  14.997 -38.050  1.00  0.00     0.099 C 
BRANCH   8   9
HETATM    9  C1  UNL     1       5.742  14.375 -37.395  1.00  0.00     0.231 C 
HETATM   10  N1  UNL     1       6.750  13.824 -38.265  1.00  0.00    -0.062 NA
HETATM   11  O1  UNL     1       5.891  14.298 -36.175  1.00  0.00    -0.277 OA
ENDBRANCH   8   9
ENDBRANCH   7   8
ENDBRANCH   6   7
ENDBRANCH   5   6
ENDBRANCH   4   5
ENDBRANCH   3   4
ENDBRANCH   2   3
ENDBRANCH   1   2
BRANCH   1  12
HETATM   12  C10 UNL     1      -1.667  13.803 -39.314  1.00  0.00     0.132 C 
BRANCH  12  13
HETATM   13  N2  UNL     1      -2.853  14.647 -39.375  1.00  0.00    -0.313 N 
HETATM   14  C11 UNL     1      -3.415  15.319 -38.339  1.00  0.00     0.196 A 
HETATM   15  N3  UNL     1      -2.895  15.284 -37.013  1.00  0.00    -0.063 NA
HETATM   16  N4  UNL     1      -4.498  15.996 -38.764  1.00  0.00    -0.322 N 
HETATM   17  C12 UNL     1      -4.660  15.773 -40.085  1.00  0.00     0.116 A 
ATOM     18  H4  UNL     1      -5.099  16.580 -38.183  1.00  0.00     0.169 HD
HETATM   19 BR1  UNL     1      -6.043  16.489 -41.198  1.00  0.00    -0.028 Br
HETATM   20  C13 UNL     1      -3.625  14.932 -40.438  1.00  0.00     0.118 A 
HETATM   21 BR2  UNL     1      -3.313  14.255 -42.195  1.00  0.00    -0.028 Br
ENDBRANCH  12  13
ENDBRANCH   1  12
TORSDOF 10
ENDMDL
MODEL 2
REMARK VINA RESULT: -6.121431438      2.320      2.771
REMARK  10 active torsions:
REMARK  status: ('A' for Active; 'I' for Inactive)
REMARK    1  A    between atoms: C1_2  and  C2_4 
REMARK    2  A    between atoms: C2_4  and  C3_5 
REMARK    3  A    between atoms: C3_5  and  C4_6 
REMARK    4  A    between atoms: C4_6  and  C5_7 
REMARK    5  A    between atoms: C5_7  and  C6_8 
REMARK    6  A    between atoms: C6_8  and  C7_9 
REMARK    7  A    between atoms: C7_9  and  C8_10 
REMARK    8  A    between atoms: C8_10  and  C9_11 
REMARK    9  A    between atoms: C9_11  and  C10_12 
REMARK   10  A    between atoms: C10_12  and  N2_13 
ROOT
HETATM    1  C9  UNL     1       0.797  14.790 -40.194  1.00  0.00     0.020 C 
ENDROOT
BRANCH   1   2
HETATM    2  C8  UNL     1       1.504  15.971 -40.779  1.00  0.00     0.002 C 
BRANCH   2   3
HETATM    3  C7  UNL     1       2.994  15.903 -40.586  1.00  0.00     0.000 C 
BRANCH   3   4
HETATM    4  C6  UNL     1       3.592  17.136 -39.977  1.00  0.00     0.000 C 
BRANCH   4   5
HETATM    5  C5  UNL     1       5.020  16.918 -39.599  1.00  0.00     0.000 C 
BRANCH   5   6
HETATM    6  C4  UNL     1       5.631  15.747 -40.352  1.00  0.00     0.000 C 
BRANCH   6   7
HETATM    7  C3  UNL     1       6.398  14.923 -39.382  1.00  0.00     0.009 C 
BRANCH   7   8
HETATM    8  C2  UNL     1       5.618  13.938 -38.588  1.00  0.00     0.099 C 
BRANCH   8   9
HETATM    9  C1  UNL     1       6.094  13.729 -37.218  1.00  0.00     0.231 C 
HETATM   10  N1  UNL     1       7.176  12.793 -37.054  1.00  0.00    -0.062 NA
HETATM   11  O1  UNL     1       5.628  14.293 -36.227  1.00  0.00    -0.277 OA
ENDBRANCH   8   9
ENDBRANCH   7   8
ENDBRANCH   6   7
ENDBRANCH   5   6
ENDBRANCH   4   5
ENDBRANCH   3   4
ENDBRANCH   2   3
ENDBRANCH   1   2
BRANCH   1  12
HETATM   12  C10 UNL     1      -0.682  15.043 -39.977  1.00  0.00     0.132 C 
BRANCH  12  13
HETATM   13  N2  UNL     1      -1.335  13.750 -39.818  1.00  0.00    -0.313 N 
HETATM   14  C11 UNL     1      -1.706  13.176 -38.647  1.00  0.00     0.196 A 
HETATM   15  N3  UNL     1      -1.496  13.788 -37.377  1.00  0.00    -0.063 NA
HETATM   16  N4  UNL     1      -2.281  11.981 -38.882  1.00  0.00    -0.322 N 
HETATM   17  C12 UNL     1      -2.293  11.759 -40.213  1.00  0.00     0.116 A 
ATOM     18  H4  UNL     1      -2.648  11.348 -38.171  1.00  0.00     0.169 HD
HETATM   19 BR1  UNL     1      -2.992  10.215 -41.102  1.00  0.00    -0.028 Br
HETATM   20  C13 UNL     1      -1.699  12.873 -40.769  1.00  0.00     0.118 A 
HETATM   21 BR2  UNL     1      -1.423  13.150 -42.638  1.00  0.00    -0.028 Br
ENDBRANCH  12  13
ENDBRANCH   1  12
TORSDOF 10
ENDMDL
MODEL 3
REMARK VINA RESULT: -6.090299481      1.117      1.394
REMARK  10 active torsions:
REMARK  status: ('A' for Active; 'I' for Inactive)
REMARK    1  A    between atoms: C1_2  and  C2_4 
REMARK    2  A    between atoms: C2_4  and  C3_5 
REMARK    3  A    between atoms: C3_5  and  C4_6 
REMARK    4  A    between atoms: C4_6  and  C5_7 
REMARK    5  A    between atoms: C5_7  and  C6_8 
REMARK    6  A    between atoms: C6_8  and  C7_9 
REMARK    7  A    between atoms: C7_9  and  C8_10 
REMARK    8  A    between atoms: C8_10  and  C9_11 
REMARK    9  A    between atoms: C9_11  and  C10_12 
REMARK   10  A    between atoms: C10_12  and  N2_13 
ROOT
HETATM    1  C9  UNL     1       0.095  14.183 -41.305  1.00  0.00     0.020 C 
ENDROOT
BRANCH   1   2
HETATM    2  C8  UNL     1       0.790  15.060 -40.314  1.00  0.00     0.002 C 
BRANCH   2   3
HETATM    3  C7  UNL     1       1.607  16.138 -40.973  1.00  0.00     0.000 C 
BRANCH   3   4
HETATM    4  C6  UNL     1       3.070  16.085 -40.649  1.00  0.00     0.000 C 
BRANCH   4   5
HETATM    5  C5  UNL     1       3.537  17.362 -40.033  1.00  0.00     0.000 C 
BRANCH   5   6
HETATM    6  C4  UNL     1       4.874  17.194 -39.328  1.00  0.00     0.000 C 
BRANCH   6   7
HETATM    7  C3  UNL     1       5.201  15.745 -39.297  1.00  0.00     0.009 C 
BRANCH   7   8
HETATM    8  C2  UNL     1       5.399  15.140 -37.954  1.00  0.00     0.099 C 
BRANCH   8   9
HETATM    9  C1  UNL     1       6.163  13.889 -37.943  1.00  0.00     0.231 C 
HETATM   10  N1  UNL     1       7.292  13.822 -38.836  1.00  0.00    -0.062 NA
HETATM   11  O1  UNL     1       5.896  12.918 -37.234  1.00  0.00    -0.277 OA
ENDBRANCH   8   9
ENDBRANCH   7   8
ENDBRANCH   6   7
ENDBRANCH   5   6
ENDBRANCH   4   5
ENDBRANCH   3   4
ENDBRANCH   2   3
ENDBRANCH   1   2
BRANCH   1  12
HETATM   12  C10 UNL     1      -0.809  13.159 -40.648  1.00  0.00     0.132 C 
BRANCH  12  13
HETATM   13  N2  UNL     1      -1.923  13.875 -40.039  1.00  0.00    -0.313 N 
HETATM   14  C11 UNL     1      -2.110  14.092 -38.714  1.00  0.00     0.196 A 
HETATM   15  N3  UNL     1      -1.207  13.632 -37.713  1.00  0.00    -0.063 NA
HETATM   16  N4  UNL     1      -3.246  14.788 -38.518  1.00  0.00    -0.322 N 
HETATM   17  C12 UNL     1      -3.818  15.034 -39.716  1.00  0.00     0.116 A 
ATOM     18  H4  UNL     1      -3.615  15.081 -37.614  1.00  0.00     0.169 HD
HETATM   19 BR1  UNL     1      -5.450  15.986 -40.024  1.00  0.00    -0.028 Br
HETATM   20  C13 UNL     1      -2.975  14.455 -40.642  1.00  0.00     0.118 A 
HETATM   21 BR2  UNL     1      -3.248  14.468 -42.532  1.00  0.00    -0.028 Br
ENDBRANCH  12  13
ENDBRANCH   1  12
TORSDOF 10
ENDMDL
MODEL 4
REMARK VINA RESULT: -6.087397874      2.478      3.280
REMARK  10 active torsions:
REMARK  status: ('A' for Active; 'I' for Inactive)
REMARK    1  A    between atoms: C1_2  and  C2_4 
REMARK    2  A    between atoms: C2_4  and  C3_5 
REMARK    3  A    between atoms: C3_5  and  C4_6 
REMARK    4  A    between atoms: C4_6  and  C5_7 
REMARK    5  A    between atoms: C5_7  and  C6_8 
REMARK    6  A    between atoms: C6_8  and  C7_9 
REMARK    7  A    between atoms: C7_9  and  C8_10 
REMARK    8  A    between atoms: C8_10  and  C9_11 
REMARK    9  A    between atoms: C9_11  and  C10_12 
REMARK   10  A    between atoms: C10_12  and  N2_13 
ROOT
HETATM    1  C9  UNL     1      -0.906  13.945 -42.462  1.00  0.00     0.020 C 
ENDROOT
BRANCH   1   2
HETATM    2  C8  UNL     1       0.420  13.352 -42.816  1.00  0.00     0.002 C 
BRANCH   2   3
HETATM    3  C7  UNL     1       1.517  13.802 -41.889  1.00  0.00     0.000 C 
BRANCH   3   4
HETATM    4  C6  UNL     1       1.726  15.287 -41.859  1.00  0.00     0.000 C 
BRANCH   4   5
HETATM    5  C5  UNL     1       1.847  15.790 -40.460  1.00  0.00     0.000 C 
BRANCH   5   6
HETATM    6  C4  UNL     1       2.840  16.938 -40.356  1.00  0.00     0.000 C 
BRANCH   6   7
HETATM    7  C3  UNL     1       4.140  16.384 -39.898  1.00  0.00     0.009 C 
BRANCH   7   8
HETATM    8  C2  UNL     1       4.078  15.292 -38.893  1.00  0.00     0.099 C 
BRANCH   8   9
HETATM    9  C1  UNL     1       4.994  14.173 -39.134  1.00  0.00     0.231 C 
HETATM   10  N1  UNL     1       5.356  13.928 -40.507  1.00  0.00    -0.062 NA
HETATM   11  O1  UNL     1       5.456  13.451 -38.250  1.00  0.00    -0.277 OA
ENDBRANCH   8   9
ENDBRANCH   7   8
ENDBRANCH   6   7
ENDBRANCH   5   6
ENDBRANCH   4   5
ENDBRANCH   3   4
ENDBRANCH   2   3
ENDBRANCH   1   2
BRANCH   1  12
HETATM   12  C10 UNL     1      -1.917  12.902 -42.031  1.00  0.00     0.132 C 
BRANCH  12  13
HETATM   13  N2  UNL     1      -1.787  12.724 -40.591  1.00  0.00    -0.313 N 
HETATM   14  C11 UNL     1      -1.139  11.713 -39.961  1.00  0.00     0.196 A 
HETATM   15  N3  UNL     1      -0.478  10.659 -40.655  1.00  0.00    -0.063 NA
HETATM   16  N4  UNL     1      -1.224  11.873 -38.627  1.00  0.00    -0.322 N 
HETATM   17  C12 UNL     1      -1.931  12.993 -38.367  1.00  0.00     0.116 A 
ATOM     18  H4  UNL     1      -0.821  11.251 -37.927  1.00  0.00     0.169 HD
HETATM   19 BR1  UNL     1      -2.356  13.695 -36.637  1.00  0.00    -0.028 Br
HETATM   20  C13 UNL     1      -2.268  13.501 -39.605  1.00  0.00     0.118 A 
HETATM   21 BR2  UNL     1      -3.281  15.092 -39.898  1.00  0.00    -0.028 Br
ENDBRANCH  12  13
ENDBRANCH   1  12
TORSDOF 10
ENDMDL
MODEL 5
REMARK VINA RESULT: -6.001185034      3.144      3.910
REMARK  10 active torsions:
REMARK  status: ('A' for Active; 'I' for Inactive)
REMARK    1  A    between atoms: C1_2  and  C2_4 
REMARK    2  A    between atoms: C2_4  and  C3_5 
REMARK    3  A    between atoms: C3_5  and  C4_6 
REMARK    4  A    between atoms: C4_6  and  C5_7 
REMARK    5  A    between atoms: C5_7  and  C6_8 
REMARK    6  A    between atoms: C6_8  and  C7_9 
REMARK    7  A    between atoms: C7_9  and  C8_10 
REMARK    8  A    between atoms: C8_10  and  C9_11 
REMARK    9  A    between atoms: C9_11  and  C10_12 
REMARK   10  A    between atoms: C10_12  and  N2_13 
ROOT
HETATM    1  C9  UNL     1       1.523  15.419 -42.218  1.00  0.00     0.020 C 
ENDROOT
BRANCH   1   2
HETATM    2  C8  UNL     1       1.729  16.333 -41.053  1.00  0.00     0.002 C 
BRANCH   2   3
HETATM    3  C7  UNL     1       2.956  15.982 -40.255  1.00  0.00     0.000 C 
BRANCH   3   4
HETATM    4  C6  UNL     1       3.816  17.158 -39.900  1.00  0.00     0.000 C 
BRANCH   4   5
HETATM    5  C5  UNL     1       5.188  16.727 -39.501  1.00  0.00     0.000 C 
BRANCH   5   6
HETATM    6  C4  UNL     1       5.709  15.607 -40.388  1.00  0.00     0.000 C 
BRANCH   6   7
HETATM    7  C3  UNL     1       6.368  14.598 -39.520  1.00  0.00     0.009 C 
BRANCH   7   8
HETATM    8  C2  UNL     1       5.506  13.923 -38.516  1.00  0.00     0.099 C 
BRANCH   8   9
HETATM    9  C1  UNL     1       6.104  13.767 -37.187  1.00  0.00     0.231 C 
HETATM   10  N1  UNL     1       7.167  12.802 -37.075  1.00  0.00    -0.062 NA
HETATM   11  O1  UNL     1       5.753  14.398 -36.189  1.00  0.00    -0.277 OA
ENDBRANCH   8   9
ENDBRANCH   7   8
ENDBRANCH   6   7
ENDBRANCH   5   6
ENDBRANCH   4   5
ENDBRANCH   3   4
ENDBRANCH   2   3
ENDBRANCH   1   2
BRANCH   1  12
HETATM   12  C10 UNL     1       1.545  13.956 -41.823  1.00  0.00     0.132 C 
BRANCH  12  13
HETATM   13  N2  UNL     1       0.239  13.391 -42.138  1.00  0.00    -0.313 N 
HETATM   14  C11 UNL     1      -0.106  12.752 -43.283  1.00  0.00     0.196 A 
HETATM   15  N3  UNL     1       0.800  12.545 -44.363  1.00  0.00    -0.063 NA
HETATM   16  N4  UNL     1      -1.394  12.366 -43.224  1.00  0.00    -0.322 N 
HETATM   17  C12 UNL     1      -1.910  12.748 -42.037  1.00  0.00     0.116 A 
ATOM     18  H4  UNL     1      -1.899  11.866 -43.956  1.00  0.00     0.169 HD
HETATM   19 BR1  UNL     1      -3.700  12.455 -41.426  1.00  0.00    -0.028 Br
HETATM   20  C13 UNL     1      -0.874  13.382 -41.383  1.00  0.00     0.118 A 
HETATM   21 BR2  UNL     1      -0.985  14.151 -39.639  1.00  0.00    -0.028 Br
ENDBRANCH  12  13
ENDBRANCH   1  12
TORSDOF 10
ENDMDL
