MODEL 1
REMARK VINA RESULT: -7.067372842      0.000      0.000
REMARK  7 active torsions:
REMARK  status: ('A' for Active; 'I' for Inactive)
REMARK    1  A    between atoms: C4_4  and  N1_5 
REMARK    2  A    between atoms: N1_5  and  C5_7 
REMARK    3  A    between atoms: C5_7  and  C6_8 
REMARK    4  A    between atoms: C6_8  and  C7_9 
REMARK    5  A    between atoms: C7_9  and  N2_10 
REMARK    6  A    between atoms: N6_17  and  C9_18 
REMARK    7  A    between atoms: C9_18  and  C10_19 
ROOT
HETATM    1  C1  UNL     1      30.366 -13.105  16.128  1.00  0.00     0.070 C 
HETATM    2  C2  UNL     1      30.355 -11.862  15.318  1.00  0.00     0.028 A 
HETATM    3  C3  UNL     1      31.491 -11.101  15.065  1.00  0.00     0.075 A 
HETATM    4  C4  UNL     1      31.062 -10.049  14.288  1.00  0.00     0.117 A 
HETATM    5  N5  UNL     1      29.745 -10.214  14.114  1.00  0.00    -0.283 N 
ATOM      6  H5  UNL     1      29.155  -9.580  13.576  1.00  0.00     0.189 HD
HETATM    7  N6  UNL     1      29.302 -11.301  14.727  1.00  0.00    -0.291 N 
ENDROOT
BRANCH   4   8
HETATM    8  N1  UNL     1      31.831  -9.108  13.840  1.00  0.00    -0.375 N 
ATOM      9  H1  UNL     1      32.610  -9.370  13.237  1.00  0.00     0.161 HD
BRANCH   8  10
HETATM   10  C5  UNL     1      31.649  -7.724  14.143  1.00  0.00     0.123 C 
BRANCH  10  11
HETATM   11  C6  UNL     1      31.372  -6.906  12.883  1.00  0.00     0.039 C 
BRANCH  11  12
HETATM   12  C7  UNL     1      29.997  -7.180  12.348  1.00  0.00     0.123 C 
BRANCH  12  13
HETATM   13  N2  UNL     1      29.829  -6.435  11.121  1.00  0.00    -0.367 N 
HETATM   14  C8  UNL     1      28.892  -5.576  11.027  1.00  0.00     0.196 C 
HETATM   15  N3  UNL     1      28.025  -5.355  12.114  1.00  0.00    -0.067 NA
HETATM   16  N4  UNL     1      28.702  -4.830   9.835  1.00  0.00    -0.067 NA
ATOM     17  H2  UNL     1      30.457  -6.596  10.333  1.00  0.00     0.161 HD
ENDBRANCH  12  13
ENDBRANCH  11  12
ENDBRANCH  10  11
ENDBRANCH   8  10
ENDBRANCH   4   8
BRANCH   7  18
HETATM   18  C9  UNL     1      27.922 -11.744  14.723  1.00  0.00     0.187 C 
BRANCH  18  19
HETATM   19  C10 UNL     1      26.959 -10.620  14.841  1.00  0.00    -0.038 A 
HETATM   20  C11 UNL     1      25.978 -10.434  13.890  1.00  0.00     0.009 A 
HETATM   21  C12 UNL     1      25.053  -9.409  13.947  1.00  0.00     0.001 A 
HETATM   22  C13 UNL     1      25.108  -8.521  15.004  1.00  0.00     0.000 A 
HETATM   23  C14 UNL     1      26.067  -8.678  15.961  1.00  0.00     0.001 A 
HETATM   24  C15 UNL     1      26.991  -9.719  15.885  1.00  0.00     0.009 A 
ENDBRANCH  18  19
ENDBRANCH   7  18
TORSDOF 7
ENDMDL
MODEL 2
REMARK VINA RESULT: -7.062391003      2.036      3.619
REMARK  7 active torsions:
REMARK  status: ('A' for Active; 'I' for Inactive)
REMARK    1  A    between atoms: C4_4  and  N1_5 
REMARK    2  A    between atoms: N1_5  and  C5_7 
REMARK    3  A    between atoms: C5_7  and  C6_8 
REMARK    4  A    between atoms: C6_8  and  C7_9 
REMARK    5  A    between atoms: C7_9  and  N2_10 
REMARK    6  A    between atoms: N6_17  and  C9_18 
REMARK    7  A    between atoms: C9_18  and  C10_19 
ROOT
HETATM    1  C1  UNL     1      26.829 -11.846  14.562  1.00  0.00     0.070 C 
HETATM    2  C2  UNL     1      27.856 -10.954  15.156  1.00  0.00     0.028 A 
HETATM    3  C3  UNL     1      29.099 -11.399  15.593  1.00  0.00     0.075 A 
HETATM    4  C4  UNL     1      29.743 -10.280  16.067  1.00  0.00     0.117 A 
HETATM    5  N5  UNL     1      28.898  -9.254  15.904  1.00  0.00    -0.283 N 
ATOM      6  H5  UNL     1      29.107  -8.292  16.170  1.00  0.00     0.189 HD
HETATM    7  N6  UNL     1      27.756  -9.641  15.356  1.00  0.00    -0.291 N 
ENDROOT
BRANCH   4   8
HETATM    8  N1  UNL     1      30.937 -10.278  16.567  1.00  0.00    -0.375 N 
ATOM      9  H1  UNL     1      31.135  -9.640  17.337  1.00  0.00     0.161 HD
BRANCH   8  10
HETATM   10  C5  UNL     1      31.994 -11.118  16.100  1.00  0.00     0.123 C 
BRANCH  10  11
HETATM   11  C6  UNL     1      32.475 -10.696  14.713  1.00  0.00     0.039 C 
BRANCH  11  12
HETATM   12  C7  UNL     1      33.117  -9.340  14.749  1.00  0.00     0.123 C 
BRANCH  12  13
HETATM   13  N2  UNL     1      32.508  -8.520  13.726  1.00  0.00    -0.367 N 
HETATM   14  C8  UNL     1      31.715  -7.580  14.060  1.00  0.00     0.196 C 
HETATM   15  N3  UNL     1      31.433  -7.342  15.418  1.00  0.00    -0.067 NA
HETATM   16  N4  UNL     1      31.102  -6.759  13.077  1.00  0.00    -0.067 NA
ATOM     17  H2  UNL     1      32.713  -8.693  12.742  1.00  0.00     0.161 HD
ENDBRANCH  12  13
ENDBRANCH  11  12
ENDBRANCH  10  11
ENDBRANCH   8  10
ENDBRANCH   4   8
BRANCH   7  18
HETATM   18  C9  UNL     1      26.645  -8.760  15.057  1.00  0.00     0.187 C 
BRANCH  18  19
HETATM   19  C10 UNL     1      26.461  -8.543  13.600  1.00  0.00    -0.038 A 
HETATM   20  C11 UNL     1      25.281  -8.899  12.982  1.00  0.00     0.009 A 
HETATM   21  C12 UNL     1      25.051  -8.719  11.631  1.00  0.00     0.001 A 
HETATM   22  C13 UNL     1      26.046  -8.159  10.855  1.00  0.00     0.000 A 
HETATM   23  C14 UNL     1      27.225  -7.796  11.438  1.00  0.00     0.001 A 
HETATM   24  C15 UNL     1      27.438  -7.986  12.802  1.00  0.00     0.009 A 
ENDBRANCH  18  19
ENDBRANCH   7  18
TORSDOF 7
ENDMDL
MODEL 3
REMARK VINA RESULT: -6.988031035      1.961      4.554
REMARK  7 active torsions:
REMARK  status: ('A' for Active; 'I' for Inactive)
REMARK    1  A    between atoms: C4_4  and  N1_5 
REMARK    2  A    between atoms: N1_5  and  C5_7 
REMARK    3  A    between atoms: C5_7  and  C6_8 
REMARK    4  A    between atoms: C6_8  and  C7_9 
REMARK    5  A    between atoms: C7_9  and  N2_10 
REMARK    6  A    between atoms: N6_17  and  C9_18 
REMARK    7  A    between atoms: C9_18  and  C10_19 
ROOT
HETATM    1  C1  UNL     1      27.055  -8.707  15.002  1.00  0.00     0.070 C 
HETATM    2  C2  UNL     1      27.785  -8.774  13.712  1.00  0.00     0.028 A 
HETATM    3  C3  UNL     1      27.160  -8.971  12.486  1.00  0.00     0.075 A 
HETATM    4  C4  UNL     1      28.173  -8.969  11.554  1.00  0.00     0.117 A 
HETATM    5  N5  UNL     1      29.313  -8.779  12.229  1.00  0.00    -0.283 N 
ATOM      6  H5  UNL     1      30.235  -8.733  11.794  1.00  0.00     0.189 HD
HETATM    7  N6  UNL     1      29.100  -8.659  13.530  1.00  0.00    -0.291 N 
ENDROOT
BRANCH   4   8
HETATM    8  N1  UNL     1      27.998  -9.126  10.281  1.00  0.00    -0.375 N 
ATOM      9  H1  UNL     1      27.654 -10.027   9.951  1.00  0.00     0.161 HD
BRANCH   8  10
HETATM   10  C5  UNL     1      28.258  -8.109   9.313  1.00  0.00     0.123 C 
BRANCH  10  11
HETATM   11  C6  UNL     1      27.136  -7.072   9.274  1.00  0.00     0.039 C 
BRANCH  11  12
HETATM   12  C7  UNL     1      27.669  -5.685   9.484  1.00  0.00     0.123 C 
BRANCH  12  13
HETATM   13  N2  UNL     1      28.971  -5.786  10.102  1.00  0.00    -0.367 N 
HETATM   14  C8  UNL     1      29.098  -5.550  11.348  1.00  0.00     0.196 C 
HETATM   15  N3  UNL     1      27.975  -5.193  12.118  1.00  0.00    -0.067 NA
HETATM   16  N4  UNL     1      30.365  -5.641  11.983  1.00  0.00    -0.067 NA
ATOM     17  H2  UNL     1      29.786  -6.044   9.544  1.00  0.00     0.161 HD
ENDBRANCH  12  13
ENDBRANCH  11  12
ENDBRANCH  10  11
ENDBRANCH   8  10
ENDBRANCH   4   8
BRANCH   7  18
HETATM   18  C9  UNL     1      30.137  -8.448  14.520  1.00  0.00     0.187 C 
BRANCH  18  19
HETATM   19  C10 UNL     1      30.561  -9.706  15.184  1.00  0.00    -0.038 A 
HETATM   20  C11 UNL     1      31.321 -10.635  14.504  1.00  0.00     0.009 A 
HETATM   21  C12 UNL     1      31.746 -11.823  15.069  1.00  0.00     0.001 A 
HETATM   22  C13 UNL     1      31.397 -12.101  16.376  1.00  0.00     0.000 A 
HETATM   23  C14 UNL     1      30.646 -11.202  17.074  1.00  0.00     0.001 A 
HETATM   24  C15 UNL     1      30.227 -10.010  16.486  1.00  0.00     0.009 A 
ENDBRANCH  18  19
ENDBRANCH   7  18
TORSDOF 7
ENDMDL
MODEL 4
REMARK VINA RESULT: -6.982179549      1.668      1.951
REMARK  7 active torsions:
REMARK  status: ('A' for Active; 'I' for Inactive)
REMARK    1  A    between atoms: C4_4  and  N1_5 
REMARK    2  A    between atoms: N1_5  and  C5_7 
REMARK    3  A    between atoms: C5_7  and  C6_8 
REMARK    4  A    between atoms: C6_8  and  C7_9 
REMARK    5  A    between atoms: C7_9  and  N2_10 
REMARK    6  A    between atoms: N6_17  and  C9_18 
REMARK    7  A    between atoms: C9_18  and  C10_19 
ROOT
HETATM    1  C1  UNL     1      29.917 -13.964  16.093  1.00  0.00     0.070 C 
HETATM    2  C2  UNL     1      29.933 -12.491  15.913  1.00  0.00     0.028 A 
HETATM    3  C3  UNL     1      30.900 -11.660  16.470  1.00  0.00     0.075 A 
HETATM    4  C4  UNL     1      30.563 -10.387  16.071  1.00  0.00     0.117 A 
HETATM    5  N5  UNL     1      29.457 -10.500  15.325  1.00  0.00    -0.283 N 
ATOM      6  H5  UNL     1      28.976  -9.712  14.892  1.00  0.00     0.189 HD
HETATM    7  N6  UNL     1      29.063 -11.760  15.219  1.00  0.00    -0.291 N 
ENDROOT
BRANCH   4   8
HETATM    8  N1  UNL     1      31.226  -9.321  16.387  1.00  0.00    -0.375 N 
ATOM      9  H1  UNL     1      30.846  -8.718  17.117  1.00  0.00     0.161 HD
BRANCH   8  10
HETATM   10  C5  UNL     1      32.457  -8.940  15.772  1.00  0.00     0.123 C 
BRANCH  10  11
HETATM   11  C6  UNL     1      32.283  -8.693  14.274  1.00  0.00     0.039 C 
BRANCH  11  12
HETATM   12  C7  UNL     1      31.369  -7.530  14.017  1.00  0.00     0.123 C 
BRANCH  12  13
HETATM   13  N2  UNL     1      30.701  -7.747  12.754  1.00  0.00    -0.367 N 
HETATM   14  C8  UNL     1      29.441  -7.936  12.731  1.00  0.00     0.196 C 
HETATM   15  N3  UNL     1      28.704  -7.934  13.930  1.00  0.00    -0.067 NA
HETATM   16  N4  UNL     1      28.757  -8.151  11.506  1.00  0.00    -0.067 NA
ATOM     17  H2  UNL     1      31.235  -7.748  11.885  1.00  0.00     0.161 HD
ENDBRANCH  12  13
ENDBRANCH  11  12
ENDBRANCH  10  11
ENDBRANCH   8  10
ENDBRANCH   4   8
BRANCH   7  18
HETATM   18  C9  UNL     1      27.897 -12.199  14.478  1.00  0.00     0.187 C 
BRANCH  18  19
HETATM   19  C10 UNL     1      26.916 -11.108  14.255  1.00  0.00    -0.038 A 
HETATM   20  C11 UNL     1      26.568 -10.729  12.975  1.00  0.00     0.009 A 
HETATM   21  C12 UNL     1      25.660  -9.723  12.705  1.00  0.00     0.001 A 
HETATM   22  C13 UNL     1      25.068  -9.059  13.762  1.00  0.00     0.000 A 
HETATM   23  C14 UNL     1      25.391  -9.411  15.039  1.00  0.00     0.001 A 
HETATM   24  C15 UNL     1      26.310 -10.428  15.291  1.00  0.00     0.009 A 
ENDBRANCH  18  19
ENDBRANCH   7  18
TORSDOF 7
ENDMDL
MODEL 5
REMARK VINA RESULT: -6.978956704      1.962      4.628
REMARK  7 active torsions:
REMARK  status: ('A' for Active; 'I' for Inactive)
REMARK    1  A    between atoms: C4_4  and  N1_5 
REMARK    2  A    between atoms: N1_5  and  C5_7 
REMARK    3  A    between atoms: C5_7  and  C6_8 
REMARK    4  A    between atoms: C6_8  and  C7_9 
REMARK    5  A    between atoms: C7_9  and  N2_10 
REMARK    6  A    between atoms: N6_17  and  C9_18 
REMARK    7  A    between atoms: C9_18  and  C10_19 
ROOT
HETATM    1  C1  UNL     1      27.073  -8.707  14.991  1.00  0.00     0.070 C 
HETATM    2  C2  UNL     1      27.802  -8.779  13.701  1.00  0.00     0.028 A 
HETATM    3  C3  UNL     1      27.175  -8.976  12.475  1.00  0.00     0.075 A 
HETATM    4  C4  UNL     1      28.186  -8.979  11.543  1.00  0.00     0.117 A 
HETATM    5  N5  UNL     1      29.328  -8.791  12.216  1.00  0.00    -0.283 N 
ATOM      6  H5  UNL     1      30.249  -8.749  11.780  1.00  0.00     0.189 HD
HETATM    7  N6  UNL     1      29.116  -8.668  13.517  1.00  0.00    -0.291 N 
ENDROOT
BRANCH   4   8
HETATM    8  N1  UNL     1      28.009  -9.137  10.270  1.00  0.00    -0.375 N 
ATOM      9  H1  UNL     1      27.659 -10.037   9.942  1.00  0.00     0.161 HD
BRANCH   8  10
HETATM   10  C5  UNL     1      28.274  -8.124   9.299  1.00  0.00     0.123 C 
BRANCH  10  11
HETATM   11  C6  UNL     1      27.164  -7.075   9.266  1.00  0.00     0.039 C 
BRANCH  11  12
HETATM   12  C7  UNL     1      27.714  -5.693   9.469  1.00  0.00     0.123 C 
BRANCH  12  13
HETATM   13  N2  UNL     1      29.005  -5.806  10.108  1.00  0.00    -0.367 N 
HETATM   14  C8  UNL     1      29.116  -5.564  11.354  1.00  0.00     0.196 C 
HETATM   15  N3  UNL     1      27.987  -5.187  12.105  1.00  0.00    -0.067 NA
HETATM   16  N4  UNL     1      30.372  -5.666  12.008  1.00  0.00    -0.067 NA
ATOM     17  H2  UNL     1      29.824  -6.079   9.564  1.00  0.00     0.161 HD
ENDBRANCH  12  13
ENDBRANCH  11  12
ENDBRANCH  10  11
ENDBRANCH   8  10
ENDBRANCH   4   8
BRANCH   7  18
HETATM   18  C9  UNL     1      30.156  -8.459  14.505  1.00  0.00     0.187 C 
BRANCH  18  19
HETATM   19  C10 UNL     1      30.606  -9.723  15.140  1.00  0.00    -0.038 A 
HETATM   20  C11 UNL     1      30.275 -10.005  16.449  1.00  0.00     0.009 A 
HETATM   21  C12 UNL     1      30.662 -11.165  17.093  1.00  0.00     0.001 A 
HETATM   22  C13 UNL     1      31.418 -12.091  16.402  1.00  0.00     0.000 A 
HETATM   23  C14 UNL     1      31.761 -11.840  15.105  1.00  0.00     0.001 A 
HETATM   24  C15 UNL     1      31.361 -10.664  14.473  1.00  0.00     0.009 A 
ENDBRANCH  18  19
ENDBRANCH   7  18
TORSDOF 7
ENDMDL
