MODEL 1
REMARK VINA RESULT: -7.873750343      0.000      0.000
REMARK  10 active torsions:
REMARK  status: ('A' for Active; 'I' for Inactive)
REMARK    1  A    between atoms: C2_2  and  O2_4 
REMARK    2  A    between atoms: O2_4  and  C3_5 
REMARK    3  A    between atoms: C8_10  and  O3_11 
REMARK    4  A    between atoms: C11_15  and  C12_16 
REMARK    5  A    between atoms: N1_17  and  O4_19 
REMARK    6  A    between atoms: C17_26  and  C18_27 
REMARK    7  A    between atoms: C19_28  and  C20_29 
REMARK    8  A    between atoms: C20_29  and  O6_30 
REMARK    9  A    between atoms: C20_29  and  C21_32 
REMARK   10  A    between atoms: C21_32  and  C23_34 
ROOT
HETATM    1  C3  UNL     1       3.646   3.260   8.095  1.00  0.00     0.140 C 
HETATM    2  C4  UNL     1       3.803   2.877   6.639  1.00  0.00     0.039 C 
HETATM    3  C5  UNL     1       3.055   1.625   6.356  1.00  0.00     0.011 C 
HETATM    4  C6  UNL     1       1.654   1.618   6.946  1.00  0.00     0.063 C 
HETATM    5  C7  UNL     1       1.003   0.540   6.067  1.00  0.00     0.051 C 
HETATM    6  C8  UNL     1       1.383   1.090   4.702  1.00  0.00     0.067 C 
HETATM    7  C9  UNL     1       1.242   0.086   3.608  1.00  0.00     0.039 C 
HETATM    8  C10 UNL     1       2.474  -0.746   3.725  1.00  0.00     0.013 C 
HETATM    9  C11 UNL     1       3.484   0.031   4.516  1.00  0.00     0.037 C 
HETATM   10  C13 UNL     1       2.864   1.342   4.893  1.00  0.00    -0.000 C 
HETATM   11  C14 UNL     1       3.337   2.479   4.015  1.00  0.00     0.019 C 
HETATM   12  C15 UNL     1       1.719   1.200   8.358  1.00  0.00     0.132 C 
HETATM   13  O5  UNL     1       0.734   0.540   8.700  1.00  0.00    -0.298 OA
HETATM   14  C16 UNL     1       2.680   1.383   9.452  1.00  0.00     0.089 C 
HETATM   15  C17 UNL     1       3.942   2.093   9.024  1.00  0.00     0.044 C 
ENDROOT
BRANCH  15  16
HETATM   16  C18 UNL     1       4.708   2.578  10.202  1.00  0.00    -0.021 C 
HETATM   17  C19 UNL     1       5.914   3.106  10.122  1.00  0.00     0.002 C 
BRANCH  17  18
HETATM   18  C20 UNL     1       6.719   3.600  11.242  1.00  0.00     0.154 C 
BRANCH  18  19
HETATM   19  O6  UNL     1       7.107   4.920  10.985  1.00  0.00    -0.391 OA
ATOM     20  H6  UNL     1       6.409   5.509  11.248  1.00  0.00     0.210 HD
ENDBRANCH  18  19
BRANCH  18  21
HETATM   21  C21 UNL     1       7.968   2.786  11.449  1.00  0.00     0.115 C 
HETATM   22  C22 UNL     1       7.954   1.561  10.557  1.00  0.00     0.024 C 
BRANCH  21  23
HETATM   23  C23 UNL     1       9.178   3.610  11.187  1.00  0.00     0.179 C 
HETATM   24  O7  UNL     1       9.553   3.768  10.006  1.00  0.00    -0.648 OA
HETATM   25  O8  UNL     1       9.869   4.187  12.229  1.00  0.00    -0.648 OA
ENDBRANCH  21  23
ENDBRANCH  18  21
ENDBRANCH  17  18
ENDBRANCH  15  16
BRANCH   1  26
HETATM   26  O2  UNL     1       2.413   3.854   8.373  1.00  0.00    -0.316 OA
BRANCH  26  27
HETATM   27  C2  UNL     1       2.212   5.124   8.837  1.00  0.00     0.255 C 
HETATM   28  C1  UNL     1       1.827   5.311  10.257  1.00  0.00     0.126 C 
HETATM   29  O1  UNL     1       2.364   6.080   8.029  1.00  0.00    -0.266 OA
ENDBRANCH  26  27
ENDBRANCH   1  26
BRANCH   6  30
HETATM   30  O3  UNL     1       0.681   2.264   4.470  1.00  0.00    -0.389 OA
ATOM     31  H3  UNL     1       1.272   3.003   4.550  1.00  0.00     0.210 HD
ENDBRANCH   6  30
BRANCH   9  32
HETATM   32  C12 UNL     1       4.769   0.192   3.852  1.00  0.00     0.092 C 
HETATM   33  N1  UNL     1       5.661  -0.724   3.929  1.00  0.00    -0.284 N 
ATOM     34  H1  UNL     1       6.547  -0.569   3.448  1.00  0.00     0.192 HD
BRANCH  33  35
HETATM   35  O4  UNL     1       5.503  -1.894   4.612  1.00  0.00    -0.291 OA
ATOM     36  H4  UNL     1       6.218  -2.468   4.862  1.00  0.00     0.244 HD
ENDBRANCH  33  35
ENDBRANCH   9  32
TORSDOF 10
ENDMDL
MODEL 2
REMARK VINA RESULT: -7.330785119      1.699      2.111
REMARK  10 active torsions:
REMARK  status: ('A' for Active; 'I' for Inactive)
REMARK    1  A    between atoms: C2_2  and  O2_4 
REMARK    2  A    between atoms: O2_4  and  C3_5 
REMARK    3  A    between atoms: C8_10  and  O3_11 
REMARK    4  A    between atoms: C11_15  and  C12_16 
REMARK    5  A    between atoms: N1_17  and  O4_19 
REMARK    6  A    between atoms: C17_26  and  C18_27 
REMARK    7  A    between atoms: C19_28  and  C20_29 
REMARK    8  A    between atoms: C20_29  and  O6_30 
REMARK    9  A    between atoms: C20_29  and  C21_32 
REMARK   10  A    between atoms: C21_32  and  C23_34 
ROOT
HETATM    1  C3  UNL     1       4.395   1.374   8.472  1.00  0.00     0.140 C 
HETATM    2  C4  UNL     1       4.281   1.647   6.988  1.00  0.00     0.039 C 
HETATM    3  C5  UNL     1       3.453   0.599   6.337  1.00  0.00     0.011 C 
HETATM    4  C6  UNL     1       2.178   0.281   7.101  1.00  0.00     0.063 C 
HETATM    5  C7  UNL     1       1.348  -0.355   5.977  1.00  0.00     0.051 C 
HETATM    6  C8  UNL     1       1.500   0.735   4.928  1.00  0.00     0.067 C 
HETATM    7  C9  UNL     1       1.136   0.279   3.555  1.00  0.00     0.039 C 
HETATM    8  C10 UNL     1       2.341  -0.469   3.095  1.00  0.00     0.013 C 
HETATM    9  C11 UNL     1       3.500  -0.052   3.952  1.00  0.00     0.037 C 
HETATM   10  C13 UNL     1       2.999   0.950   4.948  1.00  0.00    -0.000 C 
HETATM   11  C14 UNL     1       3.347   2.370   4.565  1.00  0.00     0.019 C 
HETATM   12  C15 UNL     1       2.477  -0.689   8.170  1.00  0.00     0.132 C 
HETATM   13  O5  UNL     1       1.546  -1.475   8.366  1.00  0.00    -0.298 OA
HETATM   14  C16 UNL     1       3.620  -0.940   9.055  1.00  0.00     0.089 C 
HETATM   15  C17 UNL     1       4.810  -0.061   8.756  1.00  0.00     0.044 C 
ENDROOT
BRANCH  15  16
HETATM   16  C18 UNL     1       5.787  -0.083   9.875  1.00  0.00    -0.021 C 
HETATM   17  C19 UNL     1       6.782   0.775   9.994  1.00  0.00     0.002 C 
BRANCH  17  18
HETATM   18  C20 UNL     1       7.776   0.805  11.070  1.00  0.00     0.154 C 
BRANCH  18  19
HETATM   19  O6  UNL     1       7.150   0.503  12.285  1.00  0.00    -0.391 OA
ATOM     20  H6  UNL     1       7.549  -0.274  12.659  1.00  0.00     0.210 HD
ENDBRANCH  18  19
BRANCH  18  21
HETATM   21  C21 UNL     1       8.424   2.156  11.210  1.00  0.00     0.115 C 
HETATM   22  C22 UNL     1       9.442   2.370  10.108  1.00  0.00     0.024 C 
BRANCH  21  23
HETATM   23  C23 UNL     1       7.397   3.232  11.190  1.00  0.00     0.179 C 
HETATM   24  O7  UNL     1       7.572   4.215  10.439  1.00  0.00    -0.648 OA
HETATM   25  O8  UNL     1       6.276   3.144  11.985  1.00  0.00    -0.648 OA
ENDBRANCH  21  23
ENDBRANCH  18  21
ENDBRANCH  17  18
ENDBRANCH  15  16
BRANCH   1  26
HETATM   26  O2  UNL     1       3.249   1.740   9.183  1.00  0.00    -0.316 OA
BRANCH  26  27
HETATM   27  C2  UNL     1       3.057   2.911   9.861  1.00  0.00     0.255 C 
HETATM   28  C1  UNL     1       3.967   4.051   9.586  1.00  0.00     0.126 C 
HETATM   29  O1  UNL     1       2.113   2.965  10.694  1.00  0.00    -0.266 OA
ENDBRANCH  26  27
ENDBRANCH   1  26
BRANCH   6  30
HETATM   30  O3  UNL     1       0.807   1.865   5.338  1.00  0.00    -0.389 OA
ATOM     31  H3  UNL     1       0.114   2.051   4.715  1.00  0.00     0.210 HD
ENDBRANCH   6  30
BRANCH   9  32
HETATM   32  C12 UNL     1       4.653   0.431   3.207  1.00  0.00     0.092 C 
HETATM   33  N1  UNL     1       5.834   0.040   3.510  1.00  0.00    -0.284 N 
ATOM     34  H1  UNL     1       6.613   0.404   2.960  1.00  0.00     0.192 HD
BRANCH  33  35
HETATM   35  O4  UNL     1       6.119  -0.833   4.518  1.00  0.00    -0.291 OA
ATOM     36  H4  UNL     1       6.896  -0.784   5.063  1.00  0.00     0.244 HD
ENDBRANCH  33  35
ENDBRANCH   9  32
TORSDOF 10
ENDMDL
MODEL 3
REMARK VINA RESULT: -7.296757601      1.948      2.249
REMARK  10 active torsions:
REMARK  status: ('A' for Active; 'I' for Inactive)
REMARK    1  A    between atoms: C2_2  and  O2_4 
REMARK    2  A    between atoms: O2_4  and  C3_5 
REMARK    3  A    between atoms: C8_10  and  O3_11 
REMARK    4  A    between atoms: C11_15  and  C12_16 
REMARK    5  A    between atoms: N1_17  and  O4_19 
REMARK    6  A    between atoms: C17_26  and  C18_27 
REMARK    7  A    between atoms: C19_28  and  C20_29 
REMARK    8  A    between atoms: C20_29  and  O6_30 
REMARK    9  A    between atoms: C20_29  and  C21_32 
REMARK   10  A    between atoms: C21_32  and  C23_34 
ROOT
HETATM    1  C3  UNL     1       2.618   4.104   8.827  1.00  0.00     0.140 C 
HETATM    2  C4  UNL     1       1.986   4.112   7.452  1.00  0.00     0.039 C 
HETATM    3  C5  UNL     1       1.744   2.720   6.993  1.00  0.00     0.011 C 
HETATM    4  C6  UNL     1       1.115   1.838   8.059  1.00  0.00     0.063 C 
HETATM    5  C7  UNL     1       0.517   0.737   7.171  1.00  0.00     0.051 C 
HETATM    6  C8  UNL     1      -0.244   1.614   6.190  1.00  0.00     0.067 C 
HETATM    7  C9  UNL     1      -0.639   0.892   4.947  1.00  0.00     0.039 C 
HETATM    8  C10 UNL     1       0.606   0.884   4.126  1.00  0.00     0.013 C 
HETATM    9  C11 UNL     1       1.514   1.955   4.653  1.00  0.00     0.037 C 
HETATM   10  C13 UNL     1       0.825   2.616   5.808  1.00  0.00    -0.000 C 
HETATM   11  C14 UNL     1       0.210   3.946   5.432  1.00  0.00     0.019 C 
HETATM   12  C15 UNL     1       2.170   1.309   8.941  1.00  0.00     0.132 C 
HETATM   13  O5  UNL     1       1.924   0.167   9.339  1.00  0.00    -0.298 OA
HETATM   14  C16 UNL     1       3.445   1.821   9.458  1.00  0.00     0.089 C 
HETATM   15  C17 UNL     1       3.817   3.172   8.896  1.00  0.00     0.044 C 
ENDROOT
BRANCH  15  16
HETATM   16  C18 UNL     1       4.894   3.807   9.699  1.00  0.00    -0.021 C 
HETATM   17  C19 UNL     1       5.596   3.169  10.615  1.00  0.00     0.002 C 
BRANCH  17  18
HETATM   18  C20 UNL     1       6.667   3.737  11.438  1.00  0.00     0.154 C 
BRANCH  18  19
HETATM   19  O6  UNL     1       7.079   4.954  10.883  1.00  0.00    -0.391 OA
ATOM     20  H6  UNL     1       7.272   5.568  11.582  1.00  0.00     0.210 HD
ENDBRANCH  18  19
BRANCH  18  21
HETATM   21  C21 UNL     1       7.869   2.834  11.511  1.00  0.00     0.115 C 
HETATM   22  C22 UNL     1       7.692   1.643  10.592  1.00  0.00     0.024 C 
BRANCH  21  23
HETATM   23  C23 UNL     1       9.106   3.583  11.164  1.00  0.00     0.179 C 
HETATM   24  O7  UNL     1       9.414   3.709   9.959  1.00  0.00    -0.648 OA
HETATM   25  O8  UNL     1       9.895   4.126  12.152  1.00  0.00    -0.648 OA
ENDBRANCH  21  23
ENDBRANCH  18  21
ENDBRANCH  17  18
ENDBRANCH  15  16
BRANCH   1  26
HETATM   26  O2  UNL     1       1.698   3.854   9.849  1.00  0.00    -0.316 OA
BRANCH  26  27
HETATM   27  C2  UNL     1       1.276   4.746  10.794  1.00  0.00     0.255 C 
HETATM   28  C1  UNL     1       2.205   5.113  11.893  1.00  0.00     0.126 C 
HETATM   29  O1  UNL     1       0.111   5.216  10.687  1.00  0.00    -0.266 OA
ENDBRANCH  26  27
ENDBRANCH   1  26
BRANCH   6  30
HETATM   30  O3  UNL     1      -1.310   2.214   6.845  1.00  0.00    -0.389 OA
ATOM     31  H3  UNL     1      -1.026   2.504   7.704  1.00  0.00     0.210 HD
ENDBRANCH   6  30
BRANCH   9  32
HETATM   32  C12 UNL     1       1.959   2.910   3.649  1.00  0.00     0.092 C 
HETATM   33  N1  UNL     1       3.180   3.297   3.614  1.00  0.00    -0.284 N 
ATOM     34  H1  UNL     1       3.447   3.968   2.894  1.00  0.00     0.192 HD
BRANCH  33  35
HETATM   35  O4  UNL     1       4.145   2.871   4.478  1.00  0.00    -0.291 OA
ATOM     36  H4  UNL     1       5.062   3.113   4.417  1.00  0.00     0.244 HD
ENDBRANCH  33  35
ENDBRANCH   9  32
TORSDOF 10
ENDMDL
MODEL 4
REMARK VINA RESULT: -7.270209687      1.008      1.181
REMARK  10 active torsions:
REMARK  status: ('A' for Active; 'I' for Inactive)
REMARK    1  A    between atoms: C2_2  and  O2_4 
REMARK    2  A    between atoms: O2_4  and  C3_5 
REMARK    3  A    between atoms: C8_10  and  O3_11 
REMARK    4  A    between atoms: C11_15  and  C12_16 
REMARK    5  A    between atoms: N1_17  and  O4_19 
REMARK    6  A    between atoms: C17_26  and  C18_27 
REMARK    7  A    between atoms: C19_28  and  C20_29 
REMARK    8  A    between atoms: C20_29  and  O6_30 
REMARK    9  A    between atoms: C20_29  and  C21_32 
REMARK   10  A    between atoms: C21_32  and  C23_34 
ROOT
HETATM    1  C3  UNL     1       3.567   3.170   7.967  1.00  0.00     0.140 C 
HETATM    2  C4  UNL     1       3.588   2.874   6.483  1.00  0.00     0.039 C 
HETATM    3  C5  UNL     1       2.786   1.657   6.193  1.00  0.00     0.011 C 
HETATM    4  C6  UNL     1       1.441   1.642   6.902  1.00  0.00     0.063 C 
HETATM    5  C7  UNL     1       0.691   0.632   6.021  1.00  0.00     0.051 C 
HETATM    6  C8  UNL     1       0.965   1.256   4.663  1.00  0.00     0.067 C 
HETATM    7  C9  UNL     1       0.705   0.324   3.528  1.00  0.00     0.039 C 
HETATM    8  C10 UNL     1       1.921  -0.538   3.488  1.00  0.00     0.013 C 
HETATM    9  C11 UNL     1       3.015   0.169   4.232  1.00  0.00     0.037 C 
HETATM   10  C13 UNL     1       2.463   1.467   4.738  1.00  0.00    -0.000 C 
HETATM   11  C14 UNL     1       2.887   2.646   3.891  1.00  0.00     0.019 C 
HETATM   12  C15 UNL     1       1.618   1.137   8.275  1.00  0.00     0.132 C 
HETATM   13  O5  UNL     1       0.650   0.477   8.663  1.00  0.00    -0.298 OA
HETATM   14  C16 UNL     1       2.674   1.234   9.290  1.00  0.00     0.089 C 
HETATM   15  C17 UNL     1       3.911   1.944   8.796  1.00  0.00     0.044 C 
ENDROOT
BRANCH  15  16
HETATM   16  C18 UNL     1       4.788   2.340   9.929  1.00  0.00    -0.021 C 
HETATM   17  C19 UNL     1       5.786   3.196   9.816  1.00  0.00     0.002 C 
BRANCH  17  18
HETATM   18  C20 UNL     1       6.684   3.626  10.890  1.00  0.00     0.154 C 
BRANCH  18  19
HETATM   19  O6  UNL     1       6.810   5.019  10.858  1.00  0.00    -0.391 OA
ATOM     20  H6  UNL     1       6.590   5.334   9.989  1.00  0.00     0.210 HD
ENDBRANCH  18  19
BRANCH  18  21
HETATM   21  C21 UNL     1       8.062   3.036  10.751  1.00  0.00     0.115 C 
HETATM   22  C22 UNL     1       9.038   3.756  11.659  1.00  0.00     0.024 C 
BRANCH  21  23
HETATM   23  C23 UNL     1       8.040   1.580  11.054  1.00  0.00     0.179 C 
HETATM   24  O7  UNL     1       8.636   0.797  10.284  1.00  0.00    -0.648 OA
HETATM   25  O8  UNL     1       7.375   1.107  12.162  1.00  0.00    -0.648 OA
ENDBRANCH  21  23
ENDBRANCH  18  21
ENDBRANCH  17  18
ENDBRANCH  15  16
BRANCH   1  26
HETATM   26  O2  UNL     1       2.377   3.771   8.386  1.00  0.00    -0.316 OA
BRANCH  26  27
HETATM   27  C2  UNL     1       2.231   5.056   8.828  1.00  0.00     0.255 C 
HETATM   28  C1  UNL     1       1.868   5.284  10.249  1.00  0.00     0.126 C 
HETATM   29  O1  UNL     1       2.411   5.990   8.001  1.00  0.00    -0.266 OA
ENDBRANCH  26  27
ENDBRANCH   1  26
BRANCH   6  30
HETATM   30  O3  UNL     1       0.276   2.456   4.563  1.00  0.00    -0.389 OA
ATOM     31  H3  UNL     1       0.730   3.029   3.956  1.00  0.00     0.210 HD
ENDBRANCH   6  30
BRANCH   9  32
HETATM   32  C12 UNL     1       4.242   0.345   3.468  1.00  0.00     0.092 C 
HETATM   33  N1  UNL     1       5.367  -0.031   3.950  1.00  0.00    -0.284 N 
ATOM     34  H1  UNL     1       6.202   0.112   3.380  1.00  0.00     0.192 HD
BRANCH  33  35
HETATM   35  O4  UNL     1       5.524  -0.610   5.174  1.00  0.00    -0.291 OA
ATOM     36  H4  UNL     1       6.290  -1.107   5.437  1.00  0.00     0.244 HD
ENDBRANCH  33  35
ENDBRANCH   9  32
TORSDOF 10
ENDMDL
MODEL 5
REMARK VINA RESULT: -7.190212343      1.251      1.339
REMARK  10 active torsions:
REMARK  status: ('A' for Active; 'I' for Inactive)
REMARK    1  A    between atoms: C2_2  and  O2_4 
REMARK    2  A    between atoms: O2_4  and  C3_5 
REMARK    3  A    between atoms: C8_10  and  O3_11 
REMARK    4  A    between atoms: C11_15  and  C12_16 
REMARK    5  A    between atoms: N1_17  and  O4_19 
REMARK    6  A    between atoms: C17_26  and  C18_27 
REMARK    7  A    between atoms: C19_28  and  C20_29 
REMARK    8  A    between atoms: C20_29  and  O6_30 
REMARK    9  A    between atoms: C20_29  and  C21_32 
REMARK   10  A    between atoms: C21_32  and  C23_34 
ROOT
HETATM    1  C3  UNL     1       3.317   3.415   7.817  1.00  0.00     0.140 C 
HETATM    2  C4  UNL     1       3.138   3.316   6.317  1.00  0.00     0.039 C 
HETATM    3  C5  UNL     1       3.061   1.891   5.904  1.00  0.00     0.011 C 
HETATM    4  C6  UNL     1       2.144   1.060   6.786  1.00  0.00     0.063 C 
HETATM    5  C7  UNL     1       1.858  -0.113   5.837  1.00  0.00     0.051 C 
HETATM    6  C8  UNL     1       1.427   0.676   4.611  1.00  0.00     0.067 C 
HETATM    7  C9  UNL     1       1.439  -0.135   3.360  1.00  0.00     0.039 C 
HETATM    8  C10 UNL     1       2.876  -0.157   2.962  1.00  0.00     0.013 C 
HETATM    9  C11 UNL     1       3.568   0.972   3.665  1.00  0.00     0.037 C 
HETATM   10  C13 UNL     1       2.552   1.684   4.505  1.00  0.00    -0.000 C 
HETATM   11  C14 UNL     1       2.070   2.968   3.867  1.00  0.00     0.019 C 
HETATM   12  C15 UNL     1       2.882   0.620   7.983  1.00  0.00     0.132 C 
HETATM   13  O5  UNL     1       2.537  -0.501   8.365  1.00  0.00    -0.298 OA
HETATM   14  C16 UNL     1       3.932   1.202   8.828  1.00  0.00     0.089 C 
HETATM   15  C17 UNL     1       4.445   2.525   8.314  1.00  0.00     0.044 C 
ENDROOT
BRANCH  15  16
HETATM   16  C18 UNL     1       5.219   3.242   9.361  1.00  0.00    -0.021 C 
HETATM   17  C19 UNL     1       5.935   2.634  10.286  1.00  0.00     0.002 C 
BRANCH  17  18
HETATM   18  C20 UNL     1       6.717   3.281  11.342  1.00  0.00     0.154 C 
BRANCH  18  19
HETATM   19  O6  UNL     1       6.943   4.618  10.996  1.00  0.00    -0.391 OA
ATOM     20  H6  UNL     1       7.813   4.873  11.278  1.00  0.00     0.210 HD
ENDBRANCH  18  19
BRANCH  18  21
HETATM   21  C21 UNL     1       8.056   2.626  11.544  1.00  0.00     0.115 C 
HETATM   22  C22 UNL     1       8.163   1.372  10.701  1.00  0.00     0.024 C 
BRANCH  21  23
HETATM   23  C23 UNL     1       9.155   3.573  11.216  1.00  0.00     0.179 C 
HETATM   24  O7  UNL     1       9.424   3.789  10.015  1.00  0.00    -0.648 OA
HETATM   25  O8  UNL     1       9.862   4.198  12.218  1.00  0.00    -0.648 OA
ENDBRANCH  21  23
ENDBRANCH  18  21
ENDBRANCH  17  18
ENDBRANCH  15  16
BRANCH   1  26
HETATM   26  O2  UNL     1       2.130   3.202   8.523  1.00  0.00    -0.316 OA
BRANCH  26  27
HETATM   27  C2  UNL     1       1.437   4.137   9.240  1.00  0.00     0.255 C 
HETATM   28  C1  UNL     1       2.066   5.459   9.484  1.00  0.00     0.126 C 
HETATM   29  O1  UNL     1       0.291   3.827   9.664  1.00  0.00    -0.266 OA
ENDBRANCH  26  27
ENDBRANCH   1  26
BRANCH   6  30
HETATM   30  O3  UNL     1       0.206   1.285   4.865  1.00  0.00    -0.389 OA
ATOM     31  H3  UNL     1      -0.481   0.628   4.847  1.00  0.00     0.210 HD
ENDBRANCH   6  30
BRANCH   9  32
HETATM   32  C12 UNL     1       4.292   1.875   2.781  1.00  0.00     0.092 C 
HETATM   33  N1  UNL     1       5.529   1.675   2.518  1.00  0.00    -0.284 N 
ATOM     34  H1  UNL     1       5.996   2.333   1.894  1.00  0.00     0.192 HD
BRANCH  33  35
HETATM   35  O4  UNL     1       6.263   0.640   3.018  1.00  0.00    -0.291 OA
ATOM     36  H4  UNL     1       7.006   0.248   2.574  1.00  0.00     0.244 HD
ENDBRANCH  33  35
ENDBRANCH   9  32
TORSDOF 10
ENDMDL
