MODEL 1
REMARK VINA RESULT: -7.650143198      0.000      0.000
REMARK  15 active torsions:
REMARK  status: ('A' for Active; 'I' for Inactive)
REMARK    1  A    between atoms: C5_6  and  C6_7 
REMARK    2  A    between atoms: C7_8  and  C8_9 
REMARK    3  A    between atoms: C8_9  and  C10_11 
REMARK    4  A    between atoms: C8_9  and  C14_24 
REMARK    5  A    between atoms: C11_12  and  C12_13 
REMARK    6  A    between atoms: C12_13  and  C13_14 
REMARK    7  A    between atoms: C13_14  and  N2_15 
REMARK    8  A    between atoms: N2_15  and  O1_17 
REMARK    9  A    between atoms: N3_19  and  N4_21 
REMARK   10  A    between atoms: C14_24  and  C15_25 
REMARK   11  A    between atoms: C15_25  and  C16_26 
REMARK   12  A    between atoms: C16_26  and  N5_27 
REMARK       I    between atoms: N5_27  and  C17_29 
REMARK       I    between atoms: N7_31  and  C18_33 
REMARK   13  A    between atoms: N9_35  and  C19_37 
REMARK   14  A    between atoms: C19_37  and  C20_38 
REMARK   15  A    between atoms: C20_38  and  N10_39 
ROOT
HETATM    1  C8  UNL     1      13.421 -14.178  20.534  1.00  0.00    -0.009 C 
HETATM    2  C9  UNL     1      13.499 -14.914  21.815  1.00  0.00     0.024 C 
ENDROOT
BRANCH   1   3
HETATM    3  C7  UNL     1      12.404 -14.633  19.559  1.00  0.00    -0.013 C 
HETATM    4  C6  UNL     1      11.833 -15.701  19.191  1.00  0.00     0.010 C 
BRANCH   4   5
HETATM    5  C5  UNL     1      11.759 -17.100  19.422  1.00  0.00    -0.021 A 
HETATM    6  C4  UNL     1      12.094 -17.717  20.577  1.00  0.00     0.014 A 
HETATM    7  C3  UNL     1      12.069 -19.122  20.687  1.00  0.00     0.018 A 
HETATM    8  C2  UNL     1      11.701 -19.844  19.606  1.00  0.00     0.090 A 
HETATM    9  N1  UNL     1      11.358 -19.281  18.439  1.00  0.00    -0.370 N 
HETATM   10  C1  UNL     1      10.981 -20.116  17.301  1.00  0.00     0.154 C 
HETATM   11  C24 UNL     1      11.391 -17.949  18.366  1.00  0.00     0.101 A 
ENDBRANCH   4   5
ENDBRANCH   1   3
BRANCH   1  12
HETATM   12  C10 UNL     1      13.328 -12.690  20.731  1.00  0.00    -0.011 C 
HETATM   13  C11 UNL     1      13.104 -12.078  21.843  1.00  0.00     0.029 C 
BRANCH  13  14
HETATM   14  C12 UNL     1      13.014 -10.604  22.029  1.00  0.00     0.064 C 
HETATM   15  N3  UNL     1      13.834  -9.950  21.363  1.00  0.00    -0.306 N 
ATOM     16  H3  UNL     1      14.344 -10.679  20.863  1.00  0.00     0.186 HD
BRANCH  14  17
HETATM   17  C13 UNL     1      12.045 -10.116  22.915  1.00  0.00     0.144 C 
BRANCH  17  18
HETATM   18  N2  UNL     1      12.128  -9.127  23.715  1.00  0.00    -0.278 N 
ATOM     19  H2  UNL     1      11.424  -9.027  24.446  1.00  0.00     0.193 HD
BRANCH  18  20
HETATM   20  O1  UNL     1      13.121  -8.199  23.630  1.00  0.00    -0.290 OA
ATOM     21  H1  UNL     1      13.650  -7.948  24.378  1.00  0.00     0.244 HD
ENDBRANCH  18  20
ENDBRANCH  17  18
ENDBRANCH  14  17
BRANCH  15  22
HETATM   22  N4  UNL     1      14.384  -8.916  20.962  1.00  0.00    -0.345 N 
ATOM     23  H42 UNL     1      14.852  -8.621  21.819  1.00  0.00     0.176 HD
ATOM     24  H41 UNL     1      14.626  -8.207  20.270  1.00  0.00     0.176 HD
ENDBRANCH  15  22
ENDBRANCH  13  14
ENDBRANCH   1  12
BRANCH   1  25
HETATM   25  C14 UNL     1      14.769 -14.397  19.794  1.00  0.00     0.019 C 
BRANCH  25  26
HETATM   26  C15 UNL     1      15.627 -15.477  20.322  1.00  0.00     0.021 C 
BRANCH  26  27
HETATM   27  C16 UNL     1      16.686 -14.826  21.226  1.00  0.00     0.122 C 
BRANCH  27  28
HETATM   28  N5  UNL     1      17.335 -13.766  20.539  1.00  0.00    -0.364 N 
HETATM   29  C17 UNL     1      17.538 -12.505  21.131  1.00  0.00     0.190 C 
HETATM   30  N6  UNL     1      16.541 -11.506  21.210  1.00  0.00    -0.063 NA
HETATM   31  N7  UNL     1      18.726 -12.247  21.632  1.00  0.00    -0.305 N 
HETATM   32  C18 UNL     1      19.774 -13.184  21.588  1.00  0.00     0.190 C 
ATOM     33  H7  UNL     1      18.892 -11.338  22.066  1.00  0.00     0.171 HD
HETATM   34  N8  UNL     1      20.142 -13.788  20.351  1.00  0.00    -0.063 NA
HETATM   35  N9  UNL     1      20.431 -13.529  22.620  1.00  0.00    -0.363 N 
ATOM     36  H9  UNL     1      21.176 -14.216  22.503  1.00  0.00     0.162 HD
ATOM     37  H5  UNL     1      17.664 -13.923  19.586  1.00  0.00     0.162 HD
BRANCH  35  38
HETATM   38  C19 UNL     1      20.188 -13.008  23.960  1.00  0.00     0.150 C 
BRANCH  38  39
HETATM   39  C20 UNL     1      19.474 -14.049  24.750  1.00  0.00     0.255 C 
BRANCH  39  40
HETATM   40  N10 UNL     1      20.198 -14.596  25.865  1.00  0.00    -0.077 N 
HETATM   41  C21 UNL     1      21.217 -15.528  25.476  1.00  0.00     0.271 C 
HETATM   42  C22 UNL     1      20.769 -13.587  26.709  1.00  0.00     0.271 C 
HETATM   43  C23 UNL     1      19.214 -15.325  26.674  1.00  0.00     0.271 C 
ENDBRANCH  39  40
ENDBRANCH  38  39
ENDBRANCH  35  38
ENDBRANCH  27  28
ENDBRANCH  26  27
ENDBRANCH  25  26
ENDBRANCH   1  25
TORSDOF 15
ENDMDL
MODEL 2
REMARK VINA RESULT: -7.637898789      1.331      2.092
REMARK  15 active torsions:
REMARK  status: ('A' for Active; 'I' for Inactive)
REMARK    1  A    between atoms: C5_6  and  C6_7 
REMARK    2  A    between atoms: C7_8  and  C8_9 
REMARK    3  A    between atoms: C8_9  and  C10_11 
REMARK    4  A    between atoms: C8_9  and  C14_24 
REMARK    5  A    between atoms: C11_12  and  C12_13 
REMARK    6  A    between atoms: C12_13  and  C13_14 
REMARK    7  A    between atoms: C13_14  and  N2_15 
REMARK    8  A    between atoms: N2_15  and  O1_17 
REMARK    9  A    between atoms: N3_19  and  N4_21 
REMARK   10  A    between atoms: C14_24  and  C15_25 
REMARK   11  A    between atoms: C15_25  and  C16_26 
REMARK   12  A    between atoms: C16_26  and  N5_27 
REMARK       I    between atoms: N5_27  and  C17_29 
REMARK       I    between atoms: N7_31  and  C18_33 
REMARK   13  A    between atoms: N9_35  and  C19_37 
REMARK   14  A    between atoms: C19_37  and  C20_38 
REMARK   15  A    between atoms: C20_38  and  N10_39 
ROOT
HETATM    1  C8  UNL     1      14.370 -13.645  20.771  1.00  0.00    -0.009 C 
HETATM    2  C9  UNL     1      14.988 -14.788  21.478  1.00  0.00     0.024 C 
ENDROOT
BRANCH   1   3
HETATM    3  C7  UNL     1      13.394 -13.962  19.704  1.00  0.00    -0.013 C 
HETATM    4  C6  UNL     1      12.734 -14.949  19.266  1.00  0.00     0.010 C 
BRANCH   4   5
HETATM    5  C5  UNL     1      12.474 -16.331  19.460  1.00  0.00    -0.021 A 
HETATM    6  C4  UNL     1      12.179 -16.909  20.645  1.00  0.00     0.014 A 
HETATM    7  C3  UNL     1      12.019 -18.305  20.757  1.00  0.00     0.018 A 
HETATM    8  C2  UNL     1      12.169 -19.059  19.645  1.00  0.00     0.090 A 
HETATM    9  N1  UNL     1      12.459 -18.535  18.447  1.00  0.00    -0.370 N 
HETATM   10  C1  UNL     1      12.621 -19.404  17.283  1.00  0.00     0.154 C 
HETATM   11  C24 UNL     1      12.604 -17.210  18.373  1.00  0.00     0.101 A 
ENDBRANCH   4   5
ENDBRANCH   1   3
BRANCH   1  12
HETATM   12  C10 UNL     1      13.796 -12.626  21.719  1.00  0.00    -0.011 C 
HETATM   13  C11 UNL     1      12.642 -12.060  21.627  1.00  0.00     0.029 C 
BRANCH  13  14
HETATM   14  C12 UNL     1      12.082 -11.053  22.570  1.00  0.00     0.064 C 
HETATM   15  N3  UNL     1      11.377 -11.532  23.473  1.00  0.00    -0.306 N 
ATOM     16  H3  UNL     1      11.407 -12.532  23.272  1.00  0.00     0.186 HD
BRANCH  14  17
HETATM   17  C13 UNL     1      12.395  -9.706  22.347  1.00  0.00     0.144 C 
BRANCH  17  18
HETATM   18  N2  UNL     1      12.690  -8.809  23.203  1.00  0.00    -0.278 N 
ATOM     19  H2  UNL     1      13.414  -8.130  22.972  1.00  0.00     0.193 HD
BRANCH  18  20
HETATM   20  O1  UNL     1      12.074  -8.723  24.414  1.00  0.00    -0.290 OA
ATOM     21  H1  UNL     1      11.982  -7.901  24.882  1.00  0.00     0.244 HD
ENDBRANCH  18  20
ENDBRANCH  17  18
ENDBRANCH  14  17
BRANCH  15  22
HETATM   22  N4  UNL     1      10.657 -11.483  24.480  1.00  0.00    -0.345 N 
ATOM     23  H42 UNL     1      10.214 -10.575  24.336  1.00  0.00     0.176 HD
ATOM     24  H41 UNL     1      10.267 -11.833  25.354  1.00  0.00     0.176 HD
ENDBRANCH  15  22
ENDBRANCH  13  14
ENDBRANCH   1  12
BRANCH   1  25
HETATM   25  C14 UNL     1      15.507 -12.895  20.024  1.00  0.00     0.019 C 
BRANCH  25  26
HETATM   26  C15 UNL     1      15.976 -11.643  20.654  1.00  0.00     0.021 C 
BRANCH  26  27
HETATM   27  C16 UNL     1      17.402 -11.894  21.172  1.00  0.00     0.122 C 
BRANCH  27  28
HETATM   28  N5  UNL     1      18.085 -12.797  20.315  1.00  0.00    -0.364 N 
HETATM   29  C17 UNL     1      19.489 -12.814  20.214  1.00  0.00     0.190 C 
HETATM   30  N6  UNL     1      20.230 -11.902  19.428  1.00  0.00    -0.063 NA
HETATM   31  N7  UNL     1      20.141 -13.736  20.888  1.00  0.00    -0.305 N 
HETATM   32  C18 UNL     1      19.479 -14.684  21.688  1.00  0.00     0.190 C 
ATOM     33  H7  UNL     1      21.159 -13.764  20.828  1.00  0.00     0.171 HD
HETATM   34  N8  UNL     1      18.419 -15.465  21.143  1.00  0.00    -0.063 NA
HETATM   35  N9  UNL     1      19.784 -14.890  22.905  1.00  0.00    -0.363 N 
ATOM     36  H9  UNL     1      19.253 -15.595  23.417  1.00  0.00     0.162 HD
ATOM     37  H5  UNL     1      17.541 -13.453  19.754  1.00  0.00     0.162 HD
BRANCH  35  38
HETATM   38  C19 UNL     1      20.841 -14.182  23.617  1.00  0.00     0.150 C 
BRANCH  38  39
HETATM   39  C20 UNL     1      20.269 -13.611  24.868  1.00  0.00     0.255 C 
BRANCH  39  40
HETATM   40  N10 UNL     1      20.536 -14.349  26.073  1.00  0.00    -0.077 N 
HETATM   41  C21 UNL     1      19.399 -15.083  26.549  1.00  0.00     0.271 C 
HETATM   42  C22 UNL     1      21.659 -15.232  25.950  1.00  0.00     0.271 C 
HETATM   43  C23 UNL     1      20.882 -13.353  27.094  1.00  0.00     0.271 C 
ENDBRANCH  39  40
ENDBRANCH  38  39
ENDBRANCH  35  38
ENDBRANCH  27  28
ENDBRANCH  26  27
ENDBRANCH  25  26
ENDBRANCH   1  25
TORSDOF 15
ENDMDL
MODEL 3
REMARK VINA RESULT: -7.500818818      2.304      5.154
REMARK  15 active torsions:
REMARK  status: ('A' for Active; 'I' for Inactive)
REMARK    1  A    between atoms: C5_6  and  C6_7 
REMARK    2  A    between atoms: C7_8  and  C8_9 
REMARK    3  A    between atoms: C8_9  and  C10_11 
REMARK    4  A    between atoms: C8_9  and  C14_24 
REMARK    5  A    between atoms: C11_12  and  C12_13 
REMARK    6  A    between atoms: C12_13  and  C13_14 
REMARK    7  A    between atoms: C13_14  and  N2_15 
REMARK    8  A    between atoms: N2_15  and  O1_17 
REMARK    9  A    between atoms: N3_19  and  N4_21 
REMARK   10  A    between atoms: C14_24  and  C15_25 
REMARK   11  A    between atoms: C15_25  and  C16_26 
REMARK   12  A    between atoms: C16_26  and  N5_27 
REMARK       I    between atoms: N5_27  and  C17_29 
REMARK       I    between atoms: N7_31  and  C18_33 
REMARK   13  A    between atoms: N9_35  and  C19_37 
REMARK   14  A    between atoms: C19_37  and  C20_38 
REMARK   15  A    between atoms: C20_38  and  N10_39 
ROOT
HETATM    1  C8  UNL     1      13.537 -14.703  20.982  1.00  0.00    -0.009 C 
HETATM    2  C9  UNL     1      12.442 -15.657  20.699  1.00  0.00     0.024 C 
ENDROOT
BRANCH   1   3
HETATM    3  C7  UNL     1      14.293 -14.184  19.820  1.00  0.00    -0.013 C 
HETATM    4  C6  UNL     1      15.393 -13.612  19.564  1.00  0.00     0.010 C 
BRANCH   4   5
HETATM    5  C5  UNL     1      16.583 -13.103  20.147  1.00  0.00    -0.021 A 
HETATM    6  C4  UNL     1      16.865 -11.793  20.324  1.00  0.00     0.014 A 
HETATM    7  C3  UNL     1      18.111 -11.377  20.835  1.00  0.00     0.018 A 
HETATM    8  C2  UNL     1      19.024 -12.324  21.147  1.00  0.00     0.090 A 
HETATM    9  N1  UNL     1      18.794 -13.634  20.992  1.00  0.00    -0.370 N 
HETATM   10  C1  UNL     1      19.827 -14.610  21.335  1.00  0.00     0.154 C 
HETATM   11  C24 UNL     1      17.604 -13.996  20.506  1.00  0.00     0.101 A 
ENDBRANCH   4   5
ENDBRANCH   1   3
BRANCH   1  12
HETATM   12  C10 UNL     1      13.097 -13.570  21.868  1.00  0.00    -0.011 C 
HETATM   13  C11 UNL     1      12.542 -12.472  21.487  1.00  0.00     0.029 C 
BRANCH  13  14
HETATM   14  C12 UNL     1      12.109 -11.355  22.371  1.00  0.00     0.064 C 
HETATM   15  N3  UNL     1      11.334 -11.692  23.282  1.00  0.00    -0.306 N 
ATOM     16  H3  UNL     1      11.233 -12.695  23.127  1.00  0.00     0.186 HD
BRANCH  14  17
HETATM   17  C13 UNL     1      12.602 -10.073  22.093  1.00  0.00     0.144 C 
BRANCH  17  18
HETATM   18  N2  UNL     1      12.828  -9.117  22.906  1.00  0.00    -0.278 N 
ATOM     19  H2  UNL     1      13.565  -8.449  22.683  1.00  0.00     0.193 HD
BRANCH  18  20
HETATM   20  O1  UNL     1      12.122  -8.956  24.059  1.00  0.00    -0.290 OA
ATOM     21  H1  UNL     1      11.293  -8.493  24.089  1.00  0.00     0.244 HD
ENDBRANCH  18  20
ENDBRANCH  17  18
ENDBRANCH  14  17
BRANCH  15  22
HETATM   22  N4  UNL     1      10.614 -11.499  24.271  1.00  0.00    -0.345 N 
ATOM     23  H42 UNL     1      10.813 -12.348  24.801  1.00  0.00     0.176 HD
ATOM     24  H41 UNL     1       9.948 -10.979  24.841  1.00  0.00     0.176 HD
ENDBRANCH  15  22
ENDBRANCH  13  14
ENDBRANCH   1  12
BRANCH   1  25
HETATM   25  C14 UNL     1      14.608 -15.463  21.812  1.00  0.00     0.019 C 
BRANCH  25  26
HETATM   26  C15 UNL     1      14.719 -16.912  21.548  1.00  0.00     0.021 C 
BRANCH  26  27
HETATM   27  C16 UNL     1      16.122 -17.171  20.974  1.00  0.00     0.122 C 
BRANCH  27  28
HETATM   28  N5  UNL     1      16.814 -18.117  21.777  1.00  0.00    -0.364 N 
HETATM   29  C17 UNL     1      18.181 -17.977  22.085  1.00  0.00     0.190 C 
HETATM   30  N6  UNL     1      19.224 -18.338  21.203  1.00  0.00    -0.063 NA
HETATM   31  N7  UNL     1      18.497 -17.486  23.263  1.00  0.00    -0.305 N 
HETATM   32  C18 UNL     1      17.518 -17.108  24.201  1.00  0.00     0.190 C 
ATOM     33  H7  UNL     1      19.482 -17.376  23.505  1.00  0.00     0.171 HD
HETATM   34  N8  UNL     1      16.490 -18.023  24.570  1.00  0.00    -0.063 NA
HETATM   35  N9  UNL     1      17.502 -15.964  24.754  1.00  0.00    -0.363 N 
ATOM     36  H9  UNL     1      16.758 -15.768  25.423  1.00  0.00     0.162 HD
ATOM     37  H5  UNL     1      16.305 -18.923  22.140  1.00  0.00     0.162 HD
BRANCH  35  38
HETATM   38  C19 UNL     1      18.479 -14.913  24.494  1.00  0.00     0.150 C 
BRANCH  38  39
HETATM   39  C20 UNL     1      19.390 -14.812  25.667  1.00  0.00     0.255 C 
BRANCH  39  40
HETATM   40  N10 UNL     1      20.576 -14.024  25.474  1.00  0.00    -0.077 N 
HETATM   41  C21 UNL     1      21.701 -14.796  25.030  1.00  0.00     0.271 C 
HETATM   42  C22 UNL     1      20.373 -12.918  24.584  1.00  0.00     0.271 C 
HETATM   43  C23 UNL     1      20.913 -13.462  26.787  1.00  0.00     0.271 C 
ENDBRANCH  39  40
ENDBRANCH  38  39
ENDBRANCH  35  38
ENDBRANCH  27  28
ENDBRANCH  26  27
ENDBRANCH  25  26
ENDBRANCH   1  25
TORSDOF 15
ENDMDL
MODEL 4
REMARK VINA RESULT: -7.407688958      2.256      8.619
REMARK  15 active torsions:
REMARK  status: ('A' for Active; 'I' for Inactive)
REMARK    1  A    between atoms: C5_6  and  C6_7 
REMARK    2  A    between atoms: C7_8  and  C8_9 
REMARK    3  A    between atoms: C8_9  and  C10_11 
REMARK    4  A    between atoms: C8_9  and  C14_24 
REMARK    5  A    between atoms: C11_12  and  C12_13 
REMARK    6  A    between atoms: C12_13  and  C13_14 
REMARK    7  A    between atoms: C13_14  and  N2_15 
REMARK    8  A    between atoms: N2_15  and  O1_17 
REMARK    9  A    between atoms: N3_19  and  N4_21 
REMARK   10  A    between atoms: C14_24  and  C15_25 
REMARK   11  A    between atoms: C15_25  and  C16_26 
REMARK   12  A    between atoms: C16_26  and  N5_27 
REMARK       I    between atoms: N5_27  and  C17_29 
REMARK       I    between atoms: N7_31  and  C18_33 
REMARK   13  A    between atoms: N9_35  and  C19_37 
REMARK   14  A    between atoms: C19_37  and  C20_38 
REMARK   15  A    between atoms: C20_38  and  N10_39 
ROOT
HETATM    1  C8  UNL     1      17.407 -13.631  21.428  1.00  0.00    -0.009 C 
HETATM    2  C9  UNL     1      18.555 -12.898  20.850  1.00  0.00     0.024 C 
ENDROOT
BRANCH   1   3
HETATM    3  C7  UNL     1      17.697 -14.565  22.539  1.00  0.00    -0.013 C 
HETATM    4  C6  UNL     1      18.559 -14.741  23.449  1.00  0.00     0.010 C 
BRANCH   4   5
HETATM    5  C5  UNL     1      19.756 -14.222  24.010  1.00  0.00    -0.021 A 
HETATM    6  C4  UNL     1      19.885 -13.002  24.577  1.00  0.00     0.014 A 
HETATM    7  C3  UNL     1      21.134 -12.537  25.033  1.00  0.00     0.018 A 
HETATM    8  C2  UNL     1      22.210 -13.343  24.890  1.00  0.00     0.090 A 
HETATM    9  N1  UNL     1      22.135 -14.562  24.337  1.00  0.00    -0.370 N 
HETATM   10  C1  UNL     1      23.336 -15.383  24.198  1.00  0.00     0.154 C 
HETATM   11  C24 UNL     1      20.937 -14.974  23.916  1.00  0.00     0.101 A 
ENDBRANCH   4   5
ENDBRANCH   1   3
BRANCH   1  12
HETATM   12  C10 UNL     1      16.270 -12.717  21.797  1.00  0.00    -0.011 C 
HETATM   13  C11 UNL     1      15.271 -12.399  21.048  1.00  0.00     0.029 C 
BRANCH  13  14
HETATM   14  C12 UNL     1      14.149 -11.494  21.421  1.00  0.00     0.064 C 
HETATM   15  N3  UNL     1      13.246 -12.038  22.078  1.00  0.00    -0.306 N 
ATOM     16  H3  UNL     1      13.581 -12.998  22.162  1.00  0.00     0.186 HD
BRANCH  14  17
HETATM   17  C13 UNL     1      14.221 -10.159  21.002  1.00  0.00     0.144 C 
BRANCH  17  18
HETATM   18  N2  UNL     1      13.284  -9.416  20.559  1.00  0.00    -0.278 N 
ATOM     19  H2  UNL     1      13.452  -8.863  19.719  1.00  0.00     0.193 HD
BRANCH  18  20
HETATM   20  O1  UNL     1      12.068  -9.332  21.165  1.00  0.00    -0.290 OA
ATOM     21  H1  UNL     1      11.828  -8.608  21.730  1.00  0.00     0.244 HD
ENDBRANCH  18  20
ENDBRANCH  17  18
ENDBRANCH  14  17
BRANCH  15  22
HETATM   22  N4  UNL     1      12.169 -12.076  22.689  1.00  0.00    -0.345 N 
ATOM     23  H42 UNL     1      11.890 -11.097  22.613  1.00  0.00     0.176 HD
ATOM     24  H41 UNL     1      11.421 -12.526  23.214  1.00  0.00     0.176 HD
ENDBRANCH  15  22
ENDBRANCH  13  14
ENDBRANCH   1  12
BRANCH   1  25
HETATM   25  C14 UNL     1      16.834 -14.546  20.312  1.00  0.00     0.019 C 
BRANCH  25  26
HETATM   26  C15 UNL     1      16.686 -15.974  20.662  1.00  0.00     0.021 C 
BRANCH  26  27
HETATM   27  C16 UNL     1      15.316 -16.438  20.140  1.00  0.00     0.122 C 
BRANCH  27  28
HETATM   28  N5  UNL     1      14.350 -16.384  21.180  1.00  0.00    -0.364 N 
HETATM   29  C17 UNL     1      13.009 -16.032  20.936  1.00  0.00     0.190 C 
HETATM   30  N6  UNL     1      12.562 -14.698  20.795  1.00  0.00    -0.063 NA
HETATM   31  N7  UNL     1      12.127 -17.002  20.840  1.00  0.00    -0.305 N 
HETATM   32  C18 UNL     1      12.489 -18.355  20.975  1.00  0.00     0.190 C 
ATOM     33  H7  UNL     1      11.150 -16.767  20.663  1.00  0.00     0.171 HD
HETATM   34  N8  UNL     1      13.226 -18.788  22.114  1.00  0.00    -0.063 NA
HETATM   35  N9  UNL     1      12.183 -19.237  20.112  1.00  0.00    -0.363 N 
ATOM     36  H9  UNL     1      12.484 -20.197  20.284  1.00  0.00     0.162 HD
ATOM     37  H5  UNL     1      14.637 -16.607  22.133  1.00  0.00     0.162 HD
BRANCH  35  38
HETATM   38  C19 UNL     1      11.432 -18.967  18.892  1.00  0.00     0.150 C 
BRANCH  38  39
HETATM   39  C20 UNL     1      12.369 -19.023  17.736  1.00  0.00     0.255 C 
BRANCH  39  40
HETATM   40  N10 UNL     1      12.357 -17.881  16.864  1.00  0.00    -0.077 N 
HETATM   41  C21 UNL     1      12.087 -18.218  15.496  1.00  0.00     0.271 C 
HETATM   42  C22 UNL     1      11.448 -16.859  17.294  1.00  0.00     0.271 C 
HETATM   43  C23 UNL     1      13.707 -17.308  16.922  1.00  0.00     0.271 C 
ENDBRANCH  39  40
ENDBRANCH  38  39
ENDBRANCH  35  38
ENDBRANCH  27  28
ENDBRANCH  26  27
ENDBRANCH  25  26
ENDBRANCH   1  25
TORSDOF 15
ENDMDL
MODEL 5
REMARK VINA RESULT: -7.387895083      2.459      7.468
REMARK  15 active torsions:
REMARK  status: ('A' for Active; 'I' for Inactive)
REMARK    1  A    between atoms: C5_6  and  C6_7 
REMARK    2  A    between atoms: C7_8  and  C8_9 
REMARK    3  A    between atoms: C8_9  and  C10_11 
REMARK    4  A    between atoms: C8_9  and  C14_24 
REMARK    5  A    between atoms: C11_12  and  C12_13 
REMARK    6  A    between atoms: C12_13  and  C13_14 
REMARK    7  A    between atoms: C13_14  and  N2_15 
REMARK    8  A    between atoms: N2_15  and  O1_17 
REMARK    9  A    between atoms: N3_19  and  N4_21 
REMARK   10  A    between atoms: C14_24  and  C15_25 
REMARK   11  A    between atoms: C15_25  and  C16_26 
REMARK   12  A    between atoms: C16_26  and  N5_27 
REMARK       I    between atoms: N5_27  and  C17_29 
REMARK       I    between atoms: N7_31  and  C18_33 
REMARK   13  A    between atoms: N9_35  and  C19_37 
REMARK   14  A    between atoms: C19_37  and  C20_38 
REMARK   15  A    between atoms: C20_38  and  N10_39 
ROOT
HETATM    1  C8  UNL     1      15.037 -12.771  20.581  1.00  0.00    -0.009 C 
HETATM    2  C9  UNL     1      15.936 -11.925  19.766  1.00  0.00     0.024 C 
ENDROOT
BRANCH   1   3
HETATM    3  C7  UNL     1      15.642 -13.944  21.251  1.00  0.00    -0.013 C 
HETATM    4  C6  UNL     1      16.737 -14.289  21.785  1.00  0.00     0.010 C 
BRANCH   4   5
HETATM    5  C5  UNL     1      18.049 -13.847  22.098  1.00  0.00    -0.021 A 
HETATM    6  C4  UNL     1      18.976 -13.455  21.195  1.00  0.00     0.014 A 
HETATM    7  C3  UNL     1      20.283 -13.112  21.593  1.00  0.00     0.018 A 
HETATM    8  C2  UNL     1      20.594 -13.183  22.907  1.00  0.00     0.090 A 
HETATM    9  N1  UNL     1      19.712 -13.562  23.842  1.00  0.00    -0.370 N 
HETATM   10  C1  UNL     1      20.111 -13.632  25.246  1.00  0.00     0.154 C 
HETATM   11  C24 UNL     1      18.481 -13.881  23.433  1.00  0.00     0.101 A 
ENDBRANCH   4   5
ENDBRANCH   1   3
BRANCH   1  12
HETATM   12  C10 UNL     1      14.226 -11.969  21.562  1.00  0.00    -0.011 C 
HETATM   13  C11 UNL     1      12.948 -11.810  21.549  1.00  0.00     0.029 C 
BRANCH  13  14
HETATM   14  C12 UNL     1      12.154 -11.013  22.524  1.00  0.00     0.064 C 
HETATM   15  N3  UNL     1      11.320 -11.673  23.168  1.00  0.00    -0.306 N 
ATOM     16  H3  UNL     1      11.453 -12.615  22.802  1.00  0.00     0.186 HD
BRANCH  14  17
HETATM   17  C13 UNL     1      12.416  -9.640  22.613  1.00  0.00     0.144 C 
BRANCH  17  18
HETATM   18  N2  UNL     1      12.251  -8.864  23.611  1.00  0.00    -0.278 N 
ATOM     19  H2  UNL     1      12.972  -8.174  23.819  1.00  0.00     0.193 HD
BRANCH  18  20
HETATM   20  O1  UNL     1      11.149  -8.922  24.408  1.00  0.00    -0.290 OA
ATOM     21  H1  UNL     1      10.476  -8.252  24.397  1.00  0.00     0.244 HD
ENDBRANCH  18  20
ENDBRANCH  17  18
ENDBRANCH  14  17
BRANCH  15  22
HETATM   22  N4  UNL     1      10.419 -11.833  24.002  1.00  0.00    -0.345 N 
ATOM     23  H42 UNL     1       9.862 -10.997  23.823  1.00  0.00     0.176 HD
ATOM     24  H41 UNL     1       9.930 -12.322  24.752  1.00  0.00     0.176 HD
ENDBRANCH  15  22
ENDBRANCH  13  14
ENDBRANCH   1  12
BRANCH   1  25
HETATM   25  C14 UNL     1      13.990 -13.393  19.617  1.00  0.00     0.019 C 
BRANCH  25  26
HETATM   26  C15 UNL     1      13.956 -14.870  19.567  1.00  0.00     0.021 C 
BRANCH  26  27
HETATM   27  C16 UNL     1      12.484 -15.294  19.439  1.00  0.00     0.122 C 
BRANCH  27  28
HETATM   28  N5  UNL     1      12.186 -16.321  20.374  1.00  0.00    -0.364 N 
HETATM   29  C17 UNL     1      12.265 -17.685  20.036  1.00  0.00     0.190 C 
HETATM   30  N6  UNL     1      11.252 -18.378  19.333  1.00  0.00    -0.063 NA
HETATM   31  N7  UNL     1      13.340 -18.347  20.401  1.00  0.00    -0.305 N 
HETATM   32  C18 UNL     1      14.390 -17.733  21.109  1.00  0.00     0.190 C 
ATOM     33  H7  UNL     1      13.416 -19.336  20.165  1.00  0.00     0.171 HD
HETATM   34  N8  UNL     1      14.117 -17.004  22.302  1.00  0.00    -0.063 NA
HETATM   35  N9  UNL     1      15.602 -17.796  20.732  1.00  0.00    -0.363 N 
ATOM     36  H9  UNL     1      16.304 -17.322  21.301  1.00  0.00     0.162 HD
ATOM     37  H5  UNL     1      11.905 -16.061  21.320  1.00  0.00     0.162 HD
BRANCH  35  38
HETATM   38  C19 UNL     1      16.055 -18.501  19.538  1.00  0.00     0.150 C 
BRANCH  38  39
HETATM   39  C20 UNL     1      15.991 -17.564  18.382  1.00  0.00     0.255 C 
BRANCH  39  40
HETATM   40  N10 UNL     1      15.371 -18.078  17.192  1.00  0.00    -0.077 N 
HETATM   41  C21 UNL     1      15.008 -19.462  17.297  1.00  0.00     0.271 C 
HETATM   42  C22 UNL     1      14.231 -17.313  16.781  1.00  0.00     0.271 C 
HETATM   43  C23 UNL     1      16.374 -17.961  16.126  1.00  0.00     0.271 C 
ENDBRANCH  39  40
ENDBRANCH  38  39
ENDBRANCH  35  38
ENDBRANCH  27  28
ENDBRANCH  26  27
ENDBRANCH  25  26
ENDBRANCH   1  25
TORSDOF 15
ENDMDL
