MODEL 1
REMARK VINA RESULT: -7.352802847      0.000      0.000
REMARK  16 active torsions:
REMARK  status: ('A' for Active; 'I' for Inactive)
REMARK    1  A    between atoms: C4_5  and  C5_6 
REMARK    2  A    between atoms: C5_6  and  N2_7 
REMARK    3  A    between atoms: N2_7  and  C6_8 
REMARK    4  A    between atoms: C6_8  and  C7_9 
REMARK    5  A    between atoms: C7_9  and  C8_10 
REMARK    6  A    between atoms: C8_10  and  C9_11 
REMARK    7  A    between atoms: C9_11  and  N3_12 
REMARK       I    between atoms: N3_12  and  C10_14 
REMARK    8  A    between atoms: C10_14  and  C11_16 
REMARK    9  A    between atoms: C11_16  and  C12_17 
REMARK   10  A    between atoms: C11_16  and  C17_24 
REMARK   11  A    between atoms: C13_18  and  C14_19 
REMARK   12  A    between atoms: C15_20  and  C16_21 
REMARK   13  A    between atoms: C16_21  and  O2_22 
REMARK   14  A    between atoms: C17_24  and  N4_25 
REMARK   15  A    between atoms: C22_32  and  O3_33 
REMARK   16  A    between atoms: C23_35  and  O4_36 
ROOT
HETATM    1  C9  UNL     1      17.038 -12.215  19.498  1.00  0.00     0.122 C 
ENDROOT
BRANCH   1   2
HETATM    2  C8  UNL     1      18.268 -11.792  20.263  1.00  0.00     0.021 C 
BRANCH   2   3
HETATM    3  C7  UNL     1      18.505 -12.626  21.489  1.00  0.00     0.030 C 
BRANCH   3   4
HETATM    4  C6  UNL     1      19.077 -13.944  21.112  1.00  0.00     0.241 C 
BRANCH   4   5
HETATM    5  N2  UNL     1      18.601 -15.019  22.010  1.00  0.00    -0.035 N 
HETATM    6  C21 UNL     1      19.213 -16.279  21.745  1.00  0.00     0.276 C 
HETATM    7  C22 UNL     1      17.862 -16.951  21.641  1.00  0.00     0.201 C 
HETATM    8  C23 UNL     1      17.370 -15.540  21.469  1.00  0.00     0.354 C 
BRANCH   5   9
HETATM    9  C5  UNL     1      18.585 -14.538  23.344  1.00  0.00     0.248 C 
BRANCH   9  10
HETATM   10  C4  UNL     1      19.706 -14.954  24.214  1.00  0.00     0.064 C 
HETATM   11  C3  UNL     1      19.336 -14.709  25.686  1.00  0.00     0.244 C 
HETATM   12  N1  UNL     1      20.711 -14.300  25.897  1.00  0.00    -0.074 N 
HETATM   13  C1  UNL     1      21.543 -15.438  26.174  1.00  0.00     0.272 C 
HETATM   14  C2  UNL     1      20.867 -13.198  26.828  1.00  0.00     0.272 C 
HETATM   15  C24 UNL     1      20.755 -13.896  24.508  1.00  0.00     0.244 C 
ENDBRANCH   9  10
ENDBRANCH   5   9
BRANCH   7  16
HETATM   16  O3  UNL     1      17.724 -17.763  20.496  1.00  0.00    -0.389 OA
ATOM     17  H3  UNL     1      17.621 -18.686  20.697  1.00  0.00     0.210 HD
ENDBRANCH   7  16
BRANCH   8  18
HETATM   18  O4  UNL     1      16.209 -15.196  22.112  1.00  0.00    -0.367 OA
ATOM     19  H4  UNL     1      16.156 -14.318  22.472  1.00  0.00     0.212 HD
ENDBRANCH   8  18
ENDBRANCH   4   5
ENDBRANCH   3   4
ENDBRANCH   2   3
ENDBRANCH   1   2
BRANCH   1  20
HETATM   20  N3  UNL     1      15.930 -12.562  20.341  1.00  0.00    -0.360 N 
HETATM   21  C10 UNL     1      14.937 -11.622  20.687  1.00  0.00     0.235 C 
HETATM   22  O1  UNL     1      15.018 -10.454  20.255  1.00  0.00    -0.272 OA
ATOM     23  H3  UNL     1      15.858 -13.515  20.699  1.00  0.00     0.162 HD
BRANCH  21  24
HETATM   24  C11 UNL     1      13.793 -11.994  21.556  1.00  0.00     0.176 C 
BRANCH  24  25
HETATM   25  C12 UNL     1      13.354 -13.370  21.253  1.00  0.00    -0.076 C 
HETATM   26  C13 UNL     1      12.995 -14.511  21.026  1.00  0.00    -0.014 C 
BRANCH  26  27
HETATM   27  C14 UNL     1      12.572 -15.840  20.786  1.00  0.00    -0.013 C 
HETATM   28  C15 UNL     1      12.216 -16.983  20.559  1.00  0.00    -0.067 C 
BRANCH  28  29
HETATM   29  C16 UNL     1      11.773 -18.354  20.266  1.00  0.00     0.258 C 
BRANCH  29  30
HETATM   30  O2  UNL     1      11.752 -19.146  21.413  1.00  0.00    -0.389 OA
ATOM     31  H2  UNL     1      11.126 -18.823  22.051  1.00  0.00     0.210 HD
ENDBRANCH  29  30
ENDBRANCH  28  29
ENDBRANCH  26  27
ENDBRANCH  24  25
BRANCH  24  32
HETATM   32  C17 UNL     1      12.660 -11.047  21.300  1.00  0.00     0.156 C 
BRANCH  32  33
HETATM   33  N4  UNL     1      12.076 -10.595  22.545  1.00  0.00    -0.350 N 
HETATM   34  C18 UNL     1      12.143  -9.328  23.050  1.00  0.00     0.108 A 
HETATM   35  C19 UNL     1      11.469  -9.276  24.249  1.00  0.00     0.106 A 
HETATM   36  N5  UNL     1      10.986 -10.507  24.483  1.00  0.00    -0.361 N 
HETATM   37  C20 UNL     1      11.361 -11.288  23.448  1.00  0.00     0.182 A 
ATOM     38  H5  UNL     1      10.438 -10.798  25.293  1.00  0.00     0.166 HD
ENDBRANCH  32  33
ENDBRANCH  24  32
ENDBRANCH  21  24
ENDBRANCH   1  20
TORSDOF 16
ENDMDL
MODEL 2
REMARK VINA RESULT: -7.319730624      1.928      3.351
REMARK  16 active torsions:
REMARK  status: ('A' for Active; 'I' for Inactive)
REMARK    1  A    between atoms: C4_5  and  C5_6 
REMARK    2  A    between atoms: C5_6  and  N2_7 
REMARK    3  A    between atoms: N2_7  and  C6_8 
REMARK    4  A    between atoms: C6_8  and  C7_9 
REMARK    5  A    between atoms: C7_9  and  C8_10 
REMARK    6  A    between atoms: C8_10  and  C9_11 
REMARK    7  A    between atoms: C9_11  and  N3_12 
REMARK       I    between atoms: N3_12  and  C10_14 
REMARK    8  A    between atoms: C10_14  and  C11_16 
REMARK    9  A    between atoms: C11_16  and  C12_17 
REMARK   10  A    between atoms: C11_16  and  C17_24 
REMARK   11  A    between atoms: C13_18  and  C14_19 
REMARK   12  A    between atoms: C15_20  and  C16_21 
REMARK   13  A    between atoms: C16_21  and  O2_22 
REMARK   14  A    between atoms: C17_24  and  N4_25 
REMARK   15  A    between atoms: C22_32  and  O3_33 
REMARK   16  A    between atoms: C23_35  and  O4_36 
ROOT
HETATM    1  C9  UNL     1      17.167 -12.015  19.523  1.00  0.00     0.122 C 
ENDROOT
BRANCH   1   2
HETATM    2  C8  UNL     1      18.481 -11.806  20.234  1.00  0.00     0.021 C 
BRANCH   2   3
HETATM    3  C7  UNL     1      18.561 -12.547  21.537  1.00  0.00     0.030 C 
BRANCH   3   4
HETATM    4  C6  UNL     1      19.849 -13.282  21.633  1.00  0.00     0.241 C 
BRANCH   4   5
HETATM    5  N2  UNL     1      19.979 -13.982  22.929  1.00  0.00    -0.035 N 
HETATM    6  C21 UNL     1      19.277 -13.333  23.987  1.00  0.00     0.276 C 
HETATM    7  C22 UNL     1      20.520 -13.323  24.849  1.00  0.00     0.201 C 
HETATM    8  C23 UNL     1      21.217 -13.567  23.539  1.00  0.00     0.354 C 
BRANCH   5   9
HETATM    9  C5  UNL     1      19.773 -15.372  22.731  1.00  0.00     0.248 C 
BRANCH   9  10
HETATM   10  C4  UNL     1      18.456 -15.913  23.130  1.00  0.00     0.064 C 
HETATM   11  C3  UNL     1      18.495 -17.449  23.089  1.00  0.00     0.244 C 
HETATM   12  N1  UNL     1      17.140 -17.406  22.575  1.00  0.00    -0.074 N 
HETATM   13  C1  UNL     1      16.191 -17.343  23.651  1.00  0.00     0.272 C 
HETATM   14  C2  UNL     1      16.851 -18.416  21.574  1.00  0.00     0.272 C 
HETATM   15  C24 UNL     1      17.444 -16.106  22.016  1.00  0.00     0.244 C 
ENDBRANCH   9  10
ENDBRANCH   5   9
BRANCH   7  16
HETATM   16  O3  UNL     1      20.791 -12.067  25.431  1.00  0.00    -0.389 OA
ATOM     17  H3  UNL     1      20.715 -11.343  24.822  1.00  0.00     0.210 HD
ENDBRANCH   7  16
BRANCH   8  18
HETATM   18  O4  UNL     1      22.250 -14.470  23.536  1.00  0.00    -0.367 OA
ATOM     19  H4  UNL     1      23.093 -14.165  23.850  1.00  0.00     0.212 HD
ENDBRANCH   8  18
ENDBRANCH   4   5
ENDBRANCH   3   4
ENDBRANCH   2   3
ENDBRANCH   1   2
BRANCH   1  20
HETATM   20  N3  UNL     1      16.109 -12.449  20.389  1.00  0.00    -0.360 N 
HETATM   21  C10 UNL     1      15.100 -11.567  20.830  1.00  0.00     0.235 C 
HETATM   22  O1  UNL     1      15.123 -10.374  20.463  1.00  0.00    -0.272 OA
ATOM     23  H3  UNL     1      16.085 -13.422  20.695  1.00  0.00     0.162 HD
BRANCH  21  24
HETATM   24  C11 UNL     1      14.009 -12.028  21.723  1.00  0.00     0.176 C 
BRANCH  24  25
HETATM   25  C12 UNL     1      13.796 -13.479  21.553  1.00  0.00    -0.076 C 
HETATM   26  C13 UNL     1      13.640 -14.680  21.430  1.00  0.00    -0.014 C 
BRANCH  26  27
HETATM   27  C14 UNL     1      13.466 -16.079  21.309  1.00  0.00    -0.013 C 
HETATM   28  C15 UNL     1      13.326 -17.283  21.185  1.00  0.00    -0.067 C 
BRANCH  28  29
HETATM   29  C16 UNL     1      13.138 -18.732  21.015  1.00  0.00     0.258 C 
BRANCH  29  30
HETATM   30  O2  UNL     1      11.902 -19.152  21.504  1.00  0.00    -0.389 OA
ATOM     31  H2  UNL     1      11.975 -19.515  22.379  1.00  0.00     0.210 HD
ENDBRANCH  29  30
ENDBRANCH  28  29
ENDBRANCH  26  27
ENDBRANCH  24  25
BRANCH  24  32
HETATM   32  C17 UNL     1      12.748 -11.301  21.365  1.00  0.00     0.156 C 
BRANCH  32  33
HETATM   33  N4  UNL     1      12.123 -10.744  22.547  1.00  0.00    -0.350 N 
HETATM   34  C18 UNL     1      12.206  -9.447  22.964  1.00  0.00     0.108 A 
HETATM   35  C19 UNL     1      11.481  -9.290  24.122  1.00  0.00     0.106 A 
HETATM   36  N5  UNL     1      10.950 -10.487  24.420  1.00  0.00    -0.361 N 
HETATM   37  C20 UNL     1      11.346 -11.350  23.462  1.00  0.00     0.182 A 
ATOM     38  H5  UNL     1      10.357 -10.703  25.222  1.00  0.00     0.166 HD
ENDBRANCH  32  33
ENDBRANCH  24  32
ENDBRANCH  21  24
ENDBRANCH   1  20
TORSDOF 16
ENDMDL
MODEL 3
REMARK VINA RESULT: -7.246865564      1.718      3.544
REMARK  16 active torsions:
REMARK  status: ('A' for Active; 'I' for Inactive)
REMARK    1  A    between atoms: C4_5  and  C5_6 
REMARK    2  A    between atoms: C5_6  and  N2_7 
REMARK    3  A    between atoms: N2_7  and  C6_8 
REMARK    4  A    between atoms: C6_8  and  C7_9 
REMARK    5  A    between atoms: C7_9  and  C8_10 
REMARK    6  A    between atoms: C8_10  and  C9_11 
REMARK    7  A    between atoms: C9_11  and  N3_12 
REMARK       I    between atoms: N3_12  and  C10_14 
REMARK    8  A    between atoms: C10_14  and  C11_16 
REMARK    9  A    between atoms: C11_16  and  C12_17 
REMARK   10  A    between atoms: C11_16  and  C17_24 
REMARK   11  A    between atoms: C13_18  and  C14_19 
REMARK   12  A    between atoms: C15_20  and  C16_21 
REMARK   13  A    between atoms: C16_21  and  O2_22 
REMARK   14  A    between atoms: C17_24  and  N4_25 
REMARK   15  A    between atoms: C22_32  and  O3_33 
REMARK   16  A    between atoms: C23_35  and  O4_36 
ROOT
HETATM    1  C9  UNL     1      17.090 -12.400  19.457  1.00  0.00     0.122 C 
ENDROOT
BRANCH   1   2
HETATM    2  C8  UNL     1      18.306 -11.852  20.160  1.00  0.00     0.021 C 
BRANCH   2   3
HETATM    3  C7  UNL     1      18.486 -12.420  21.539  1.00  0.00     0.030 C 
BRANCH   3   4
HETATM    4  C6  UNL     1      19.396 -13.593  21.497  1.00  0.00     0.241 C 
BRANCH   4   5
HETATM    5  N2  UNL     1      19.433 -14.297  22.797  1.00  0.00    -0.035 N 
HETATM    6  C21 UNL     1      18.855 -13.540  23.858  1.00  0.00     0.276 C 
HETATM    7  C22 UNL     1      20.096 -13.717  24.705  1.00  0.00     0.201 C 
HETATM    8  C23 UNL     1      20.729 -14.075  23.389  1.00  0.00     0.354 C 
BRANCH   5   9
HETATM    9  C5  UNL     1      19.012 -15.639  22.613  1.00  0.00     0.248 C 
BRANCH   9  10
HETATM   10  C4  UNL     1      18.079 -15.896  21.495  1.00  0.00     0.064 C 
HETATM   11  C3  UNL     1      16.647 -16.029  22.038  1.00  0.00     0.244 C 
HETATM   12  N1  UNL     1      16.442 -17.079  21.060  1.00  0.00    -0.074 N 
HETATM   13  C1  UNL     1      16.038 -16.526  19.797  1.00  0.00     0.272 C 
HETATM   14  C2  UNL     1      15.617 -18.176  21.529  1.00  0.00     0.272 C 
HETATM   15  C24 UNL     1      17.862 -17.352  21.125  1.00  0.00     0.244 C 
ENDBRANCH   9  10
ENDBRANCH   5   9
BRANCH   7  16
HETATM   16  O3  UNL     1      20.565 -12.515  25.274  1.00  0.00    -0.389 OA
ATOM     17  H3  UNL     1      20.640 -11.804  24.649  1.00  0.00     0.210 HD
ENDBRANCH   7  16
BRANCH   8  18
HETATM   18  O4  UNL     1      21.610 -15.127  23.380  1.00  0.00    -0.367 OA
ATOM     19  H4  UNL     1      22.497 -14.947  23.089  1.00  0.00     0.212 HD
ENDBRANCH   8  18
ENDBRANCH   4   5
ENDBRANCH   3   4
ENDBRANCH   2   3
ENDBRANCH   1   2
BRANCH   1  20
HETATM   20  N3  UNL     1      15.992 -12.674  20.339  1.00  0.00    -0.360 N 
HETATM   21  C10 UNL     1      15.029 -11.692  20.654  1.00  0.00     0.235 C 
HETATM   22  O1  UNL     1      15.129 -10.551  20.159  1.00  0.00    -0.272 OA
ATOM     23  H3  UNL     1      15.905 -13.604  20.750  1.00  0.00     0.162 HD
BRANCH  21  24
HETATM   24  C11 UNL     1      13.896 -11.989  21.566  1.00  0.00     0.176 C 
BRANCH  24  25
HETATM   25  C12 UNL     1      13.406 -13.361  21.333  1.00  0.00    -0.076 C 
HETATM   26  C13 UNL     1      13.020 -14.497  21.123  1.00  0.00    -0.014 C 
BRANCH  26  27
HETATM   27  C14 UNL     1      12.593 -15.822  20.872  1.00  0.00    -0.013 C 
HETATM   28  C15 UNL     1      12.243 -16.967  20.643  1.00  0.00    -0.067 C 
BRANCH  28  29
HETATM   29  C16 UNL     1      11.818 -18.342  20.341  1.00  0.00     0.258 C 
BRANCH  29  30
HETATM   30  O2  UNL     1      11.819 -19.144  21.482  1.00  0.00    -0.389 OA
ATOM     31  H2  UNL     1      12.186 -18.689  22.231  1.00  0.00     0.210 HD
ENDBRANCH  29  30
ENDBRANCH  28  29
ENDBRANCH  26  27
ENDBRANCH  24  25
BRANCH  24  32
HETATM   32  C17 UNL     1      12.787 -11.017  21.294  1.00  0.00     0.156 C 
BRANCH  32  33
HETATM   33  N4  UNL     1      12.138 -10.621  22.526  1.00  0.00    -0.350 N 
HETATM   34  C18 UNL     1      12.151  -9.371  23.075  1.00  0.00     0.108 A 
HETATM   35  C19 UNL     1      11.424  -9.375  24.242  1.00  0.00     0.106 A 
HETATM   36  N5  UNL     1      10.962 -10.624  24.415  1.00  0.00    -0.361 N 
HETATM   37  C20 UNL     1      11.401 -11.361  23.373  1.00  0.00     0.182 A 
ATOM     38  H5  UNL     1      10.386 -10.954  25.189  1.00  0.00     0.166 HD
ENDBRANCH  32  33
ENDBRANCH  24  32
ENDBRANCH  21  24
ENDBRANCH   1  20
TORSDOF 16
ENDMDL
MODEL 4
REMARK VINA RESULT: -7.095474458      1.759      3.452
REMARK  16 active torsions:
REMARK  status: ('A' for Active; 'I' for Inactive)
REMARK    1  A    between atoms: C4_5  and  C5_6 
REMARK    2  A    between atoms: C5_6  and  N2_7 
REMARK    3  A    between atoms: N2_7  and  C6_8 
REMARK    4  A    between atoms: C6_8  and  C7_9 
REMARK    5  A    between atoms: C7_9  and  C8_10 
REMARK    6  A    between atoms: C8_10  and  C9_11 
REMARK    7  A    between atoms: C9_11  and  N3_12 
REMARK       I    between atoms: N3_12  and  C10_14 
REMARK    8  A    between atoms: C10_14  and  C11_16 
REMARK    9  A    between atoms: C11_16  and  C12_17 
REMARK   10  A    between atoms: C11_16  and  C17_24 
REMARK   11  A    between atoms: C13_18  and  C14_19 
REMARK   12  A    between atoms: C15_20  and  C16_21 
REMARK   13  A    between atoms: C16_21  and  O2_22 
REMARK   14  A    between atoms: C17_24  and  N4_25 
REMARK   15  A    between atoms: C22_32  and  O3_33 
REMARK   16  A    between atoms: C23_35  and  O4_36 
ROOT
HETATM    1  C9  UNL     1      17.529 -11.992  19.742  1.00  0.00     0.122 C 
ENDROOT
BRANCH   1   2
HETATM    2  C8  UNL     1      18.855 -11.793  20.434  1.00  0.00     0.021 C 
BRANCH   2   3
HETATM    3  C7  UNL     1      19.540 -13.088  20.761  1.00  0.00     0.030 C 
BRANCH   3   4
HETATM    4  C6  UNL     1      19.812 -13.172  22.219  1.00  0.00     0.241 C 
BRANCH   4   5
HETATM    5  N2  UNL     1      19.494 -14.515  22.753  1.00  0.00    -0.035 N 
HETATM    6  C21 UNL     1      18.987 -14.480  24.085  1.00  0.00     0.276 C 
HETATM    7  C22 UNL     1      20.017 -15.492  24.538  1.00  0.00     0.201 C 
HETATM    8  C23 UNL     1      20.712 -15.091  23.266  1.00  0.00     0.354 C 
BRANCH   5   9
HETATM    9  C5  UNL     1      18.778 -15.248  21.773  1.00  0.00     0.248 C 
BRANCH   9  10
HETATM   10  C4  UNL     1      17.460 -15.786  22.175  1.00  0.00     0.064 C 
HETATM   11  C3  UNL     1      17.428 -17.305  21.940  1.00  0.00     0.244 C 
HETATM   12  N1  UNL     1      16.053 -17.146  21.512  1.00  0.00    -0.074 N 
HETATM   13  C1  UNL     1      15.163 -17.183  22.639  1.00  0.00     0.272 C 
HETATM   14  C2  UNL     1      15.669 -18.009  20.411  1.00  0.00     0.272 C 
HETATM   15  C24 UNL     1      16.385 -15.798  21.103  1.00  0.00     0.244 C 
ENDBRANCH   9  10
ENDBRANCH   5   9
BRANCH   7  16
HETATM   16  O3  UNL     1      20.693 -15.116  25.718  1.00  0.00    -0.389 OA
ATOM     17  H3  UNL     1      20.770 -15.820  26.350  1.00  0.00     0.210 HD
ENDBRANCH   7  16
BRANCH   8  18
HETATM   18  O4  UNL     1      21.292 -16.090  22.526  1.00  0.00    -0.367 OA
ATOM     19  H4  UNL     1      21.403 -16.934  22.948  1.00  0.00     0.212 HD
ENDBRANCH   8  18
ENDBRANCH   4   5
ENDBRANCH   3   4
ENDBRANCH   2   3
ENDBRANCH   1   2
BRANCH   1  20
HETATM   20  N3  UNL     1      16.438 -12.218  20.647  1.00  0.00    -0.360 N 
HETATM   21  C10 UNL     1      15.174 -11.625  20.448  1.00  0.00     0.235 C 
HETATM   22  O1  UNL     1      14.991 -10.880  19.463  1.00  0.00    -0.272 OA
ATOM     23  H3  UNL     1      16.581 -12.823  21.455  1.00  0.00     0.162 HD
BRANCH  21  24
HETATM   24  C11 UNL     1      14.052 -11.868  21.389  1.00  0.00     0.176 C 
BRANCH  24  25
HETATM   25  C12 UNL     1      13.485 -13.212  21.162  1.00  0.00    -0.076 C 
HETATM   26  C13 UNL     1      13.033 -14.323  20.954  1.00  0.00    -0.014 C 
BRANCH  26  27
HETATM   27  C14 UNL     1      12.527 -15.621  20.702  1.00  0.00    -0.013 C 
HETATM   28  C15 UNL     1      12.111 -16.743  20.477  1.00  0.00    -0.067 C 
BRANCH  28  29
HETATM   29  C16 UNL     1      11.613 -18.094  20.179  1.00  0.00     0.258 C 
BRANCH  29  30
HETATM   30  O2  UNL     1      10.834 -18.113  19.023  1.00  0.00    -0.389 OA
ATOM     31  H2  UNL     1      10.012 -18.569  19.161  1.00  0.00     0.210 HD
ENDBRANCH  29  30
ENDBRANCH  28  29
ENDBRANCH  26  27
ENDBRANCH  24  25
BRANCH  24  32
HETATM   32  C17 UNL     1      12.988 -10.839  21.153  1.00  0.00     0.156 C 
BRANCH  32  33
HETATM   33  N4  UNL     1      12.265 -10.559  22.375  1.00  0.00    -0.350 N 
HETATM   34  C18 UNL     1      12.233  -9.364  23.034  1.00  0.00     0.108 A 
HETATM   35  C19 UNL     1      11.438  -9.477  24.151  1.00  0.00     0.106 A 
HETATM   36  N5  UNL     1      10.980 -10.738  24.183  1.00  0.00    -0.361 N 
HETATM   37  C20 UNL     1      11.487 -11.376  23.107  1.00  0.00     0.182 A 
ATOM     38  H5  UNL     1      10.363 -11.140  24.889  1.00  0.00     0.166 HD
ENDBRANCH  32  33
ENDBRANCH  24  32
ENDBRANCH  21  24
ENDBRANCH   1  20
TORSDOF 16
ENDMDL
MODEL 5
REMARK VINA RESULT: -7.037122752      1.626      2.001
REMARK  16 active torsions:
REMARK  status: ('A' for Active; 'I' for Inactive)
REMARK    1  A    between atoms: C4_5  and  C5_6 
REMARK    2  A    between atoms: C5_6  and  N2_7 
REMARK    3  A    between atoms: N2_7  and  C6_8 
REMARK    4  A    between atoms: C6_8  and  C7_9 
REMARK    5  A    between atoms: C7_9  and  C8_10 
REMARK    6  A    between atoms: C8_10  and  C9_11 
REMARK    7  A    between atoms: C9_11  and  N3_12 
REMARK       I    between atoms: N3_12  and  C10_14 
REMARK    8  A    between atoms: C10_14  and  C11_16 
REMARK    9  A    between atoms: C11_16  and  C12_17 
REMARK   10  A    between atoms: C11_16  and  C17_24 
REMARK   11  A    between atoms: C13_18  and  C14_19 
REMARK   12  A    between atoms: C15_20  and  C16_21 
REMARK   13  A    between atoms: C16_21  and  O2_22 
REMARK   14  A    between atoms: C17_24  and  N4_25 
REMARK   15  A    between atoms: C22_32  and  O3_33 
REMARK   16  A    between atoms: C23_35  and  O4_36 
ROOT
HETATM    1  C9  UNL     1      17.469 -12.298  19.721  1.00  0.00     0.122 C 
ENDROOT
BRANCH   1   2
HETATM    2  C8  UNL     1      18.712 -11.943  20.499  1.00  0.00     0.021 C 
BRANCH   2   3
HETATM    3  C7  UNL     1      19.626 -13.116  20.701  1.00  0.00     0.030 C 
BRANCH   3   4
HETATM    4  C6  UNL     1      20.033 -13.212  22.126  1.00  0.00     0.241 C 
BRANCH   4   5
HETATM    5  N2  UNL     1      19.481 -14.426  22.767  1.00  0.00    -0.035 N 
HETATM    6  C21 UNL     1      18.984 -15.376  21.827  1.00  0.00     0.276 C 
HETATM    7  C22 UNL     1      17.654 -15.440  22.546  1.00  0.00     0.201 C 
HETATM    8  C23 UNL     1      18.121 -14.147  23.155  1.00  0.00     0.354 C 
BRANCH   5   9
HETATM    9  C5  UNL     1      20.377 -14.871  23.772  1.00  0.00     0.248 C 
BRANCH   9  10
HETATM   10  C4  UNL     1      21.336 -15.929  23.388  1.00  0.00     0.064 C 
HETATM   11  C3  UNL     1      21.162 -17.145  24.313  1.00  0.00     0.244 C 
HETATM   12  N1  UNL     1      22.603 -17.296  24.280  1.00  0.00    -0.074 N 
HETATM   13  C1  UNL     1      23.006 -18.073  23.141  1.00  0.00     0.272 C 
HETATM   14  C2  UNL     1      23.185 -17.724  25.538  1.00  0.00     0.272 C 
HETATM   15  C24 UNL     1      22.700 -15.870  24.051  1.00  0.00     0.244 C 
ENDBRANCH   9  10
ENDBRANCH   5   9
BRANCH   7  16
HETATM   16  O3  UNL     1      16.543 -15.315  21.686  1.00  0.00    -0.389 OA
ATOM     17  H3  UNL     1      16.555 -14.521  21.165  1.00  0.00     0.210 HD
ENDBRANCH   7  16
BRANCH   8  18
HETATM   18  O4  UNL     1      17.878 -13.958  24.492  1.00  0.00    -0.367 OA
ATOM     19  H4  UNL     1      17.063 -14.303  24.837  1.00  0.00     0.212 HD
ENDBRANCH   8  18
ENDBRANCH   4   5
ENDBRANCH   3   4
ENDBRANCH   2   3
ENDBRANCH   1   2
BRANCH   1  20
HETATM   20  N3  UNL     1      16.325 -12.546  20.551  1.00  0.00    -0.360 N 
HETATM   21  C10 UNL     1      15.307 -11.584  20.721  1.00  0.00     0.235 C 
HETATM   22  O1  UNL     1      15.398 -10.483  20.140  1.00  0.00    -0.272 OA
ATOM     23  H3  UNL     1      16.245 -13.443  21.030  1.00  0.00     0.162 HD
BRANCH  21  24
HETATM   24  C11 UNL     1      14.127 -11.854  21.579  1.00  0.00     0.176 C 
BRANCH  24  25
HETATM   25  C12 UNL     1      13.607 -13.210  21.311  1.00  0.00    -0.076 C 
HETATM   26  C13 UNL     1      13.166 -14.319  21.071  1.00  0.00    -0.014 C 
BRANCH  26  27
HETATM   27  C14 UNL     1      12.652 -15.602  20.768  1.00  0.00    -0.013 C 
HETATM   28  C15 UNL     1      12.227 -16.710  20.493  1.00  0.00    -0.067 C 
BRANCH  28  29
HETATM   29  C16 UNL     1      11.710 -18.040  20.137  1.00  0.00     0.258 C 
BRANCH  29  30
HETATM   30  O2  UNL     1      10.844 -17.981  19.047  1.00  0.00    -0.389 OA
ATOM     31  H2  UNL     1       9.971 -18.278  19.275  1.00  0.00     0.210 HD
ENDBRANCH  29  30
ENDBRANCH  28  29
ENDBRANCH  26  27
ENDBRANCH  24  25
BRANCH  24  32
HETATM   32  C17 UNL     1      13.060 -10.848  21.268  1.00  0.00     0.156 C 
BRANCH  32  33
HETATM   33  N4  UNL     1      12.299 -10.523  22.456  1.00  0.00    -0.350 N 
HETATM   34  C18 UNL     1      12.250  -9.305  23.070  1.00  0.00     0.108 A 
HETATM   35  C19 UNL     1      11.421  -9.376  24.166  1.00  0.00     0.106 A 
HETATM   36  N5  UNL     1      10.958 -10.635  24.229  1.00  0.00    -0.361 N 
HETATM   37  C20 UNL     1      11.497 -11.312  23.192  1.00  0.00     0.182 A 
ATOM     38  H5  UNL     1      10.319 -11.010  24.929  1.00  0.00     0.166 HD
ENDBRANCH  32  33
ENDBRANCH  24  32
ENDBRANCH  21  24
ENDBRANCH   1  20
TORSDOF 16
ENDMDL
