MODEL 1
REMARK VINA RESULT: -6.982923751      0.000      0.000
REMARK  12 active torsions:
REMARK  status: ('A' for Active; 'I' for Inactive)
REMARK    1  A    between atoms: C5_6  and  N2_7 
REMARK    2  A    between atoms: N2_7  and  N3_8 
REMARK    3  A    between atoms: N4_11  and  C6_12 
REMARK    4  A    between atoms: N4_11  and  C16_30 
REMARK    5  A    between atoms: C6_12  and  C7_13 
REMARK    6  A    between atoms: C7_13  and  C8_14 
REMARK    7  A    between atoms: C8_14  and  N5_15 
REMARK    8  A    between atoms: N5_15  and  C11_18 
REMARK    9  A    between atoms: C11_18  and  C12_19 
REMARK       I    between atoms: C12_19  and  N6_21 
REMARK   10  A    between atoms: N6_21  and  C13_23 
REMARK   11  A    between atoms: C16_30  and  C17_31 
REMARK   12  A    between atoms: C17_31  and  N9_32 
REMARK       I    between atoms: N9_32  and  C18_34 
REMARK       I    between atoms: C18_34  and  N11_38 
ROOT
HETATM    1  N9  UNL     1      16.233 -15.705  22.477  1.00  0.00    -0.224 N 
ATOM      2  H9  UNL     1      15.814 -14.847  22.833  1.00  0.00     0.177 HD
HETATM    3  C18 UNL     1      15.425 -16.808  22.117  1.00  0.00     0.680 C 
HETATM    4  N10 UNL     1      15.248 -17.799  22.922  1.00  0.00    -0.234 N 
ATOM      5 1H10 UNL     1      14.665 -18.595  22.662  1.00  0.00     0.174 HD
ATOM      6 2H10 UNL     1      15.713 -17.752  23.828  1.00  0.00     0.174 HD
HETATM    7  N11 UNL     1      14.775 -16.873  20.853  1.00  0.00    -0.127 N 
ATOM      8  H11 UNL     1      15.248 -16.525  20.019  1.00  0.00     0.197 HD
HETATM    9  C19 UNL     1      13.490 -17.414  20.753  1.00  0.00     0.196 C 
HETATM   10  N12 UNL     1      12.410 -17.854  20.657  1.00  0.00    -0.171 NA
ENDROOT
BRANCH   1  11
HETATM   11  C17 UNL     1      17.667 -15.822  22.330  1.00  0.00     0.167 C 
BRANCH  11  12
HETATM   12  C16 UNL     1      18.310 -14.602  22.925  1.00  0.00     0.275 C 
BRANCH  12  13
HETATM   13  N4  UNL     1      19.746 -14.490  22.583  1.00  0.00     0.032 N 
HETATM   14  C2  UNL     1      20.250 -15.788  22.258  1.00  0.00     0.187 C 
HETATM   15  C1  UNL     1      20.205 -16.491  20.954  1.00  0.00     0.097 C 
HETATM   16  N1  UNL     1      20.789 -16.347  23.292  1.00  0.00    -0.360 N 
HETATM   17  C3  UNL     1      21.390 -17.650  23.355  1.00  0.00     0.151 C 
HETATM   18  C4  UNL     1      20.728 -15.459  24.415  1.00  0.00     0.226 C 
HETATM   19  C5  UNL     1      20.381 -14.152  23.795  1.00  0.00     0.302 C 
BRANCH  19  20
HETATM   20  N2  UNL     1      20.631 -13.051  24.321  1.00  0.00    -0.309 NA
BRANCH  20  21
HETATM   21  N3  UNL     1      20.989 -12.148  25.121  1.00  0.00    -0.279 N 
ATOM     22  H32 UNL     1      20.773 -12.696  25.954  1.00  0.00     0.191 HD
ATOM     23  H31 UNL     1      21.334 -11.277  25.523  1.00  0.00     0.191 HD
ENDBRANCH  20  21
ENDBRANCH  19  20
BRANCH  13  24
HETATM   24  C6  UNL     1      19.812 -13.525  21.550  1.00  0.00     0.256 C 
BRANCH  24  25
HETATM   25  C7  UNL     1      18.746 -12.509  21.409  1.00  0.00     0.057 C 
BRANCH  25  26
HETATM   26  C8  UNL     1      18.457 -12.171  19.998  1.00  0.00     0.238 C 
BRANCH  26  27
HETATM   27  N5  UNL     1      17.025 -12.168  19.662  1.00  0.00    -0.066 N 
HETATM   28  C9  UNL     1      16.585 -13.547  19.740  1.00  0.00     0.272 C 
HETATM   29  C10 UNL     1      16.802 -11.694  18.324  1.00  0.00     0.272 C 
BRANCH  27  30
HETATM   30  C11 UNL     1      16.349 -11.355  20.646  1.00  0.00     0.339 C 
BRANCH  30  31
HETATM   31  C12 UNL     1      15.154 -11.987  21.238  1.00  0.00     0.262 C 
HETATM   32  O1  UNL     1      15.295 -12.907  22.119  1.00  0.00    -0.271 OA
HETATM   33  N6  UNL     1      13.834 -11.637  20.891  1.00  0.00    -0.158 N 
ATOM     34  H6  UNL     1      13.534 -11.652  19.916  1.00  0.00     0.187 HD
BRANCH  33  35
HETATM   35  C13 UNL     1      13.013 -11.299  21.822  1.00  0.00     0.684 A 
HETATM   36  N7  UNL     1      12.802 -10.017  22.193  1.00  0.00    -0.200 N 
HETATM   37  C14 UNL     1      11.893  -9.990  23.187  1.00  0.00     0.123 A 
ATOM     38  H7  UNL     1      13.257  -9.201  21.785  1.00  0.00     0.183 HD
HETATM   39  C15 UNL     1      11.542 -11.291  23.426  1.00  0.00     0.123 A 
HETATM   40  N8  UNL     1      12.237 -12.088  22.580  1.00  0.00    -0.200 N 
ATOM     41  H8  UNL     1      12.182 -13.104  22.529  1.00  0.00     0.183 HD
ENDBRANCH  33  35
ENDBRANCH  30  31
ENDBRANCH  27  30
ENDBRANCH  26  27
ENDBRANCH  25  26
ENDBRANCH  24  25
ENDBRANCH  13  24
ENDBRANCH  12  13
ENDBRANCH  11  12
ENDBRANCH   1  11
TORSDOF 12
ENDMDL
MODEL 2
REMARK VINA RESULT: -6.939017244      2.050      4.899
REMARK  12 active torsions:
REMARK  status: ('A' for Active; 'I' for Inactive)
REMARK    1  A    between atoms: C5_6  and  N2_7 
REMARK    2  A    between atoms: N2_7  and  N3_8 
REMARK    3  A    between atoms: N4_11  and  C6_12 
REMARK    4  A    between atoms: N4_11  and  C16_30 
REMARK    5  A    between atoms: C6_12  and  C7_13 
REMARK    6  A    between atoms: C7_13  and  C8_14 
REMARK    7  A    between atoms: C8_14  and  N5_15 
REMARK    8  A    between atoms: N5_15  and  C11_18 
REMARK    9  A    between atoms: C11_18  and  C12_19 
REMARK       I    between atoms: C12_19  and  N6_21 
REMARK   10  A    between atoms: N6_21  and  C13_23 
REMARK   11  A    between atoms: C16_30  and  C17_31 
REMARK   12  A    between atoms: C17_31  and  N9_32 
REMARK       I    between atoms: N9_32  and  C18_34 
REMARK       I    between atoms: C18_34  and  N11_38 
ROOT
HETATM    1  N9  UNL     1      18.635 -13.009  20.663  1.00  0.00    -0.224 N 
ATOM      2  H9  UNL     1      19.537 -13.086  20.195  1.00  0.00     0.177 HD
HETATM    3  C18 UNL     1      17.622 -12.171  20.144  1.00  0.00     0.680 C 
HETATM    4  N10 UNL     1      17.424 -10.988  20.616  1.00  0.00    -0.234 N 
ATOM      5 1H10 UNL     1      16.693 -10.383  20.241  1.00  0.00     0.174 HD
ATOM      6 2H10 UNL     1      18.031 -10.683  21.378  1.00  0.00     0.174 HD
HETATM    7  N11 UNL     1      16.777 -12.595  19.080  1.00  0.00    -0.127 N 
ATOM      8  H11 UNL     1      16.456 -13.563  19.039  1.00  0.00     0.197 HD
HETATM    9  C19 UNL     1      16.386 -11.688  18.092  1.00  0.00     0.196 C 
HETATM   10  N12 UNL     1      16.060 -10.940  17.251  1.00  0.00    -0.171 NA
ENDROOT
BRANCH   1  11
HETATM   11  C17 UNL     1      18.361 -13.755  21.871  1.00  0.00     0.167 C 
BRANCH  11  12
HETATM   12  C16 UNL     1      19.670 -14.120  22.514  1.00  0.00     0.275 C 
BRANCH  12  13
HETATM   13  N4  UNL     1      19.660 -15.481  23.094  1.00  0.00     0.032 N 
HETATM   14  C2  UNL     1      19.758 -15.383  24.517  1.00  0.00     0.187 C 
HETATM   15  C1  UNL     1      18.669 -15.178  25.502  1.00  0.00     0.097 C 
HETATM   16  N1  UNL     1      20.988 -15.490  24.905  1.00  0.00    -0.360 N 
HETATM   17  C3  UNL     1      21.477 -15.431  26.253  1.00  0.00     0.151 C 
HETATM   18  C4  UNL     1      21.840 -15.705  23.772  1.00  0.00     0.226 C 
HETATM   19  C5  UNL     1      20.881 -16.056  22.689  1.00  0.00     0.302 C 
BRANCH  19  20
HETATM   20  N2  UNL     1      21.194 -16.710  21.677  1.00  0.00    -0.309 NA
BRANCH  20  21
HETATM   21  N3  UNL     1      21.561 -17.045  20.520  1.00  0.00    -0.279 N 
ATOM     22  H32 UNL     1      21.156 -16.223  20.073  1.00  0.00     0.191 HD
ATOM     23  H31 UNL     1      21.966 -17.541  19.727  1.00  0.00     0.191 HD
ENDBRANCH  20  21
ENDBRANCH  19  20
BRANCH  13  24
HETATM   24  C6  UNL     1      18.484 -16.093  22.597  1.00  0.00     0.256 C 
BRANCH  24  25
HETATM   25  C7  UNL     1      18.327 -17.562  22.654  1.00  0.00     0.057 C 
BRANCH  25  26
HETATM   26  C8  UNL     1      17.099 -17.983  23.364  1.00  0.00     0.238 C 
BRANCH  26  27
HETATM   27  N5  UNL     1      16.026 -18.460  22.479  1.00  0.00    -0.066 N 
HETATM   28  C9  UNL     1      15.849 -19.867  22.774  1.00  0.00     0.272 C 
HETATM   29  C10 UNL     1      16.391 -18.326  21.095  1.00  0.00     0.272 C 
BRANCH  27  30
HETATM   30  C11 UNL     1      14.833 -17.712  22.800  1.00  0.00     0.339 C 
BRANCH  30  31
HETATM   31  C12 UNL     1      14.460 -16.700  21.791  1.00  0.00     0.262 C 
HETATM   32  O1  UNL     1      13.553 -16.972  20.928  1.00  0.00    -0.271 OA
HETATM   33  N6  UNL     1      15.050 -15.424  21.713  1.00  0.00    -0.158 N 
ATOM     34  H6  UNL     1      16.063 -15.325  21.645  1.00  0.00     0.187 HD
BRANCH  33  35
HETATM   35  C13 UNL     1      14.292 -14.384  21.727  1.00  0.00     0.684 A 
HETATM   36  N7  UNL     1      14.769 -13.121  21.779  1.00  0.00    -0.200 N 
HETATM   37  C14 UNL     1      13.734 -12.259  21.783  1.00  0.00     0.123 A 
ATOM     38  H7  UNL     1      15.756 -12.863  21.810  1.00  0.00     0.183 HD
HETATM   39  C15 UNL     1      12.598 -13.018  21.732  1.00  0.00     0.123 A 
HETATM   40  N8  UNL     1      12.953 -14.325  21.698  1.00  0.00    -0.200 N 
ATOM     41  H8  UNL     1      12.317 -15.121  21.657  1.00  0.00     0.183 HD
ENDBRANCH  33  35
ENDBRANCH  30  31
ENDBRANCH  27  30
ENDBRANCH  26  27
ENDBRANCH  25  26
ENDBRANCH  24  25
ENDBRANCH  13  24
ENDBRANCH  12  13
ENDBRANCH  11  12
ENDBRANCH   1  11
TORSDOF 12
ENDMDL
MODEL 3
REMARK VINA RESULT: -6.870974421      1.636      4.606
REMARK  12 active torsions:
REMARK  status: ('A' for Active; 'I' for Inactive)
REMARK    1  A    between atoms: C5_6  and  N2_7 
REMARK    2  A    between atoms: N2_7  and  N3_8 
REMARK    3  A    between atoms: N4_11  and  C6_12 
REMARK    4  A    between atoms: N4_11  and  C16_30 
REMARK    5  A    between atoms: C6_12  and  C7_13 
REMARK    6  A    between atoms: C7_13  and  C8_14 
REMARK    7  A    between atoms: C8_14  and  N5_15 
REMARK    8  A    between atoms: N5_15  and  C11_18 
REMARK    9  A    between atoms: C11_18  and  C12_19 
REMARK       I    between atoms: C12_19  and  N6_21 
REMARK   10  A    between atoms: N6_21  and  C13_23 
REMARK   11  A    between atoms: C16_30  and  C17_31 
REMARK   12  A    between atoms: C17_31  and  N9_32 
REMARK       I    between atoms: N9_32  and  C18_34 
REMARK       I    between atoms: C18_34  and  N11_38 
ROOT
HETATM    1  N9  UNL     1      19.730 -14.864  25.228  1.00  0.00    -0.224 N 
ATOM      2  H9  UNL     1      19.953 -15.372  26.084  1.00  0.00     0.177 HD
HETATM    3  C18 UNL     1      20.712 -14.086  24.573  1.00  0.00     0.680 C 
HETATM    4  N10 UNL     1      20.776 -12.810  24.741  1.00  0.00    -0.234 N 
ATOM      5 1H10 UNL     1      21.485 -12.248  24.268  1.00  0.00     0.174 HD
ATOM      6 2H10 UNL     1      20.091 -12.387  25.367  1.00  0.00     0.174 HD
HETATM    7  N11 UNL     1      21.669 -14.676  23.701  1.00  0.00    -0.127 N 
ATOM      8  H11 UNL     1      21.395 -15.444  23.088  1.00  0.00     0.197 HD
HETATM    9  C19 UNL     1      22.985 -14.205  23.683  1.00  0.00     0.196 C 
HETATM   10  N12 UNL     1      24.092 -13.826  23.667  1.00  0.00    -0.171 NA
ENDROOT
BRANCH   1  11
HETATM   11  C17 UNL     1      18.402 -14.923  24.658  1.00  0.00     0.167 C 
BRANCH  11  12
HETATM   12  C16 UNL     1      18.205 -16.281  24.044  1.00  0.00     0.275 C 
BRANCH  12  13
HETATM   13  N4  UNL     1      17.906 -16.215  22.597  1.00  0.00     0.032 N 
HETATM   14  C2  UNL     1      16.725 -16.976  22.330  1.00  0.00     0.187 C 
HETATM   15  C1  UNL     1      15.310 -16.546  22.434  1.00  0.00     0.097 C 
HETATM   16  N1  UNL     1      17.023 -18.181  21.966  1.00  0.00    -0.360 N 
HETATM   17  C3  UNL     1      16.107 -19.233  21.627  1.00  0.00     0.151 C 
HETATM   18  C4  UNL     1      18.447 -18.339  21.921  1.00  0.00     0.226 C 
HETATM   19  C5  UNL     1      18.945 -16.938  21.978  1.00  0.00     0.302 C 
BRANCH  19  20
HETATM   20  N2  UNL     1      20.062 -16.585  21.556  1.00  0.00    -0.309 NA
BRANCH  20  21
HETATM   21  N3  UNL     1      21.124 -16.483  20.887  1.00  0.00    -0.279 N 
ATOM     22  H32 UNL     1      21.692 -16.977  21.574  1.00  0.00     0.191 HD
ATOM     23  H31 UNL     1      21.807 -16.262  20.163  1.00  0.00     0.191 HD
ENDBRANCH  20  21
ENDBRANCH  19  20
BRANCH  13  24
HETATM   24  C6  UNL     1      17.833 -14.835  22.291  1.00  0.00     0.256 C 
BRANCH  24  25
HETATM   25  C7  UNL     1      17.944 -14.376  20.889  1.00  0.00     0.057 C 
BRANCH  25  26
HETATM   26  C8  UNL     1      16.720 -13.697  20.408  1.00  0.00     0.238 C 
BRANCH  26  27
HETATM   27  N5  UNL     1      16.935 -12.309  19.971  1.00  0.00    -0.066 N 
HETATM   28  C9  UNL     1      16.266 -12.176  18.692  1.00  0.00     0.272 C 
HETATM   29  C10 UNL     1      18.333 -12.029  19.785  1.00  0.00     0.272 C 
BRANCH  27  30
HETATM   30  C11 UNL     1      16.335 -11.444  20.959  1.00  0.00     0.339 C 
BRANCH  30  31
HETATM   31  C12 UNL     1      14.955 -11.815  21.332  1.00  0.00     0.262 C 
HETATM   32  O1  UNL     1      14.745 -12.901  21.979  1.00  0.00    -0.271 OA
HETATM   33  N6  UNL     1      13.826 -11.034  21.017  1.00  0.00    -0.158 N 
ATOM     34  H6  UNL     1      13.642 -10.756  20.053  1.00  0.00     0.187 HD
BRANCH  33  35
HETATM   35  C13 UNL     1      13.030 -10.678  21.962  1.00  0.00     0.684 A 
HETATM   36  N7  UNL     1      12.908  -9.401  22.385  1.00  0.00    -0.200 N 
HETATM   37  C14 UNL     1      12.002  -9.351  23.382  1.00  0.00     0.123 A 
ATOM     38  H7  UNL     1      13.420  -8.602  22.011  1.00  0.00     0.183 HD
HETATM   39  C15 UNL     1      11.562 -10.633  23.568  1.00  0.00     0.123 A 
HETATM   40  N8  UNL     1      12.200 -11.441  22.689  1.00  0.00    -0.200 N 
ATOM     41  H8  UNL     1      12.073 -12.449  22.596  1.00  0.00     0.183 HD
ENDBRANCH  33  35
ENDBRANCH  30  31
ENDBRANCH  27  30
ENDBRANCH  26  27
ENDBRANCH  25  26
ENDBRANCH  24  25
ENDBRANCH  13  24
ENDBRANCH  12  13
ENDBRANCH  11  12
ENDBRANCH   1  11
TORSDOF 12
ENDMDL
MODEL 4
REMARK VINA RESULT: -6.845126835      2.602      5.472
REMARK  12 active torsions:
REMARK  status: ('A' for Active; 'I' for Inactive)
REMARK    1  A    between atoms: C5_6  and  N2_7 
REMARK    2  A    between atoms: N2_7  and  N3_8 
REMARK    3  A    between atoms: N4_11  and  C6_12 
REMARK    4  A    between atoms: N4_11  and  C16_30 
REMARK    5  A    between atoms: C6_12  and  C7_13 
REMARK    6  A    between atoms: C7_13  and  C8_14 
REMARK    7  A    between atoms: C8_14  and  N5_15 
REMARK    8  A    between atoms: N5_15  and  C11_18 
REMARK    9  A    between atoms: C11_18  and  C12_19 
REMARK       I    between atoms: C12_19  and  N6_21 
REMARK   10  A    between atoms: N6_21  and  C13_23 
REMARK   11  A    between atoms: C16_30  and  C17_31 
REMARK   12  A    between atoms: C17_31  and  N9_32 
REMARK       I    between atoms: N9_32  and  C18_34 
REMARK       I    between atoms: C18_34  and  N11_38 
ROOT
HETATM    1  N9  UNL     1      24.024 -16.037  24.800  1.00  0.00    -0.224 N 
ATOM      2  H9  UNL     1      24.462 -16.430  25.633  1.00  0.00     0.177 HD
HETATM    3  C18 UNL     1      24.618 -16.195  23.528  1.00  0.00     0.680 C 
HETATM    4  N10 UNL     1      25.334 -15.260  23.002  1.00  0.00    -0.234 N 
ATOM      5 1H10 UNL     1      25.763 -15.374  22.084  1.00  0.00     0.174 HD
ATOM      6 2H10 UNL     1      25.454 -14.405  23.545  1.00  0.00     0.174 HD
HETATM    7  N11 UNL     1      24.452 -17.389  22.772  1.00  0.00    -0.127 N 
ATOM      8  H11 UNL     1      23.556 -17.876  22.779  1.00  0.00     0.197 HD
HETATM    9  C19 UNL     1      25.515 -17.895  22.019  1.00  0.00     0.196 C 
HETATM   10  N12 UNL     1      26.401 -18.335  21.393  1.00  0.00    -0.171 NA
ENDROOT
BRANCH   1  11
HETATM   11  C17 UNL     1      22.780 -15.306  24.895  1.00  0.00     0.167 C 
BRANCH  11  12
HETATM   12  C16 UNL     1      21.642 -16.282  24.794  1.00  0.00     0.275 C 
BRANCH  12  13
HETATM   13  N4  UNL     1      20.620 -15.867  23.807  1.00  0.00     0.032 N 
HETATM   14  C2  UNL     1      19.320 -16.076  24.365  1.00  0.00     0.187 C 
HETATM   15  C1  UNL     1      18.541 -15.173  25.245  1.00  0.00     0.097 C 
HETATM   16  N1  UNL     1      18.845 -17.226  24.010  1.00  0.00    -0.360 N 
HETATM   17  C3  UNL     1      17.577 -17.787  24.381  1.00  0.00     0.151 C 
HETATM   18  C4  UNL     1      19.773 -17.893  23.146  1.00  0.00     0.226 C 
HETATM   19  C5  UNL     1      20.719 -16.810  22.765  1.00  0.00     0.302 C 
BRANCH  19  20
HETATM   20  N2  UNL     1      21.414 -16.834  21.732  1.00  0.00    -0.309 NA
BRANCH  20  21
HETATM   21  N3  UNL     1      21.862 -17.084  20.582  1.00  0.00    -0.279 N 
ATOM     22  H32 UNL     1      22.272 -17.977  20.855  1.00  0.00     0.191 HD
ATOM     23  H31 UNL     1      22.102 -17.033  19.592  1.00  0.00     0.191 HD
ENDBRANCH  20  21
ENDBRANCH  19  20
BRANCH  13  24
HETATM   24  C6  UNL     1      20.941 -14.529  23.474  1.00  0.00     0.256 C 
BRANCH  24  25
HETATM   25  C7  UNL     1      20.473 -13.946  22.198  1.00  0.00     0.057 C 
BRANCH  25  26
HETATM   26  C8  UNL     1      19.330 -13.023  22.373  1.00  0.00     0.238 C 
BRANCH  26  27
HETATM   27  N5  UNL     1      18.200 -13.288  21.470  1.00  0.00    -0.066 N 
HETATM   28  C9  UNL     1      18.306 -14.680  21.081  1.00  0.00     0.272 C 
HETATM   29  C10 UNL     1      18.274 -12.477  20.285  1.00  0.00     0.272 C 
BRANCH  27  30
HETATM   30  C11 UNL     1      16.984 -13.052  22.213  1.00  0.00     0.339 C 
BRANCH  30  31
HETATM   31  C12 UNL     1      15.840 -12.620  21.386  1.00  0.00     0.262 C 
HETATM   32  O1  UNL     1      14.968 -13.482  21.014  1.00  0.00    -0.271 OA
HETATM   33  N6  UNL     1      15.639 -11.291  20.967  1.00  0.00    -0.158 N 
ATOM     34  H6  UNL     1      16.373 -10.788  20.467  1.00  0.00     0.187 HD
BRANCH  33  35
HETATM   35  C13 UNL     1      14.515 -10.719  21.224  1.00  0.00     0.684 A 
HETATM   36  N7  UNL     1      14.257  -9.428  20.924  1.00  0.00    -0.200 N 
HETATM   37  C14 UNL     1      13.003  -9.126  21.317  1.00  0.00     0.123 A 
ATOM     38  H7  UNL     1      14.906  -8.784  20.473  1.00  0.00     0.183 HD
HETATM   39  C15 UNL     1      12.487 -10.266  21.870  1.00  0.00     0.123 A 
HETATM   40  N8  UNL     1      13.426 -11.240  21.807  1.00  0.00    -0.200 N 
ATOM     41  H8  UNL     1      13.323 -12.198  22.142  1.00  0.00     0.183 HD
ENDBRANCH  33  35
ENDBRANCH  30  31
ENDBRANCH  27  30
ENDBRANCH  26  27
ENDBRANCH  25  26
ENDBRANCH  24  25
ENDBRANCH  13  24
ENDBRANCH  12  13
ENDBRANCH  11  12
ENDBRANCH   1  11
TORSDOF 12
ENDMDL
MODEL 5
REMARK VINA RESULT: -6.716417615      2.095      4.341
REMARK  12 active torsions:
REMARK  status: ('A' for Active; 'I' for Inactive)
REMARK    1  A    between atoms: C5_6  and  N2_7 
REMARK    2  A    between atoms: N2_7  and  N3_8 
REMARK    3  A    between atoms: N4_11  and  C6_12 
REMARK    4  A    between atoms: N4_11  and  C16_30 
REMARK    5  A    between atoms: C6_12  and  C7_13 
REMARK    6  A    between atoms: C7_13  and  C8_14 
REMARK    7  A    between atoms: C8_14  and  N5_15 
REMARK    8  A    between atoms: N5_15  and  C11_18 
REMARK    9  A    between atoms: C11_18  and  C12_19 
REMARK       I    between atoms: C12_19  and  N6_21 
REMARK   10  A    between atoms: N6_21  and  C13_23 
REMARK   11  A    between atoms: C16_30  and  C17_31 
REMARK   12  A    between atoms: C17_31  and  N9_32 
REMARK       I    between atoms: N9_32  and  C18_34 
REMARK       I    between atoms: C18_34  and  N11_38 
ROOT
HETATM    1  N9  UNL     1      19.510 -15.361  26.032  1.00  0.00    -0.224 N 
ATOM      2  H9  UNL     1      19.015 -15.639  26.878  1.00  0.00     0.177 HD
HETATM    3  C18 UNL     1      20.918 -15.456  25.955  1.00  0.00     0.680 C 
HETATM    4  N10 UNL     1      21.671 -14.429  26.153  1.00  0.00    -0.234 N 
ATOM      5 1H10 UNL     1      22.688 -14.498  26.098  1.00  0.00     0.174 HD
ATOM      6 2H10 UNL     1      21.207 -13.547  26.370  1.00  0.00     0.174 HD
HETATM    7  N11 UNL     1      21.565 -16.687  25.653  1.00  0.00    -0.127 N 
ATOM      8  H11 UNL     1      21.154 -17.325  24.971  1.00  0.00     0.197 HD
HETATM    9  C19 UNL     1      22.763 -17.024  26.289  1.00  0.00     0.196 C 
HETATM   10  N12 UNL     1      23.761 -17.321  26.824  1.00  0.00    -0.171 NA
ENDROOT
BRANCH   1  11
HETATM   11  C17 UNL     1      18.788 -14.859  24.883  1.00  0.00     0.167 C 
BRANCH  11  12
HETATM   12  C16 UNL     1      18.466 -16.015  23.978  1.00  0.00     0.275 C 
BRANCH  12  13
HETATM   13  N4  UNL     1      18.615 -15.676  22.545  1.00  0.00     0.032 N 
HETATM   14  C2  UNL     1      18.231 -16.805  21.756  1.00  0.00     0.187 C 
HETATM   15  C1  UNL     1      16.873 -17.197  21.312  1.00  0.00     0.097 C 
HETATM   16  N1  UNL     1      19.261 -17.523  21.444  1.00  0.00    -0.360 N 
HETATM   17  C3  UNL     1      19.269 -18.734  20.672  1.00  0.00     0.151 C 
HETATM   18  C4  UNL     1      20.452 -16.923  21.969  1.00  0.00     0.226 C 
HETATM   19  C5  UNL     1      20.004 -15.554  22.344  1.00  0.00     0.302 C 
BRANCH  19  20
HETATM   20  N2  UNL     1      20.774 -14.581  22.445  1.00  0.00    -0.309 NA
BRANCH  20  21
HETATM   21  N3  UNL     1      21.319 -13.502  22.798  1.00  0.00    -0.279 N 
ATOM     22  H32 UNL     1      20.796 -13.437  23.671  1.00  0.00     0.191 HD
ATOM     23  H31 UNL     1      21.898 -12.663  22.834  1.00  0.00     0.191 HD
ENDBRANCH  20  21
ENDBRANCH  19  20
BRANCH  13  24
HETATM   24  C6  UNL     1      17.849 -14.502  22.355  1.00  0.00     0.256 C 
BRANCH  24  25
HETATM   25  C7  UNL     1      17.790 -13.857  21.026  1.00  0.00     0.057 C 
BRANCH  25  26
HETATM   26  C8  UNL     1      16.501 -13.174  20.774  1.00  0.00     0.238 C 
BRANCH  26  27
HETATM   27  N5  UNL     1      16.626 -11.908  20.036  1.00  0.00    -0.066 N 
HETATM   28  C9  UNL     1      16.293 -12.205  18.657  1.00  0.00     0.272 C 
HETATM   29  C10 UNL     1      17.971 -11.405  20.082  1.00  0.00     0.272 C 
BRANCH  27  30
HETATM   30  C11 UNL     1      15.679 -10.978  20.606  1.00  0.00     0.339 C 
BRANCH  30  31
HETATM   31  C12 UNL     1      14.560 -11.617  21.327  1.00  0.00     0.262 C 
HETATM   32  O1  UNL     1      14.800 -12.571  22.149  1.00  0.00    -0.271 OA
HETATM   33  N6  UNL     1      13.213 -11.238  21.169  1.00  0.00    -0.158 N 
ATOM     34  H6  UNL     1      12.787 -11.213  20.243  1.00  0.00     0.187 HD
BRANCH  33  35
HETATM   35  C13 UNL     1      12.526 -10.924  22.211  1.00  0.00     0.684 A 
HETATM   36  N7  UNL     1      11.865 -11.832  22.962  1.00  0.00    -0.200 N 
HETATM   37  C14 UNL     1      11.243 -11.196  23.975  1.00  0.00     0.123 A 
ATOM     38  H7  UNL     1      11.840 -12.837  22.790  1.00  0.00     0.183 HD
HETATM   39  C15 UNL     1      11.536  -9.867  23.836  1.00  0.00     0.123 A 
HETATM   40  N8  UNL     1      12.326  -9.711  22.747  1.00  0.00    -0.200 N 
ATOM     41  H8  UNL     1      12.702  -8.830  22.397  1.00  0.00     0.183 HD
ENDBRANCH  33  35
ENDBRANCH  30  31
ENDBRANCH  27  30
ENDBRANCH  26  27
ENDBRANCH  25  26
ENDBRANCH  24  25
ENDBRANCH  13  24
ENDBRANCH  12  13
ENDBRANCH  11  12
ENDBRANCH   1  11
TORSDOF 12
ENDMDL
