MODEL 1
REMARK VINA RESULT: -8.951302726      0.000      0.000
REMARK  7 active torsions:
REMARK  status: ('A' for Active; 'I' for Inactive)
REMARK    1  A    between atoms: C10_13  and  C11_14 
REMARK    2  A    between atoms: C11_14  and  C12_15 
REMARK    3  A    between atoms: C12_15  and  C13_16 
REMARK    4  A    between atoms: C13_16  and  C14_17 
REMARK    5  A    between atoms: C14_17  and  C15_18 
REMARK    6  A    between atoms: C18_25  and  O5_26 
REMARK    7  A    between atoms: C19_28  and  O6_29 
ROOT
HETATM    1  C11 UNL     1       9.739  22.267  24.258  1.00  0.00     0.010 C 
ENDROOT
BRANCH   1   2
HETATM    2  C10 UNL     1       9.277  22.546  22.876  1.00  0.00     0.051 C 
HETATM    3  C5  UNL     1       7.856  22.182  22.530  1.00  0.00     0.203 C 
HETATM    4  O3  UNL     1       7.796  22.237  21.156  1.00  0.00    -0.197 OA
HETATM    5  C6  UNL     1       7.654  20.745  22.958  1.00  0.00     0.072 C 
HETATM    6  O7  UNL     1       6.982  22.964  23.206  1.00  0.00    -0.317 OA
HETATM    7  O2  UNL     1       6.918  22.945  20.577  1.00  0.00    -0.200 OA
HETATM    8  C4  UNL     1       5.743  22.946  21.245  1.00  0.00     0.355 C 
HETATM    9  O1  UNL     1       4.743  23.762  20.797  1.00  0.00    -0.318 OA
HETATM   10  C20 UNL     1       6.073  23.698  22.552  1.00  0.00     0.325 C 
HETATM   11  C2  UNL     1       3.944  23.891  21.943  1.00  0.00     0.163 C 
HETATM   12  C1  UNL     1       3.280  25.234  22.021  1.00  0.00     0.078 C 
HETATM   13  C3  UNL     1       2.956  22.746  21.923  1.00  0.00     0.078 C 
HETATM   14  O8  UNL     1       4.809  23.800  23.055  1.00  0.00    -0.321 OA
HETATM   15  C7  UNL     1       8.672  19.862  22.364  1.00  0.00     0.006 C 
HETATM   16  C8  UNL     1       9.642  20.518  21.461  1.00  0.00     0.001 C 
HETATM   17  C9  UNL     1      10.209  21.820  21.904  1.00  0.00     0.010 C 
ENDBRANCH   1   2
BRANCH   1  18
HETATM   18  C12 UNL     1       9.971  23.483  25.065  1.00  0.00     0.001 C 
BRANCH  18  19
HETATM   19  C13 UNL     1       8.762  23.917  25.898  1.00  0.00     0.003 C 
BRANCH  19  20
HETATM   20  C14 UNL     1       8.251  25.224  25.406  1.00  0.00     0.035 C 
BRANCH  20  21
HETATM   21  C15 UNL     1       6.790  25.448  25.744  1.00  0.00     0.161 C 
HETATM   22  O4  UNL     1       6.616  25.561  27.144  1.00  0.00    -0.332 OA
HETATM   23  C16 UNL     1       5.578  26.347  27.623  1.00  0.00     0.114 C 
HETATM   24  N1  UNL     1       5.579  26.697  28.850  1.00  0.00    -0.383 N 
HETATM   25  C17 UNL     1       4.445  26.810  26.767  1.00  0.00     0.118 C 
ATOM     26  H12 UNL     1       6.352  26.381  29.435  1.00  0.00     0.157 HD
ATOM     27  H11 UNL     1       4.816  27.275  29.202  1.00  0.00     0.157 HD
HETATM   28  C18 UNL     1       4.714  26.629  25.303  1.00  0.00     0.157 C 
HETATM   29  C19 UNL     1       6.231  26.678  25.109  1.00  0.00     0.176 C 
BRANCH  28  30
HETATM   30  O5  UNL     1       4.186  27.706  24.597  1.00  0.00    -0.392 OA
ATOM     31  H5  UNL     1       3.246  27.743  24.729  1.00  0.00     0.210 HD
ENDBRANCH  28  30
BRANCH  29  32
HETATM   32  O6  UNL     1       6.673  27.789  25.820  1.00  0.00    -0.390 OA
ATOM     33  H6  UNL     1       6.025  28.480  25.742  1.00  0.00     0.210 HD
ENDBRANCH  29  32
ENDBRANCH  20  21
ENDBRANCH  19  20
ENDBRANCH  18  19
ENDBRANCH   1  18
TORSDOF 7
ENDMDL
MODEL 2
REMARK VINA RESULT: -8.729479966      1.017      1.087
REMARK  7 active torsions:
REMARK  status: ('A' for Active; 'I' for Inactive)
REMARK    1  A    between atoms: C10_13  and  C11_14 
REMARK    2  A    between atoms: C11_14  and  C12_15 
REMARK    3  A    between atoms: C12_15  and  C13_16 
REMARK    4  A    between atoms: C13_16  and  C14_17 
REMARK    5  A    between atoms: C14_17  and  C15_18 
REMARK    6  A    between atoms: C18_25  and  O5_26 
REMARK    7  A    between atoms: C19_28  and  O6_29 
ROOT
HETATM    1  C11 UNL     1       9.037  21.881  23.861  1.00  0.00     0.010 C 
ENDROOT
BRANCH   1   2
HETATM    2  C10 UNL     1       8.739  22.238  22.452  1.00  0.00     0.051 C 
HETATM    3  C5  UNL     1       7.503  21.643  21.828  1.00  0.00     0.203 C 
HETATM    4  O3  UNL     1       7.642  21.865  20.476  1.00  0.00    -0.197 OA
HETATM    5  C6  UNL     1       7.562  20.152  22.074  1.00  0.00     0.072 C 
HETATM    6  O7  UNL     1       6.385  22.137  22.411  1.00  0.00    -0.317 OA
HETATM    7  O2  UNL     1       6.727  22.450  19.823  1.00  0.00    -0.200 OA
HETATM    8  C4  UNL     1       5.494  22.125  20.270  1.00  0.00     0.355 C 
HETATM    9  O1  UNL     1       4.417  22.774  19.732  1.00  0.00    -0.318 OA
HETATM   10  C20 UNL     1       5.446  22.750  21.680  1.00  0.00     0.325 C 
HETATM   11  C2  UNL     1       3.446  22.586  20.728  1.00  0.00     0.163 C 
HETATM   12  C1  UNL     1       2.497  23.745  20.815  1.00  0.00     0.078 C 
HETATM   13  C3  UNL     1       2.750  21.279  20.424  1.00  0.00     0.078 C 
HETATM   14  O8  UNL     1       4.131  22.528  21.960  1.00  0.00    -0.321 OA
HETATM   15  C7  UNL     1       8.828  19.579  21.587  1.00  0.00     0.006 C 
HETATM   16  C8  UNL     1       9.755  20.530  20.936  1.00  0.00     0.001 C 
HETATM   17  C9  UNL     1       9.945  21.851  21.594  1.00  0.00     0.010 C 
ENDBRANCH   1   2
BRANCH   1  18
HETATM   18  C12 UNL     1       9.108  23.044  24.769  1.00  0.00     0.001 C 
BRANCH  18  19
HETATM   19  C13 UNL     1       7.759  23.449  25.367  1.00  0.00     0.003 C 
BRANCH  19  20
HETATM   20  C14 UNL     1       7.807  24.867  25.814  1.00  0.00     0.035 C 
BRANCH  20  21
HETATM   21  C15 UNL     1       6.437  25.429  26.136  1.00  0.00     0.161 C 
HETATM   22  O4  UNL     1       6.378  25.854  27.484  1.00  0.00    -0.332 OA
HETATM   23  C16 UNL     1       5.534  26.904  27.814  1.00  0.00     0.114 C 
HETATM   24  N1  UNL     1       5.678  27.488  28.939  1.00  0.00    -0.383 N 
HETATM   25  C17 UNL     1       4.450  27.391  26.910  1.00  0.00     0.118 C 
ATOM     26  H12 UNL     1       6.418  27.154  29.557  1.00  0.00     0.157 HD
ATOM     27  H11 UNL     1       5.057  28.260  29.182  1.00  0.00     0.157 HD
HETATM   28  C18 UNL     1       4.585  26.870  25.511  1.00  0.00     0.157 C 
HETATM   29  C19 UNL     1       6.069  26.589  25.270  1.00  0.00     0.176 C 
BRANCH  28  30
HETATM   30  O5  UNL     1       4.215  27.863  24.607  1.00  0.00    -0.392 OA
ATOM     31  H5  UNL     1       3.390  28.249  24.878  1.00  0.00     0.210 HD
ENDBRANCH  28  30
BRANCH  29  32
HETATM   32  O6  UNL     1       6.751  27.716  25.719  1.00  0.00    -0.390 OA
ATOM     33  H6  UNL     1       6.117  28.382  25.957  1.00  0.00     0.210 HD
ENDBRANCH  29  32
ENDBRANCH  20  21
ENDBRANCH  19  20
ENDBRANCH  18  19
ENDBRANCH   1  18
TORSDOF 7
ENDMDL
MODEL 3
REMARK VINA RESULT: -8.620668778      1.508      1.810
REMARK  7 active torsions:
REMARK  status: ('A' for Active; 'I' for Inactive)
REMARK    1  A    between atoms: C10_13  and  C11_14 
REMARK    2  A    between atoms: C11_14  and  C12_15 
REMARK    3  A    between atoms: C12_15  and  C13_16 
REMARK    4  A    between atoms: C13_16  and  C14_17 
REMARK    5  A    between atoms: C14_17  and  C15_18 
REMARK    6  A    between atoms: C18_25  and  O5_26 
REMARK    7  A    between atoms: C19_28  and  O6_29 
ROOT
HETATM    1  C11 UNL     1       7.580  21.536  24.504  1.00  0.00     0.010 C 
ENDROOT
BRANCH   1   2
HETATM    2  C10 UNL     1       7.598  21.757  23.037  1.00  0.00     0.051 C 
HETATM    3  C5  UNL     1       6.534  21.075  22.216  1.00  0.00     0.203 C 
HETATM    4  O3  UNL     1       6.966  21.179  20.913  1.00  0.00    -0.197 OA
HETATM    5  C6  UNL     1       6.546  19.614  22.607  1.00  0.00     0.072 C 
HETATM    6  O7  UNL     1       5.312  21.590  22.492  1.00  0.00    -0.317 OA
HETATM    7  O2  UNL     1       6.214  21.678  20.024  1.00  0.00    -0.200 OA
HETATM    8  C4  UNL     1       4.915  21.362  20.219  1.00  0.00     0.355 C 
HETATM    9  O1  UNL     1       3.979  21.931  19.400  1.00  0.00    -0.318 OA
HETATM   10  C20 UNL     1       4.554  22.110  21.519  1.00  0.00     0.325 C 
HETATM   11  C2  UNL     1       2.813  21.808  20.171  1.00  0.00     0.163 C 
HETATM   12  C1  UNL     1       1.861  22.944  19.940  1.00  0.00     0.078 C 
HETATM   13  C3  UNL     1       2.210  20.460  19.847  1.00  0.00     0.078 C 
HETATM   14  O8  UNL     1       3.210  21.879  21.524  1.00  0.00    -0.321 OA
HETATM   15  C7  UNL     1       7.892  19.034  22.465  1.00  0.00     0.006 C 
HETATM   16  C8  UNL     1       8.934  19.947  21.947  1.00  0.00     0.001 C 
HETATM   17  C9  UNL     1       8.966  21.326  22.505  1.00  0.00     0.010 C 
ENDBRANCH   1   2
BRANCH   1  18
HETATM   18  C12 UNL     1       7.038  22.676  25.273  1.00  0.00     0.001 C 
BRANCH  18  19
HETATM   19  C13 UNL     1       8.111  23.565  25.906  1.00  0.00     0.003 C 
BRANCH  19  20
HETATM   20  C14 UNL     1       7.867  24.987  25.548  1.00  0.00     0.035 C 
BRANCH  20  21
HETATM   21  C15 UNL     1       6.489  25.467  25.958  1.00  0.00     0.161 C 
HETATM   22  O4  UNL     1       6.477  25.835  27.325  1.00  0.00    -0.332 OA
HETATM   23  C16 UNL     1       5.601  26.828  27.738  1.00  0.00     0.114 C 
HETATM   24  N1  UNL     1       5.773  27.373  28.879  1.00  0.00    -0.383 N 
HETATM   25  C17 UNL     1       4.452  27.297  26.908  1.00  0.00     0.118 C 
ATOM     26  H12 UNL     1       6.558  27.052  29.446  1.00  0.00     0.157 HD
ATOM     27  H11 UNL     1       5.129  28.103  29.182  1.00  0.00     0.157 HD
HETATM   28  C18 UNL     1       4.542  26.840  25.483  1.00  0.00     0.157 C 
HETATM   29  C19 UNL     1       6.024  26.641  25.161  1.00  0.00     0.176 C 
BRANCH  28  30
HETATM   30  O5  UNL     1       4.081  27.848  24.641  1.00  0.00    -0.392 OA
ATOM     31  H5  UNL     1       4.821  28.278  24.227  1.00  0.00     0.210 HD
ENDBRANCH  28  30
BRANCH  29  32
HETATM   32  O6  UNL     1       6.673  27.782  25.624  1.00  0.00    -0.390 OA
ATOM     33  H6  UNL     1       6.075  28.271  26.176  1.00  0.00     0.210 HD
ENDBRANCH  29  32
ENDBRANCH  20  21
ENDBRANCH  19  20
ENDBRANCH  18  19
ENDBRANCH   1  18
TORSDOF 7
ENDMDL
MODEL 4
REMARK VINA RESULT: -8.241157435      2.665      5.980
REMARK  7 active torsions:
REMARK  status: ('A' for Active; 'I' for Inactive)
REMARK    1  A    between atoms: C10_13  and  C11_14 
REMARK    2  A    between atoms: C11_14  and  C12_15 
REMARK    3  A    between atoms: C12_15  and  C13_16 
REMARK    4  A    between atoms: C13_16  and  C14_17 
REMARK    5  A    between atoms: C14_17  and  C15_18 
REMARK    6  A    between atoms: C18_25  and  O5_26 
REMARK    7  A    between atoms: C19_28  and  O6_29 
ROOT
HETATM    1  C11 UNL     1       5.308  20.277  22.850  1.00  0.00     0.010 C 
ENDROOT
BRANCH   1   2
HETATM    2  C10 UNL     1       4.744  21.537  22.306  1.00  0.00     0.051 C 
HETATM    3  C5  UNL     1       4.239  22.558  23.293  1.00  0.00     0.203 C 
HETATM    4  O3  UNL     1       3.498  23.444  22.544  1.00  0.00    -0.197 OA
HETATM    5  C6  UNL     1       3.303  21.833  24.234  1.00  0.00     0.072 C 
HETATM    6  O7  UNL     1       5.262  23.079  24.010  1.00  0.00    -0.317 OA
HETATM    7  O2  UNL     1       3.743  24.687  22.589  1.00  0.00    -0.200 OA
HETATM    8  C4  UNL     1       4.118  25.088  23.824  1.00  0.00     0.355 C 
HETATM    9  O1  UNL     1       4.526  26.382  23.991  1.00  0.00    -0.318 OA
HETATM   10  C20 UNL     1       5.485  24.399  24.026  1.00  0.00     0.325 C 
HETATM   11  C2  UNL     1       5.282  26.293  25.169  1.00  0.00     0.163 C 
HETATM   12  C1  UNL     1       6.424  27.266  25.181  1.00  0.00     0.078 C 
HETATM   13  C3  UNL     1       4.325  26.495  26.323  1.00  0.00     0.078 C 
HETATM   14  O8  UNL     1       5.848  25.001  25.194  1.00  0.00    -0.321 OA
HETATM   15  C7  UNL     1       2.245  21.123  23.496  1.00  0.00     0.006 C 
HETATM   16  C8  UNL     1       2.273  21.279  22.026  1.00  0.00     0.001 C 
HETATM   17  C9  UNL     1       3.599  21.178  21.357  1.00  0.00     0.010 C 
ENDBRANCH   1   2
BRANCH   1  18
HETATM   18  C12 UNL     1       6.105  19.509  21.871  1.00  0.00     0.001 C 
BRANCH  18  19
HETATM   19  C13 UNL     1       7.330  18.817  22.472  1.00  0.00     0.003 C 
BRANCH  19  20
HETATM   20  C14 UNL     1       7.675  19.442  23.777  1.00  0.00     0.035 C 
BRANCH  20  21
HETATM   21  C15 UNL     1       8.939  20.275  23.712  1.00  0.00     0.161 C 
HETATM   22  O4  UNL     1       9.484  20.251  22.407  1.00  0.00    -0.332 OA
HETATM   23  C16 UNL     1      10.200  21.354  21.965  1.00  0.00     0.114 C 
HETATM   24  N1  UNL     1      10.444  21.479  20.719  1.00  0.00    -0.383 N 
HETATM   25  C17 UNL     1      10.708  22.416  22.884  1.00  0.00     0.118 C 
ATOM     26  H12 UNL     1      10.098  20.753  20.091  1.00  0.00     0.157 HD
ATOM     27  H11 UNL     1      10.970  22.290  20.394  1.00  0.00     0.157 HD
HETATM   28  C18 UNL     1      10.090  22.346  24.247  1.00  0.00     0.157 C 
HETATM   29  C19 UNL     1       8.711  21.702  24.091  1.00  0.00     0.176 C 
BRANCH  28  30
HETATM   30  O5  UNL     1       9.876  23.636  24.728  1.00  0.00    -0.392 OA
ATOM     31  H5  UNL     1       9.886  24.250  24.003  1.00  0.00     0.210 HD
ENDBRANCH  28  30
BRANCH  29  32
HETATM   32  O6  UNL     1       8.102  22.355  23.024  1.00  0.00    -0.390 OA
ATOM     33  H6  UNL     1       8.755  22.525  22.356  1.00  0.00     0.210 HD
ENDBRANCH  29  32
ENDBRANCH  20  21
ENDBRANCH  19  20
ENDBRANCH  18  19
ENDBRANCH   1  18
TORSDOF 7
ENDMDL
MODEL 5
REMARK VINA RESULT: -8.166552055      2.346      5.420
REMARK  7 active torsions:
REMARK  status: ('A' for Active; 'I' for Inactive)
REMARK    1  A    between atoms: C10_13  and  C11_14 
REMARK    2  A    between atoms: C11_14  and  C12_15 
REMARK    3  A    between atoms: C12_15  and  C13_16 
REMARK    4  A    between atoms: C13_16  and  C14_17 
REMARK    5  A    between atoms: C14_17  and  C15_18 
REMARK    6  A    between atoms: C18_25  and  O5_26 
REMARK    7  A    between atoms: C19_28  and  O6_29 
ROOT
HETATM    1  C11 UNL     1       6.441  20.352  21.655  1.00  0.00     0.010 C 
ENDROOT
BRANCH   1   2
HETATM    2  C10 UNL     1       6.668  20.614  23.098  1.00  0.00     0.051 C 
HETATM    3  C5  UNL     1       7.155  21.985  23.490  1.00  0.00     0.203 C 
HETATM    4  O3  UNL     1       7.581  21.855  24.792  1.00  0.00    -0.197 OA
HETATM    5  C6  UNL     1       8.358  22.288  22.624  1.00  0.00     0.072 C 
HETATM    6  O7  UNL     1       6.203  22.918  23.254  1.00  0.00    -0.317 OA
HETATM    7  O2  UNL     1       7.133  22.624  25.695  1.00  0.00    -0.200 OA
HETATM    8  C4  UNL     1       6.923  23.878  25.238  1.00  0.00     0.355 C 
HETATM    9  O1  UNL     1       6.331  24.783  26.075  1.00  0.00    -0.318 OA
HETATM   10  C20 UNL     1       5.758  23.707  24.240  1.00  0.00     0.325 C 
HETATM   11  C2  UNL     1       5.827  25.725  25.166  1.00  0.00     0.163 C 
HETATM   12  C1  UNL     1       4.553  26.352  25.650  1.00  0.00     0.078 C 
HETATM   13  C3  UNL     1       6.925  26.736  24.926  1.00  0.00     0.078 C 
HETATM   14  O8  UNL     1       5.511  25.023  23.984  1.00  0.00    -0.321 OA
HETATM   15  C7  UNL     1       9.373  21.226  22.729  1.00  0.00     0.006 C 
HETATM   16  C8  UNL     1       9.053  20.122  23.659  1.00  0.00     0.001 C 
HETATM   17  C9  UNL     1       7.668  19.581  23.620  1.00  0.00     0.010 C 
ENDBRANCH   1   2
BRANCH   1  18
HETATM   18  C12 UNL     1       5.170  19.655  21.368  1.00  0.00     0.001 C 
BRANCH  18  19
HETATM   19  C13 UNL     1       3.922  20.479  21.696  1.00  0.00     0.003 C 
BRANCH  19  20
HETATM   20  C14 UNL     1       3.751  21.562  20.692  1.00  0.00     0.035 C 
BRANCH  20  21
HETATM   21  C15 UNL     1       2.702  22.578  21.097  1.00  0.00     0.161 C 
HETATM   22  O4  UNL     1       3.299  23.665  21.779  1.00  0.00    -0.332 OA
HETATM   23  C16 UNL     1       2.707  24.915  21.683  1.00  0.00     0.114 C 
HETATM   24  N1  UNL     1       3.371  25.946  22.035  1.00  0.00    -0.383 N 
HETATM   25  C17 UNL     1       1.314  25.121  21.184  1.00  0.00     0.118 C 
ATOM     26  H12 UNL     1       4.322  25.806  22.377  1.00  0.00     0.157 HD
ATOM     27  H11 UNL     1       2.936  26.866  21.965  1.00  0.00     0.157 HD
HETATM   28  C18 UNL     1       0.761  23.909  20.497  1.00  0.00     0.157 C 
HETATM   29  C19 UNL     1       1.946  23.125  19.931  1.00  0.00     0.176 C 
BRANCH  28  30
HETATM   30  O5  UNL     1      -0.013  24.304  19.409  1.00  0.00    -0.392 OA
ATOM     31  H5  UNL     1      -0.619  23.608  19.181  1.00  0.00     0.210 HD
ENDBRANCH  28  30
BRANCH  29  32
HETATM   32  O6  UNL     1       2.746  24.057  19.277  1.00  0.00    -0.390 OA
ATOM     33  H6  UNL     1       2.769  23.844  18.351  1.00  0.00     0.210 HD
ENDBRANCH  29  32
ENDBRANCH  20  21
ENDBRANCH  19  20
ENDBRANCH  18  19
ENDBRANCH   1  18
TORSDOF 7
ENDMDL
