MODEL 1
REMARK VINA RESULT: -7.061993624      0.000      0.000
REMARK  7 active torsions:
REMARK  status: ('A' for Active; 'I' for Inactive)
REMARK    1  A    between atoms: C2_2  and  C3_3 
REMARK    2  A    between atoms: C3_3  and  N1_4 
REMARK    3  A    between atoms: C3_3  and  N2_7 
REMARK    4  A    between atoms: N2_7  and  C4_9 
REMARK    5  A    between atoms: C4_9  and  C5_10 
REMARK    6  A    between atoms: C5_10  and  N3_11 
REMARK    7  A    between atoms: N3_11  and  C6_13 
ROOT
HETATM    1  C6  UNL     1      69.630  -3.600  32.369  1.00  0.00     0.114 A 
HETATM    2  N4  UNL     1      70.815  -4.040  31.925  1.00  0.00    -0.338 N 
ATOM      3  H4  UNL     1      71.050  -5.027  32.018  1.00  0.00     0.168 HD
HETATM    4  C7  UNL     1      71.712  -3.191  31.351  1.00  0.00     0.182 A 
HETATM    5  N5  UNL     1      71.401  -1.897  31.232  1.00  0.00    -0.352 N 
ATOM      6  H5  UNL     1      72.083  -1.273  30.800  1.00  0.00     0.166 HD
HETATM    7  C8  UNL     1      70.240  -1.376  31.648  1.00  0.00     0.047 A 
HETATM    8  C9  UNL     1      69.938  -0.038  31.515  1.00  0.00     0.030 A 
HETATM    9  C10 UNL     1      68.717   0.477  31.959  1.00  0.00     0.002 A 
HETATM   10  C11 UNL     1      67.807  -0.381  32.540  1.00  0.00     0.001 A 
HETATM   11  C12 UNL     1      68.139  -1.715  32.659  1.00  0.00     0.017 A 
HETATM   12  C13 UNL     1      69.330  -2.259  32.234  1.00  0.00     0.034 A 
ENDROOT
BRANCH   1  13
HETATM   13  N3  UNL     1      68.793  -4.406  32.907  1.00  0.00    -0.374 N 
ATOM     14  H3  UNL     1      68.176  -4.013  33.617  1.00  0.00     0.161 HD
BRANCH  13  15
HETATM   15  C5  UNL     1      68.630  -5.795  32.618  1.00  0.00     0.141 C 
BRANCH  15  16
HETATM   16  C4  UNL     1      69.089  -6.712  33.733  1.00  0.00     0.141 C 
BRANCH  16  17
HETATM   17  N2  UNL     1      70.088  -7.651  33.321  1.00  0.00    -0.375 N 
ATOM     18  H2  UNL     1      71.073  -7.402  33.411  1.00  0.00     0.161 HD
BRANCH  17  19
HETATM   19  C3  UNL     1      69.743  -8.918  32.791  1.00  0.00     0.093 C 
BRANCH  19  20
HETATM   20  C2  UNL     1      68.453  -9.508  33.117  1.00  0.00     0.037 C 
HETATM   21  C1  UNL     1      68.279 -10.827  33.057  1.00  0.00     0.015 C 
ENDBRANCH  19  20
BRANCH  19  22
HETATM   22  N1  UNL     1      70.551  -9.568  32.016  1.00  0.00    -0.386 N 
ATOM     23  H12 UNL     1      70.756 -10.555  32.171  1.00  0.00     0.157 HD
ATOM     24  H11 UNL     1      70.990  -9.076  31.238  1.00  0.00     0.157 HD
ENDBRANCH  19  22
ENDBRANCH  17  19
ENDBRANCH  16  17
ENDBRANCH  15  16
ENDBRANCH  13  15
ENDBRANCH   1  13
TORSDOF 7
ENDMDL
MODEL 2
REMARK VINA RESULT: -6.700767469      1.624      2.563
REMARK  7 active torsions:
REMARK  status: ('A' for Active; 'I' for Inactive)
REMARK    1  A    between atoms: C2_2  and  C3_3 
REMARK    2  A    between atoms: C3_3  and  N1_4 
REMARK    3  A    between atoms: C3_3  and  N2_7 
REMARK    4  A    between atoms: N2_7  and  C4_9 
REMARK    5  A    between atoms: C4_9  and  C5_10 
REMARK    6  A    between atoms: C5_10  and  N3_11 
REMARK    7  A    between atoms: N3_11  and  C6_13 
ROOT
HETATM    1  C6  UNL     1      69.599  -4.907  32.351  1.00  0.00     0.114 A 
HETATM    2  N4  UNL     1      68.295  -5.199  32.252  1.00  0.00    -0.338 N 
ATOM      3  H4  UNL     1      67.968  -6.128  32.513  1.00  0.00     0.168 HD
HETATM    4  C7  UNL     1      67.399  -4.275  31.808  1.00  0.00     0.182 A 
HETATM    5  N5  UNL     1      67.831  -3.058  31.466  1.00  0.00    -0.352 N 
ATOM      6  H5  UNL     1      67.147  -2.378  31.134  1.00  0.00     0.166 HD
HETATM    7  C8  UNL     1      69.115  -2.685  31.535  1.00  0.00     0.047 A 
HETATM    8  C9  UNL     1      69.542  -1.424  31.178  1.00  0.00     0.030 A 
HETATM    9  C10 UNL     1      70.889  -1.064  31.262  1.00  0.00     0.002 A 
HETATM   10  C11 UNL     1      71.799  -1.998  31.712  1.00  0.00     0.001 A 
HETATM   11  C12 UNL     1      71.341  -3.251  32.062  1.00  0.00     0.017 A 
HETATM   12  C13 UNL     1      70.023  -3.644  31.993  1.00  0.00     0.034 A 
ENDROOT
BRANCH   1  13
HETATM   13  N3  UNL     1      70.435  -5.782  32.771  1.00  0.00    -0.374 N 
ATOM     14  H3  UNL     1      71.409  -5.488  32.832  1.00  0.00     0.161 HD
BRANCH  13  15
HETATM   15  C5  UNL     1      70.149  -7.126  33.161  1.00  0.00     0.141 C 
BRANCH  15  16
HETATM   16  C4  UNL     1      69.792  -8.039  32.007  1.00  0.00     0.141 C 
BRANCH  16  17
HETATM   17  N2  UNL     1      70.400  -9.332  32.097  1.00  0.00    -0.375 N 
ATOM     18  H2  UNL     1      71.375  -9.445  31.815  1.00  0.00     0.161 HD
BRANCH  17  19
HETATM   19  C3  UNL     1      69.684 -10.459  32.568  1.00  0.00     0.093 C 
BRANCH  19  20
HETATM   20  C2  UNL     1      68.386 -10.276  33.199  1.00  0.00     0.037 C 
HETATM   21  C1  UNL     1      67.507 -11.275  33.240  1.00  0.00     0.015 C 
ENDBRANCH  19  20
BRANCH  19  22
HETATM   22  N1  UNL     1      70.159 -11.658  32.449  1.00  0.00    -0.386 N 
ATOM     23  H12 UNL     1      69.552 -12.477  32.495  1.00  0.00     0.157 HD
ATOM     24  H11 UNL     1      71.161 -11.779  32.307  1.00  0.00     0.157 HD
ENDBRANCH  19  22
ENDBRANCH  17  19
ENDBRANCH  16  17
ENDBRANCH  15  16
ENDBRANCH  13  15
ENDBRANCH   1  13
TORSDOF 7
ENDMDL
MODEL 3
REMARK VINA RESULT: -6.579401234      0.988      1.250
REMARK  7 active torsions:
REMARK  status: ('A' for Active; 'I' for Inactive)
REMARK    1  A    between atoms: C2_2  and  C3_3 
REMARK    2  A    between atoms: C3_3  and  N1_4 
REMARK    3  A    between atoms: C3_3  and  N2_7 
REMARK    4  A    between atoms: N2_7  and  C4_9 
REMARK    5  A    between atoms: C4_9  and  C5_10 
REMARK    6  A    between atoms: C5_10  and  N3_11 
REMARK    7  A    between atoms: N3_11  and  C6_13 
ROOT
HETATM    1  C6  UNL     1      69.537  -3.462  32.650  1.00  0.00     0.114 A 
HETATM    2  N4  UNL     1      70.671  -4.006  32.188  1.00  0.00    -0.338 N 
ATOM      3  H4  UNL     1      70.875  -4.986  32.386  1.00  0.00     0.168 HD
HETATM    4  C7  UNL     1      71.557  -3.274  31.458  1.00  0.00     0.182 A 
HETATM    5  N5  UNL     1      71.288  -1.991  31.202  1.00  0.00    -0.352 N 
ATOM      6  H5  UNL     1      71.962  -1.455  30.654  1.00  0.00     0.166 HD
HETATM    7  C8  UNL     1      70.179  -1.371  31.625  1.00  0.00     0.047 A 
HETATM    8  C9  UNL     1      69.919  -0.046  31.349  1.00  0.00     0.030 A 
HETATM    9  C10 UNL     1      68.752   0.574  31.804  1.00  0.00     0.002 A 
HETATM   10  C11 UNL     1      67.853  -0.167  32.543  1.00  0.00     0.001 A 
HETATM   11  C12 UNL     1      68.142  -1.490  32.802  1.00  0.00     0.017 A 
HETATM   12  C13 UNL     1      69.279  -2.135  32.372  1.00  0.00     0.034 A 
ENDROOT
BRANCH   1  13
HETATM   13  N3  UNL     1      68.710  -4.159  33.335  1.00  0.00    -0.374 N 
ATOM     14  H3  UNL     1      68.379  -3.745  34.206  1.00  0.00     0.161 HD
BRANCH  13  15
HETATM   15  C5  UNL     1      68.201  -5.454  33.011  1.00  0.00     0.141 C 
BRANCH  15  16
HETATM   16  C4  UNL     1      68.389  -6.481  34.109  1.00  0.00     0.141 C 
BRANCH  16  17
HETATM   17  N2  UNL     1      69.567  -7.277  33.945  1.00  0.00    -0.375 N 
ATOM     18  H2  UNL     1      70.449  -6.949  34.341  1.00  0.00     0.161 HD
BRANCH  17  19
HETATM   19  C3  UNL     1      69.540  -8.509  33.248  1.00  0.00     0.093 C 
BRANCH  19  20
HETATM   20  C2  UNL     1      69.996  -8.565  31.867  1.00  0.00     0.037 C 
HETATM   21  C1  UNL     1      69.423  -7.806  30.935  1.00  0.00     0.015 C 
ENDBRANCH  19  20
BRANCH  19  22
HETATM   22  N1  UNL     1      69.119  -9.594  33.813  1.00  0.00    -0.386 N 
ATOM     23  H12 UNL     1      69.766 -10.329  34.100  1.00  0.00     0.157 HD
ATOM     24  H11 UNL     1      68.118  -9.712  33.970  1.00  0.00     0.157 HD
ENDBRANCH  19  22
ENDBRANCH  17  19
ENDBRANCH  16  17
ENDBRANCH  15  16
ENDBRANCH  13  15
ENDBRANCH   1  13
TORSDOF 7
ENDMDL
MODEL 4
REMARK VINA RESULT: -6.408901823      1.357      2.575
REMARK  7 active torsions:
REMARK  status: ('A' for Active; 'I' for Inactive)
REMARK    1  A    between atoms: C2_2  and  C3_3 
REMARK    2  A    between atoms: C3_3  and  N1_4 
REMARK    3  A    between atoms: C3_3  and  N2_7 
REMARK    4  A    between atoms: N2_7  and  C4_9 
REMARK    5  A    between atoms: C4_9  and  C5_10 
REMARK    6  A    between atoms: C5_10  and  N3_11 
REMARK    7  A    between atoms: N3_11  and  C6_13 
ROOT
HETATM    1  C6  UNL     1      68.277  -2.662  32.042  1.00  0.00     0.114 A 
HETATM    2  N4  UNL     1      67.438  -1.651  32.302  1.00  0.00    -0.338 N 
ATOM      3  H4  UNL     1      66.447  -1.845  32.445  1.00  0.00     0.168 HD
HETATM    4  C7  UNL     1      67.885  -0.367  32.379  1.00  0.00     0.182 A 
HETATM    5  N5  UNL     1      69.184  -0.115  32.191  1.00  0.00    -0.352 N 
ATOM      6  H5  UNL     1      69.502   0.852  32.251  1.00  0.00     0.166 HD
HETATM    7  C8  UNL     1      70.088  -1.066  31.927  1.00  0.00     0.047 A 
HETATM    8  C9  UNL     1      71.424  -0.787  31.736  1.00  0.00     0.030 A 
HETATM    9  C10 UNL     1      72.345  -1.801  31.463  1.00  0.00     0.002 A 
HETATM   10  C11 UNL     1      71.895  -3.103  31.385  1.00  0.00     0.001 A 
HETATM   11  C12 UNL     1      70.552  -3.350  31.580  1.00  0.00     0.017 A 
HETATM   12  C13 UNL     1      69.615  -2.379  31.851  1.00  0.00     0.034 A 
ENDROOT
BRANCH   1  13
HETATM   13  N3  UNL     1      67.848  -3.866  31.972  1.00  0.00    -0.374 N 
ATOM     14  H3  UNL     1      67.153  -4.060  31.251  1.00  0.00     0.161 HD
BRANCH  13  15
HETATM   15  C5  UNL     1      68.238  -4.968  32.794  1.00  0.00     0.141 C 
BRANCH  15  16
HETATM   16  C4  UNL     1      68.598  -6.217  32.017  1.00  0.00     0.141 C 
BRANCH  16  17
HETATM   17  N2  UNL     1      69.715  -6.924  32.567  1.00  0.00    -0.375 N 
ATOM     18  H2  UNL     1      70.469  -6.398  33.009  1.00  0.00     0.161 HD
BRANCH  17  19
HETATM   19  C3  UNL     1      69.799  -8.337  32.513  1.00  0.00     0.093 C 
BRANCH  19  20
HETATM   20  C2  UNL     1      69.089  -9.139  33.497  1.00  0.00     0.037 C 
HETATM   21  C1  UNL     1      68.394 -10.210  33.121  1.00  0.00     0.015 C 
ENDBRANCH  19  20
BRANCH  19  22
HETATM   22  N1  UNL     1      70.496  -8.936  31.602  1.00  0.00    -0.386 N 
ATOM     23  H12 UNL     1      71.260  -9.567  31.846  1.00  0.00     0.157 HD
ATOM     24  H11 UNL     1      70.273  -8.769  30.621  1.00  0.00     0.157 HD
ENDBRANCH  19  22
ENDBRANCH  17  19
ENDBRANCH  16  17
ENDBRANCH  15  16
ENDBRANCH  13  15
ENDBRANCH   1  13
TORSDOF 7
ENDMDL
MODEL 5
REMARK VINA RESULT: -6.131423755      1.840      7.852
REMARK  7 active torsions:
REMARK  status: ('A' for Active; 'I' for Inactive)
REMARK    1  A    between atoms: C2_2  and  C3_3 
REMARK    2  A    between atoms: C3_3  and  N1_4 
REMARK    3  A    between atoms: C3_3  and  N2_7 
REMARK    4  A    between atoms: N2_7  and  C4_9 
REMARK    5  A    between atoms: C4_9  and  C5_10 
REMARK    6  A    between atoms: C5_10  and  N3_11 
REMARK    7  A    between atoms: N3_11  and  C6_13 
ROOT
HETATM    1  C6  UNL     1      68.944  -8.722  33.017  1.00  0.00     0.114 A 
HETATM    2  N4  UNL     1      70.125  -8.381  32.484  1.00  0.00    -0.338 N 
ATOM      3  H4  UNL     1      70.408  -7.402  32.479  1.00  0.00     0.168 HD
HETATM    4  C7  UNL     1      70.952  -9.320  31.947  1.00  0.00     0.182 A 
HETATM    5  N5  UNL     1      70.576 -10.602  31.954  1.00  0.00    -0.352 N 
ATOM      6  H5  UNL     1      71.207 -11.292  31.547  1.00  0.00     0.166 HD
HETATM    7  C8  UNL     1      69.415 -11.027  32.466  1.00  0.00     0.047 A 
HETATM    8  C9  UNL     1      69.046 -12.355  32.465  1.00  0.00     0.030 A 
HETATM    9  C10 UNL     1      67.827 -12.769  33.008  1.00  0.00     0.002 A 
HETATM   10  C11 UNL     1      66.987 -11.820  33.553  1.00  0.00     0.001 A 
HETATM   11  C12 UNL     1      67.385 -10.500  33.540  1.00  0.00     0.017 A 
HETATM   12  C13 UNL     1      68.577 -10.053  33.014  1.00  0.00     0.034 A 
ENDROOT
BRANCH   1  13
HETATM   13  N3  UNL     1      68.172  -7.833  33.521  1.00  0.00    -0.374 N 
ATOM     14  H3  UNL     1      67.204  -8.110  33.682  1.00  0.00     0.161 HD
BRANCH  13  15
HETATM   15  C5  UNL     1      68.521  -6.495  33.879  1.00  0.00     0.141 C 
BRANCH  15  16
HETATM   16  C4  UNL     1      68.549  -5.532  32.710  1.00  0.00     0.141 C 
BRANCH  16  17
HETATM   17  N2  UNL     1      68.326  -4.170  33.091  1.00  0.00    -0.375 N 
ATOM     18  H2  UNL     1      67.653  -3.964  33.830  1.00  0.00     0.161 HD
BRANCH  17  19
HETATM   19  C3  UNL     1      69.017  -3.102  32.469  1.00  0.00     0.093 C 
BRANCH  19  20
HETATM   20  C2  UNL     1      70.410  -3.271  32.086  1.00  0.00     0.037 C 
HETATM   21  C1  UNL     1      70.864  -2.758  30.945  1.00  0.00     0.015 C 
ENDBRANCH  19  20
BRANCH  19  22
HETATM   22  N1  UNL     1      68.433  -1.972  32.229  1.00  0.00    -0.386 N 
ATOM     23  H12 UNL     1      68.761  -1.104  32.654  1.00  0.00     0.157 HD
ATOM     24  H11 UNL     1      67.629  -1.955  31.602  1.00  0.00     0.157 HD
ENDBRANCH  19  22
ENDBRANCH  17  19
ENDBRANCH  16  17
ENDBRANCH  15  16
ENDBRANCH  13  15
ENDBRANCH   1  13
TORSDOF 7
ENDMDL
