MODEL 1
REMARK VINA RESULT: -5.459297868      0.000      0.000
REMARK  5 active torsions:
REMARK  status: ('A' for Active; 'I' for Inactive)
REMARK    1  A    between atoms: C1_4  and  C2_5 
REMARK    2  A    between atoms: C2_5  and  C3_6 
REMARK    3  A    between atoms: C4_9  and  N3_10 
REMARK    4  A    between atoms: N3_10  and  N4_12 
REMARK    5  A    between atoms: N4_12  and  N5_14 
ROOT
HETATM    1  C3  UNL     1      -2.190 -20.311 -35.677  1.00  0.00     0.167 A 
HETATM    2  N2  UNL     1      -1.080 -20.947 -36.082  1.00  0.00    -0.169 N 
ATOM      3  H2  UNL     1      -0.150 -20.809 -35.687  1.00  0.00     0.186 HD
HETATM    4  C4  UNL     1      -1.373 -21.793 -37.083  1.00  0.00     0.720 A 
HETATM    5  N6  UNL     1      -2.697 -21.658 -37.282  1.00  0.00    -0.088 N 
ATOM      6  H6  UNL     1      -3.248 -22.161 -37.977  1.00  0.00     0.214 HD
HETATM    7  O1  UNL     1      -3.163 -20.766 -36.429  1.00  0.00    -0.209 OA
ENDROOT
BRANCH   4   8
HETATM    8  N3  UNL     1      -0.568 -22.582 -37.736  1.00  0.00    -0.116 N 
ATOM      9  H3  UNL     1       0.377 -22.255 -37.935  1.00  0.00     0.207 HD
BRANCH   8  10
HETATM   10  N4  UNL     1      -0.934 -23.840 -38.169  1.00  0.00    -0.235 N 
ATOM     11  H4  UNL     1      -1.521 -23.968 -38.993  1.00  0.00     0.208 HD
BRANCH  10  12
HETATM   12  N5  UNL     1      -0.462 -24.942 -37.425  1.00  0.00    -0.330 N 
ATOM     13  H52 UNL     1       0.367 -25.453 -37.728  1.00  0.00     0.178 HD
ATOM     14  H51 UNL     1      -0.982 -25.195 -36.585  1.00  0.00     0.178 HD
ENDBRANCH  10  12
ENDBRANCH   8  10
ENDBRANCH   4   8
BRANCH   1  15
HETATM   15  C2  UNL     1      -2.334 -19.284 -34.591  1.00  0.00     0.131 C 
BRANCH  15  16
HETATM   16  C1  UNL     1      -3.244 -18.186 -35.020  1.00  0.00     0.060 C 
HETATM   17  N1  UNL     1      -4.394 -18.430 -35.489  1.00  0.00    -0.411 N 
ATOM     18  H12 UNL     1      -4.689 -19.404 -35.567  1.00  0.00     0.155 HD
ATOM     19  H11 UNL     1      -5.017 -17.678 -35.783  1.00  0.00     0.155 HD
ENDBRANCH  15  16
ENDBRANCH   1  15
TORSDOF 5
ENDMDL
MODEL 2
REMARK VINA RESULT: -5.383692971      1.563      5.239
REMARK  5 active torsions:
REMARK  status: ('A' for Active; 'I' for Inactive)
REMARK    1  A    between atoms: C1_4  and  C2_5 
REMARK    2  A    between atoms: C2_5  and  C3_6 
REMARK    3  A    between atoms: C4_9  and  N3_10 
REMARK    4  A    between atoms: N3_10  and  N4_12 
REMARK    5  A    between atoms: N4_12  and  N5_14 
ROOT
HETATM    1  C3  UNL     1      -1.896 -20.229 -35.740  1.00  0.00     0.167 A 
HETATM    2  N2  UNL     1      -1.955 -19.063 -35.080  1.00  0.00    -0.169 N 
ATOM      3  H2  UNL     1      -1.148 -18.554 -34.720  1.00  0.00     0.186 HD
HETATM    4  C4  UNL     1      -3.232 -18.664 -34.961  1.00  0.00     0.720 A 
HETATM    5  N6  UNL     1      -3.958 -19.620 -35.570  1.00  0.00    -0.088 N 
ATOM      6  H6  UNL     1      -4.974 -19.628 -35.661  1.00  0.00     0.214 HD
HETATM    7  O1  UNL     1      -3.136 -20.545 -36.027  1.00  0.00    -0.209 OA
ENDROOT
BRANCH   4   8
HETATM    8  N3  UNL     1      -3.693 -17.589 -34.388  1.00  0.00    -0.116 N 
ATOM      9  H3  UNL     1      -3.942 -17.635 -33.400  1.00  0.00     0.207 HD
BRANCH   8  10
HETATM   10  N4  UNL     1      -3.861 -16.393 -35.054  1.00  0.00    -0.235 N 
ATOM     11  H4  UNL     1      -3.445 -15.528 -34.706  1.00  0.00     0.208 HD
BRANCH  10  12
HETATM   12  N5  UNL     1      -4.632 -16.414 -36.236  1.00  0.00    -0.330 N 
ATOM     13  H52 UNL     1      -4.479 -17.137 -36.939  1.00  0.00     0.178 HD
ATOM     14  H51 UNL     1      -5.334 -15.684 -36.347  1.00  0.00     0.178 HD
ENDBRANCH  10  12
ENDBRANCH   8  10
ENDBRANCH   4   8
BRANCH   1  15
HETATM   15  C2  UNL     1      -0.684 -21.039 -36.099  1.00  0.00     0.131 C 
BRANCH  15  16
HETATM   16  C1  UNL     1      -1.057 -22.194 -36.962  1.00  0.00     0.060 C 
HETATM   17  N1  UNL     1      -1.803 -22.046 -37.974  1.00  0.00    -0.411 N 
ATOM     18  H12 UNL     1      -2.146 -21.110 -38.190  1.00  0.00     0.155 HD
ATOM     19  H11 UNL     1      -2.058 -22.837 -38.565  1.00  0.00     0.155 HD
ENDBRANCH  15  16
ENDBRANCH   1  15
TORSDOF 5
ENDMDL
MODEL 3
REMARK VINA RESULT: -5.192184312      1.085      1.242
REMARK  5 active torsions:
REMARK  status: ('A' for Active; 'I' for Inactive)
REMARK    1  A    between atoms: C1_4  and  C2_5 
REMARK    2  A    between atoms: C2_5  and  C3_6 
REMARK    3  A    between atoms: C4_9  and  N3_10 
REMARK    4  A    between atoms: N3_10  and  N4_12 
REMARK    5  A    between atoms: N4_12  and  N5_14 
ROOT
HETATM    1  C3  UNL     1      -2.980 -19.463 -35.249  1.00  0.00     0.167 A 
HETATM    2  N2  UNL     1      -1.819 -20.009 -35.644  1.00  0.00    -0.169 N 
ATOM      3  H2  UNL     1      -0.896 -19.706 -35.334  1.00  0.00     0.186 HD
HETATM    4  C4  UNL     1      -2.051 -21.012 -36.507  1.00  0.00     0.720 A 
HETATM    5  N6  UNL     1      -3.390 -21.067 -36.631  1.00  0.00    -0.088 N 
ATOM      6  H6  UNL     1      -3.906 -21.723 -37.217  1.00  0.00     0.214 HD
HETATM    7  O1  UNL     1      -3.923 -20.131 -35.869  1.00  0.00    -0.209 OA
ENDROOT
BRANCH   4   8
HETATM    8  N3  UNL     1      -1.185 -21.779 -37.105  1.00  0.00    -0.116 N 
ATOM      9  H3  UNL     1      -0.204 -21.703 -36.839  1.00  0.00     0.207 HD
BRANCH   8  10
HETATM   10  N4  UNL     1      -1.533 -22.688 -38.083  1.00  0.00    -0.235 N 
ATOM     11  H4  UNL     1      -2.198 -22.448 -38.819  1.00  0.00     0.208 HD
BRANCH  10  12
HETATM   12  N5  UNL     1      -0.931 -23.963 -38.022  1.00  0.00    -0.330 N 
ATOM     13  H52 UNL     1      -1.343 -24.702 -37.454  1.00  0.00     0.178 HD
ATOM     14  H51 UNL     1      -0.080 -24.103 -38.565  1.00  0.00     0.178 HD
ENDBRANCH  10  12
ENDBRANCH   8  10
ENDBRANCH   4   8
BRANCH   1  15
HETATM   15  C2  UNL     1      -3.200 -18.324 -34.297  1.00  0.00     0.131 C 
BRANCH  15  16
HETATM   16  C1  UNL     1      -3.513 -17.070 -35.036  1.00  0.00     0.060 C 
HETATM   17  N1  UNL     1      -4.413 -17.038 -35.927  1.00  0.00    -0.411 N 
ATOM     18  H12 UNL     1      -4.924 -17.897 -36.129  1.00  0.00     0.155 HD
ATOM     19  H11 UNL     1      -4.627 -16.179 -36.433  1.00  0.00     0.155 HD
ENDBRANCH  15  16
ENDBRANCH   1  15
TORSDOF 5
ENDMDL
MODEL 4
REMARK VINA RESULT: -5.117308799      1.979      5.169
REMARK  5 active torsions:
REMARK  status: ('A' for Active; 'I' for Inactive)
REMARK    1  A    between atoms: C1_4  and  C2_5 
REMARK    2  A    between atoms: C2_5  and  C3_6 
REMARK    3  A    between atoms: C4_9  and  N3_10 
REMARK    4  A    between atoms: N3_10  and  N4_12 
REMARK    5  A    between atoms: N4_12  and  N5_14 
ROOT
HETATM    1  C3  UNL     1      -2.182 -20.803 -36.291  1.00  0.00     0.167 A 
HETATM    2  N2  UNL     1      -2.127 -19.749 -35.462  1.00  0.00    -0.169 N 
ATOM      3  H2  UNL     1      -1.269 -19.349 -35.083  1.00  0.00     0.186 HD
HETATM    4  C4  UNL     1      -3.366 -19.300 -35.204  1.00  0.00     0.720 A 
HETATM    5  N6  UNL     1      -4.186 -20.109 -35.901  1.00  0.00    -0.088 N 
ATOM      6  H6  UNL     1      -5.203 -20.044 -35.927  1.00  0.00     0.214 HD
HETATM    7  O1  UNL     1      -3.454 -20.999 -36.542  1.00  0.00    -0.209 OA
ENDROOT
BRANCH   4   8
HETATM    8  N3  UNL     1      -3.722 -18.300 -34.449  1.00  0.00    -0.116 N 
ATOM      9  H3  UNL     1      -4.056 -18.499 -33.506  1.00  0.00     0.207 HD
BRANCH   8  10
HETATM   10  N4  UNL     1      -3.670 -16.986 -34.864  1.00  0.00    -0.235 N 
ATOM     11  H4  UNL     1      -3.092 -16.299 -34.380  1.00  0.00     0.208 HD
BRANCH  10  12
HETATM   12  N5  UNL     1      -4.448 -16.632 -35.987  1.00  0.00    -0.330 N 
ATOM     13  H52 UNL     1      -4.651 -15.653 -36.187  1.00  0.00     0.178 HD
ATOM     14  H51 UNL     1      -4.790 -17.391 -36.575  1.00  0.00     0.178 HD
ENDBRANCH  10  12
ENDBRANCH   8  10
ENDBRANCH   4   8
BRANCH   1  15
HETATM   15  C2  UNL     1      -1.048 -21.617 -36.843  1.00  0.00     0.131 C 
BRANCH  15  16
HETATM   16  C1  UNL     1       0.119 -21.593 -35.919  1.00  0.00     0.060 C 
HETATM   17  N1  UNL     1       0.579 -22.658 -35.411  1.00  0.00    -0.411 N 
ATOM     18  H12 UNL     1       0.130 -23.542 -35.651  1.00  0.00     0.155 HD
ATOM     19  H11 UNL     1       1.378 -22.641 -34.778  1.00  0.00     0.155 HD
ENDBRANCH  15  16
ENDBRANCH   1  15
TORSDOF 5
ENDMDL
MODEL 5
REMARK VINA RESULT: -4.994520891      1.527      2.030
REMARK  5 active torsions:
REMARK  status: ('A' for Active; 'I' for Inactive)
REMARK    1  A    between atoms: C1_4  and  C2_5 
REMARK    2  A    between atoms: C2_5  and  C3_6 
REMARK    3  A    between atoms: C4_9  and  N3_10 
REMARK    4  A    between atoms: N3_10  and  N4_12 
REMARK    5  A    between atoms: N4_12  and  N5_14 
ROOT
HETATM    1  C3  UNL     1      -2.242 -19.065 -34.951  1.00  0.00     0.167 A 
HETATM    2  N2  UNL     1      -2.332 -20.235 -35.601  1.00  0.00    -0.169 N 
ATOM      3  H2  UNL     1      -3.196 -20.757 -35.746  1.00  0.00     0.186 HD
HETATM    4  C4  UNL     1      -1.119 -20.618 -36.032  1.00  0.00     0.720 A 
HETATM    5  N6  UNL     1      -0.279 -19.648 -35.628  1.00  0.00    -0.088 N 
ATOM      6  H6  UNL     1       0.727 -19.626 -35.792  1.00  0.00     0.214 HD
HETATM    7  O1  UNL     1      -0.974 -18.730 -34.984  1.00  0.00    -0.209 OA
ENDROOT
BRANCH   4   8
HETATM    8  N3  UNL     1      -0.800 -21.691 -36.699  1.00  0.00    -0.116 N 
ATOM      9  H3  UNL     1       0.086 -22.149 -36.487  1.00  0.00     0.207 HD
BRANCH   8  10
HETATM   10  N4  UNL     1      -1.605 -22.236 -37.678  1.00  0.00    -0.235 N 
ATOM     11  H4  UNL     1      -2.433 -21.748 -38.018  1.00  0.00     0.208 HD
BRANCH  10  12
HETATM   12  N5  UNL     1      -1.233 -23.498 -38.189  1.00  0.00    -0.330 N 
ATOM     13  H52 UNL     1      -1.395 -23.726 -39.170  1.00  0.00     0.178 HD
ATOM     14  H51 UNL     1      -0.803 -24.156 -37.540  1.00  0.00     0.178 HD
ENDBRANCH  10  12
ENDBRANCH   8  10
ENDBRANCH   4   8
BRANCH   1  15
HETATM   15  C2  UNL     1      -3.338 -18.268 -34.305  1.00  0.00     0.131 C 
BRANCH  15  16
HETATM   16  C1  UNL     1      -3.547 -16.979 -35.022  1.00  0.00     0.060 C 
HETATM   17  N1  UNL     1      -4.386 -16.879 -35.965  1.00  0.00    -0.411 N 
ATOM     18  H12 UNL     1      -4.922 -17.707 -36.226  1.00  0.00     0.155 HD
ATOM     19  H11 UNL     1      -4.529 -15.997 -36.456  1.00  0.00     0.155 HD
ENDBRANCH  15  16
ENDBRANCH   1  15
TORSDOF 5
ENDMDL
