MODEL 1
REMARK VINA RESULT: -7.422705092      0.000      0.000
REMARK  6 active torsions:
REMARK  status: ('A' for Active; 'I' for Inactive)
REMARK    1  A    between atoms: C2_2  and  C4_4 
REMARK    2  A    between atoms: C4_4  and  O1_5 
REMARK    3  A    between atoms: O1_5  and  C5_6 
REMARK    4  A    between atoms: C8_9  and  C9_10 
REMARK    5  A    between atoms: N1_11  and  N2_13 
REMARK    6  A    between atoms: N2_13  and  C10_15 
ROOT
HETATM    1  C5  UNL     1     219.071   8.928   9.355  1.00  0.00     0.142 A 
HETATM    2  C6  UNL     1     219.970   9.872   8.944  1.00  0.00     0.058 A 
HETATM    3  C7  UNL     1     220.301   9.536   7.627  1.00  0.00     0.035 A 
HETATM    4  C8  UNL     1     219.604   8.410   7.271  1.00  0.00     0.051 A 
HETATM    5  N4  UNL     1     218.863   8.051   8.323  1.00  0.00    -0.336 N 
ATOM      6  H4  UNL     1     218.238   7.246   8.354  1.00  0.00     0.168 HD
ENDROOT
BRANCH   4   7
HETATM    7  C9  UNL     1     219.651   7.711   5.975  1.00  0.00     0.136 C 
HETATM    8  N1  UNL     1     220.411   8.101   5.029  1.00  0.00    -0.308 N 
ATOM      9  H1  UNL     1     221.003   8.920   5.173  1.00  0.00     0.186 HD
BRANCH   8  10
HETATM   10  N2  UNL     1     220.454   7.439   3.805  1.00  0.00    -0.279 N 
ATOM     11  H2  UNL     1     219.618   6.966   3.464  1.00  0.00     0.189 HD
BRANCH  10  12
HETATM   12  C10 UNL     1     221.633   7.407   3.019  1.00  0.00     0.199 C 
HETATM   13  N3  UNL     1     222.442   6.243   3.079  1.00  0.00    -0.068 NA
HETATM   14  S1  UNL     1     222.110   8.616   2.059  1.00  0.00    -0.043 SA
ENDBRANCH  10  12
ENDBRANCH   8  10
ENDBRANCH   4   7
BRANCH   1  15
HETATM   15  O1  UNL     1     218.463   8.838  10.567  1.00  0.00    -0.332 OA
BRANCH  15  16
HETATM   16  C4  UNL     1     217.134   8.768  10.927  1.00  0.00     0.210 C 
BRANCH  16  17
HETATM   17  C2  UNL     1     216.610   7.420  11.234  1.00  0.00    -0.069 C 
HETATM   18  C1  UNL     1     216.947   6.746  12.320  1.00  0.00     0.016 C 
HETATM   19  C3  UNL     1     215.645   6.778  10.266  1.00  0.00     0.044 C 
ENDBRANCH  16  17
ENDBRANCH  15  16
ENDBRANCH   1  15
TORSDOF 6
ENDMDL
MODEL 2
REMARK VINA RESULT: -7.177345159      1.522      2.011
REMARK  6 active torsions:
REMARK  status: ('A' for Active; 'I' for Inactive)
REMARK    1  A    between atoms: C2_2  and  C4_4 
REMARK    2  A    between atoms: C4_4  and  O1_5 
REMARK    3  A    between atoms: O1_5  and  C5_6 
REMARK    4  A    between atoms: C8_9  and  C9_10 
REMARK    5  A    between atoms: N1_11  and  N2_13 
REMARK    6  A    between atoms: N2_13  and  C10_15 
ROOT
HETATM    1  C5  UNL     1     217.117   8.454   9.381  1.00  0.00     0.142 A 
HETATM    2  C6  UNL     1     218.107   8.838  10.242  1.00  0.00     0.058 A 
HETATM    3  C7  UNL     1     219.226   9.097   9.443  1.00  0.00     0.035 A 
HETATM    4  C8  UNL     1     218.896   8.867   8.132  1.00  0.00     0.051 A 
HETATM    5  N4  UNL     1     217.619   8.479   8.106  1.00  0.00    -0.336 N 
ATOM      6  H4  UNL     1     217.095   8.237   7.264  1.00  0.00     0.168 HD
ENDROOT
BRANCH   4   7
HETATM    7  C9  UNL     1     219.773   9.014   6.958  1.00  0.00     0.136 C 
HETATM    8  N1  UNL     1     219.834   8.123   6.049  1.00  0.00    -0.308 N 
ATOM      9  H1  UNL     1     219.260   7.283   6.137  1.00  0.00     0.186 HD
BRANCH   8  10
HETATM   10  N2  UNL     1     220.664   8.264   4.939  1.00  0.00    -0.279 N 
ATOM     11  H2  UNL     1     221.344   9.023   4.920  1.00  0.00     0.189 HD
BRANCH  10  12
HETATM   12  C10 UNL     1     220.586   7.378   3.837  1.00  0.00     0.199 C 
HETATM   13  N3  UNL     1     219.528   6.433   3.814  1.00  0.00    -0.068 NA
HETATM   14  S1  UNL     1     221.629   7.380   2.603  1.00  0.00    -0.043 SA
ENDBRANCH  10  12
ENDBRANCH   8  10
ENDBRANCH   4   7
BRANCH   1  15
HETATM   15  O1  UNL     1     215.842   8.100   9.693  1.00  0.00    -0.332 OA
BRANCH  15  16
HETATM   16  C4  UNL     1     215.320   6.973  10.288  1.00  0.00     0.210 C 
BRANCH  16  17
HETATM   17  C2  UNL     1     215.337   6.945  11.766  1.00  0.00    -0.069 C 
HETATM   18  C1  UNL     1     215.511   5.837  12.464  1.00  0.00     0.016 C 
HETATM   19  C3  UNL     1     215.148   8.240  12.519  1.00  0.00     0.044 C 
ENDBRANCH  16  17
ENDBRANCH  15  16
ENDBRANCH   1  15
TORSDOF 6
ENDMDL
MODEL 3
REMARK VINA RESULT: -7.112604408      1.569      2.068
REMARK  6 active torsions:
REMARK  status: ('A' for Active; 'I' for Inactive)
REMARK    1  A    between atoms: C2_2  and  C4_4 
REMARK    2  A    between atoms: C4_4  and  O1_5 
REMARK    3  A    between atoms: O1_5  and  C5_6 
REMARK    4  A    between atoms: C8_9  and  C9_10 
REMARK    5  A    between atoms: N1_11  and  N2_13 
REMARK    6  A    between atoms: N2_13  and  C10_15 
ROOT
HETATM    1  C5  UNL     1     218.158   7.916  10.431  1.00  0.00     0.142 A 
HETATM    2  C6  UNL     1     217.165   8.392   9.620  1.00  0.00     0.058 A 
HETATM    3  C7  UNL     1     217.754   8.574   8.365  1.00  0.00     0.035 A 
HETATM    4  C8  UNL     1     219.074   8.209   8.439  1.00  0.00     0.051 A 
HETATM    5  N4  UNL     1     219.307   7.814   9.692  1.00  0.00    -0.336 N 
ATOM      6  H4  UNL     1     220.205   7.484  10.047  1.00  0.00     0.168 HD
ENDROOT
BRANCH   4   7
HETATM    7  C9  UNL     1     220.066   8.242   7.349  1.00  0.00     0.136 C 
HETATM    8  N1  UNL     1     219.720   8.175   6.125  1.00  0.00    -0.308 N 
ATOM      9  H1  UNL     1     218.729   8.097   5.892  1.00  0.00     0.186 HD
BRANCH   8  10
HETATM   10  N2  UNL     1     220.658   8.207   5.096  1.00  0.00    -0.279 N 
ATOM     11  H2  UNL     1     221.450   8.846   5.164  1.00  0.00     0.189 HD
BRANCH  10  12
HETATM   12  C10 UNL     1     220.540   7.373   3.957  1.00  0.00     0.199 C 
HETATM   13  N3  UNL     1     219.448   6.468   3.904  1.00  0.00    -0.068 NA
HETATM   14  S1  UNL     1     221.573   7.391   2.715  1.00  0.00    -0.043 SA
ENDBRANCH  10  12
ENDBRANCH   8  10
ENDBRANCH   4   7
BRANCH   1  15
HETATM   15  O1  UNL     1     218.064   7.589  11.747  1.00  0.00    -0.332 OA
BRANCH  15  16
HETATM   16  C4  UNL     1     217.204   6.756  12.429  1.00  0.00     0.210 C 
BRANCH  16  17
HETATM   17  C2  UNL     1     215.935   7.360  12.888  1.00  0.00    -0.069 C 
HETATM   18  C1  UNL     1     215.849   8.128  13.960  1.00  0.00     0.016 C 
HETATM   19  C3  UNL     1     214.675   7.091  12.101  1.00  0.00     0.044 C 
ENDBRANCH  16  17
ENDBRANCH  15  16
ENDBRANCH   1  15
TORSDOF 6
ENDMDL
MODEL 4
REMARK VINA RESULT: -6.717260548      1.476      1.672
REMARK  6 active torsions:
REMARK  status: ('A' for Active; 'I' for Inactive)
REMARK    1  A    between atoms: C2_2  and  C4_4 
REMARK    2  A    between atoms: C4_4  and  O1_5 
REMARK    3  A    between atoms: O1_5  and  C5_6 
REMARK    4  A    between atoms: C8_9  and  C9_10 
REMARK    5  A    between atoms: N1_11  and  N2_13 
REMARK    6  A    between atoms: N2_13  and  C10_15 
ROOT
HETATM    1  C5  UNL     1     217.853   8.463   8.543  1.00  0.00     0.142 A 
HETATM    2  C6  UNL     1     218.802   7.705   9.172  1.00  0.00     0.058 A 
HETATM    3  C7  UNL     1     219.888   7.651   8.293  1.00  0.00     0.035 A 
HETATM    4  C8  UNL     1     219.580   8.366   7.164  1.00  0.00     0.051 A 
HETATM    5  N4  UNL     1     218.347   8.853   7.326  1.00  0.00    -0.336 N 
ATOM      6  H4  UNL     1     217.849   9.428   6.647  1.00  0.00     0.168 HD
ENDROOT
BRANCH   4   7
HETATM    7  C9  UNL     1     220.436   8.571   5.982  1.00  0.00     0.136 C 
HETATM    8  N1  UNL     1     220.305   7.867   4.929  1.00  0.00    -0.308 N 
ATOM      9  H1  UNL     1     219.588   7.141   4.902  1.00  0.00     0.186 HD
BRANCH   8  10
HETATM   10  N2  UNL     1     221.114   8.061   3.812  1.00  0.00    -0.279 N 
ATOM     11  H2  UNL     1     221.731   8.873   3.780  1.00  0.00     0.189 HD
BRANCH  10  12
HETATM   12  C10 UNL     1     221.102   7.160   2.720  1.00  0.00     0.199 C 
HETATM   13  N3  UNL     1     221.050   5.771   3.003  1.00  0.00    -0.068 NA
HETATM   14  S1  UNL     1     221.143   7.619   1.171  1.00  0.00    -0.043 SA
ENDBRANCH  10  12
ENDBRANCH   8  10
ENDBRANCH   4   7
BRANCH   1  15
HETATM   15  O1  UNL     1     216.620   8.796   9.008  1.00  0.00    -0.332 OA
BRANCH  15  16
HETATM   16  C4  UNL     1     216.053   8.702  10.261  1.00  0.00     0.210 C 
BRANCH  16  17
HETATM   17  C2  UNL     1     215.316   7.455  10.553  1.00  0.00    -0.069 C 
HETATM   18  C1  UNL     1     215.405   6.371   9.802  1.00  0.00     0.016 C 
HETATM   19  C3  UNL     1     214.418   7.409  11.767  1.00  0.00     0.044 C 
ENDBRANCH  16  17
ENDBRANCH  15  16
ENDBRANCH   1  15
TORSDOF 6
ENDMDL
MODEL 5
REMARK VINA RESULT: -6.263920210      3.774      7.579
REMARK  6 active torsions:
REMARK  status: ('A' for Active; 'I' for Inactive)
REMARK    1  A    between atoms: C2_2  and  C4_4 
REMARK    2  A    between atoms: C4_4  and  O1_5 
REMARK    3  A    between atoms: O1_5  and  C5_6 
REMARK    4  A    between atoms: C8_9  and  C9_10 
REMARK    5  A    between atoms: N1_11  and  N2_13 
REMARK    6  A    between atoms: N2_13  and  C10_15 
ROOT
HETATM    1  C5  UNL     1     220.281   8.643   6.257  1.00  0.00     0.142 A 
HETATM    2  C6  UNL     1     220.336   9.820   6.950  1.00  0.00     0.058 A 
HETATM    3  C7  UNL     1     219.817   9.538   8.218  1.00  0.00     0.035 A 
HETATM    4  C8  UNL     1     219.463   8.214   8.266  1.00  0.00     0.051 A 
HETATM    5  N4  UNL     1     219.748   7.682   7.075  1.00  0.00    -0.336 N 
ATOM      6  H4  UNL     1     219.593   6.709   6.814  1.00  0.00     0.168 HD
ENDROOT
BRANCH   4   7
HETATM    7  C9  UNL     1     218.876   7.494   9.410  1.00  0.00     0.136 C 
HETATM    8  N1  UNL     1     218.834   8.007  10.576  1.00  0.00    -0.308 N 
ATOM      9  H1  UNL     1     219.218   8.941  10.722  1.00  0.00     0.186 HD
BRANCH   8  10
HETATM   10  N2  UNL     1     218.279   7.325  11.656  1.00  0.00    -0.279 N 
ATOM     11  H2  UNL     1     218.853   6.660  12.174  1.00  0.00     0.189 HD
BRANCH  10  12
HETATM   12  C10 UNL     1     216.935   7.534  12.054  1.00  0.00     0.199 C 
HETATM   13  N3  UNL     1     216.688   8.435  13.121  1.00  0.00    -0.068 NA
HETATM   14  S1  UNL     1     215.667   6.807  11.364  1.00  0.00    -0.043 SA
ENDBRANCH  10  12
ENDBRANCH   8  10
ENDBRANCH   4   7
BRANCH   1  15
HETATM   15  O1  UNL     1     220.677   8.420   4.975  1.00  0.00    -0.332 OA
BRANCH  15  16
HETATM   16  C4  UNL     1     220.487   7.351   4.127  1.00  0.00     0.210 C 
BRANCH  16  17
HETATM   17  C2  UNL     1     221.399   7.267   2.966  1.00  0.00    -0.069 C 
HETATM   18  C1  UNL     1     221.779   6.121   2.429  1.00  0.00     0.016 C 
HETATM   19  C3  UNL     1     221.925   8.547   2.362  1.00  0.00     0.044 C 
ENDBRANCH  16  17
ENDBRANCH  15  16
ENDBRANCH   1  15
TORSDOF 6
ENDMDL
