MODEL 1
REMARK VINA RESULT: -6.662952542      0.000      0.000
REMARK  4 active torsions:
REMARK  status: ('A' for Active; 'I' for Inactive)
REMARK    1  A    between atoms: C3_4  and  C4_5 
REMARK    2  A    between atoms: N2_11  and  C10_12 
REMARK    3  A    between atoms: C10_12  and  C11_13 
REMARK    4  A    between atoms: C11_13  and  N3_14 
ROOT
HETATM    1  C4  UNL     1      -4.823  32.660   8.710  1.00  0.00     0.012 C 
HETATM    2  C5  UNL     1      -5.544  31.802   7.696  1.00  0.00     0.011 C 
HETATM    3  C6  UNL     1      -5.801  32.768   6.566  1.00  0.00     0.033 C 
HETATM    4  C7  UNL     1      -4.897  33.962   6.773  1.00  0.00     0.049 C 
HETATM    5  C8  UNL     1      -3.927  33.504   7.817  1.00  0.00     0.041 C 
HETATM    6  C9  UNL     1      -4.232  34.311   5.461  1.00  0.00     0.156 C 
HETATM    7  N2  UNL     1      -5.281  35.142   4.878  1.00  0.00    -0.352 N 
HETATM    8  C16 UNL     1      -5.837  35.839   5.984  1.00  0.00     0.187 C 
HETATM    9  N4  UNL     1      -6.515  37.072   5.861  1.00  0.00    -0.064 NA
HETATM   10  N5  UNL     1      -5.614  35.155   7.083  1.00  0.00    -0.354 N 
ATOM     11  H5  UNL     1      -5.910  35.436   8.018  1.00  0.00     0.163 HD
ENDROOT
BRANCH   1  12
HETATM   12  C3  UNL     1      -4.047  31.858   9.671  1.00  0.00    -0.001 C 
HETATM   13  C2  UNL     1      -3.643  32.405  10.790  1.00  0.00     0.017 C 
HETATM   14  C1  UNL     1      -3.963  33.813  11.083  1.00  0.00     0.064 C 
HETATM   15  N1  UNL     1      -2.898  31.650  11.723  1.00  0.00    -0.108 NA
ENDBRANCH   1  12
BRANCH   7  16
HETATM   16  C10 UNL     1      -5.604  35.179   3.484  1.00  0.00     0.145 C 
BRANCH  16  17
HETATM   17  C11 UNL     1      -6.369  33.928   3.081  1.00  0.00     0.141 C 
BRANCH  17  18
HETATM   18  N3  UNL     1      -7.023  34.159   1.844  1.00  0.00    -0.390 N 
HETATM   19  C12 UNL     1      -6.211  34.436   0.730  1.00  0.00     0.068 C 
HETATM   20  C13 UNL     1      -6.946  34.467  -0.591  1.00  0.00     0.118 C 
HETATM   21  S1  UNL     1      -7.533  32.766  -0.896  1.00  0.00    -0.162 SA
HETATM   22  C14 UNL     1      -7.893  32.108   0.783  1.00  0.00     0.094 C 
HETATM   23  C15 UNL     1      -8.180  33.340   1.617  1.00  0.00     0.132 C 
ENDBRANCH  17  18
ENDBRANCH  16  17
ENDBRANCH   7  16
TORSDOF 4
ENDMDL
MODEL 2
REMARK VINA RESULT: -6.141109279      0.366      1.180
REMARK  4 active torsions:
REMARK  status: ('A' for Active; 'I' for Inactive)
REMARK    1  A    between atoms: C3_4  and  C4_5 
REMARK    2  A    between atoms: N2_11  and  C10_12 
REMARK    3  A    between atoms: C10_12  and  C11_13 
REMARK    4  A    between atoms: C11_13  and  N3_14 
ROOT
HETATM    1  C4  UNL     1      -4.779  32.607   8.777  1.00  0.00     0.012 C 
HETATM    2  C5  UNL     1      -5.454  31.750   7.733  1.00  0.00     0.011 C 
HETATM    3  C6  UNL     1      -5.678  32.720   6.599  1.00  0.00     0.033 C 
HETATM    4  C7  UNL     1      -4.792  33.921   6.847  1.00  0.00     0.049 C 
HETATM    5  C8  UNL     1      -3.858  33.465   7.924  1.00  0.00     0.041 C 
HETATM    6  C9  UNL     1      -4.082  34.284   5.563  1.00  0.00     0.156 C 
HETATM    7  N2  UNL     1      -5.115  35.110   4.946  1.00  0.00    -0.352 N 
HETATM    8  C16 UNL     1      -5.718  35.795   6.035  1.00  0.00     0.187 C 
HETATM    9  N4  UNL     1      -6.402  37.023   5.894  1.00  0.00    -0.064 NA
HETATM   10  N5  UNL     1      -5.530  35.107   7.137  1.00  0.00    -0.354 N 
ATOM     11  H5  UNL     1      -5.863  35.378   8.062  1.00  0.00     0.163 HD
ENDROOT
BRANCH   1  12
HETATM   12  C3  UNL     1      -4.032  31.806   9.762  1.00  0.00    -0.001 C 
HETATM   13  C2  UNL     1      -3.598  32.373  10.860  1.00  0.00     0.017 C 
HETATM   14  C1  UNL     1      -3.857  33.802  11.106  1.00  0.00     0.064 C 
HETATM   15  N1  UNL     1      -2.881  31.619  11.814  1.00  0.00    -0.108 NA
ENDBRANCH   1  12
BRANCH   7  16
HETATM   16  C10 UNL     1      -5.387  35.153   3.541  1.00  0.00     0.145 C 
BRANCH  16  17
HETATM   17  C11 UNL     1      -6.776  34.607   3.250  1.00  0.00     0.141 C 
BRANCH  17  18
HETATM   18  N3  UNL     1      -6.696  33.672   2.186  1.00  0.00    -0.390 N 
HETATM   19  C12 UNL     1      -7.779  32.789   2.026  1.00  0.00     0.068 C 
HETATM   20  C13 UNL     1      -7.733  31.963   0.761  1.00  0.00     0.118 C 
HETATM   21  S1  UNL     1      -7.922  33.133  -0.628  1.00  0.00    -0.162 SA
HETATM   22  C14 UNL     1      -7.092  34.664  -0.039  1.00  0.00     0.094 C 
HETATM   23  C15 UNL     1      -6.089  34.179   0.989  1.00  0.00     0.132 C 
ENDBRANCH  17  18
ENDBRANCH  16  17
ENDBRANCH   7  16
TORSDOF 4
ENDMDL
MODEL 3
REMARK VINA RESULT: -6.020812848      1.201      1.804
REMARK  4 active torsions:
REMARK  status: ('A' for Active; 'I' for Inactive)
REMARK    1  A    between atoms: C3_4  and  C4_5 
REMARK    2  A    between atoms: N2_11  and  C10_12 
REMARK    3  A    between atoms: C10_12  and  C11_13 
REMARK    4  A    between atoms: C11_13  and  N3_14 
ROOT
HETATM    1  C4  UNL     1      -4.765  32.831   8.685  1.00  0.00     0.012 C 
HETATM    2  C5  UNL     1      -5.504  32.037   7.635  1.00  0.00     0.011 C 
HETATM    3  C6  UNL     1      -5.742  33.059   6.550  1.00  0.00     0.033 C 
HETATM    4  C7  UNL     1      -4.812  34.223   6.811  1.00  0.00     0.049 C 
HETATM    5  C8  UNL     1      -3.851  33.696   7.831  1.00  0.00     0.041 C 
HETATM    6  C9  UNL     1      -4.140  34.618   5.515  1.00  0.00     0.156 C 
HETATM    7  N2  UNL     1      -5.171  35.498   4.974  1.00  0.00    -0.352 N 
HETATM    8  C16 UNL     1      -5.711  36.154   6.112  1.00  0.00     0.187 C 
HETATM    9  N4  UNL     1      -6.363  37.406   6.048  1.00  0.00    -0.064 NA
HETATM   10  N5  UNL     1      -5.502  35.416   7.177  1.00  0.00    -0.354 N 
ATOM     11  H5  UNL     1      -5.791  35.659   8.125  1.00  0.00     0.163 HD
ENDROOT
BRANCH   1  12
HETATM   12  C3  UNL     1      -4.005  31.969   9.607  1.00  0.00    -0.001 C 
HETATM   13  C2  UNL     1      -3.626  32.441  10.768  1.00  0.00     0.017 C 
HETATM   14  C1  UNL     1      -3.958  33.825  11.148  1.00  0.00     0.064 C 
HETATM   15  N1  UNL     1      -2.898  31.627  11.664  1.00  0.00    -0.108 NA
ENDBRANCH   1  12
BRANCH   7  16
HETATM   16  C10 UNL     1      -5.494  35.607   3.584  1.00  0.00     0.145 C 
BRANCH  16  17
HETATM   17  C11 UNL     1      -4.383  35.015   2.731  1.00  0.00     0.141 C 
BRANCH  17  18
HETATM   18  N3  UNL     1      -4.915  34.629   1.474  1.00  0.00    -0.390 N 
HETATM   19  C12 UNL     1      -6.311  34.484   1.384  1.00  0.00     0.068 C 
HETATM   20  C13 UNL     1      -6.832  34.275  -0.019  1.00  0.00     0.118 C 
HETATM   21  S1  UNL     1      -6.500  35.823  -0.929  1.00  0.00    -0.162 SA
HETATM   22  C14 UNL     1      -4.931  36.445  -0.198  1.00  0.00     0.094 C 
HETATM   23  C15 UNL     1      -4.248  35.203   0.340  1.00  0.00     0.132 C 
ENDBRANCH  17  18
ENDBRANCH  16  17
ENDBRANCH   7  16
TORSDOF 4
ENDMDL
MODEL 4
REMARK VINA RESULT: -5.971222225      1.740      2.202
REMARK  4 active torsions:
REMARK  status: ('A' for Active; 'I' for Inactive)
REMARK    1  A    between atoms: C3_4  and  C4_5 
REMARK    2  A    between atoms: N2_11  and  C10_12 
REMARK    3  A    between atoms: C10_12  and  C11_13 
REMARK    4  A    between atoms: C11_13  and  N3_14 
ROOT
HETATM    1  C4  UNL     1      -3.998  33.383   9.434  1.00  0.00     0.012 C 
HETATM    2  C5  UNL     1      -3.989  32.538   8.182  1.00  0.00     0.011 C 
HETATM    3  C6  UNL     1      -4.317  33.538   7.102  1.00  0.00     0.033 C 
HETATM    4  C7  UNL     1      -4.095  34.919   7.678  1.00  0.00     0.049 C 
HETATM    5  C8  UNL     1      -3.340  34.664   8.945  1.00  0.00     0.041 C 
HETATM    6  C9  UNL     1      -3.315  35.749   6.683  1.00  0.00     0.156 C 
HETATM    7  N2  UNL     1      -4.419  36.219   5.852  1.00  0.00    -0.352 N 
HETATM    8  C16 UNL     1      -5.490  36.416   6.763  1.00  0.00     0.187 C 
HETATM    9  N4  UNL     1      -6.566  37.298   6.515  1.00  0.00    -0.064 NA
HETATM   10  N5  UNL     1      -5.302  35.663   7.822  1.00  0.00    -0.354 N 
ATOM     11  H5  UNL     1      -5.927  35.618   8.627  1.00  0.00     0.163 HD
ENDROOT
BRANCH   1  12
HETATM   12  C3  UNL     1      -3.244  32.761  10.536  1.00  0.00    -0.001 C 
HETATM   13  C2  UNL     1      -3.738  31.713  11.145  1.00  0.00     0.017 C 
HETATM   14  C1  UNL     1      -5.040  31.162  10.731  1.00  0.00     0.064 C 
HETATM   15  N1  UNL     1      -3.027  31.104  12.204  1.00  0.00    -0.108 NA
ENDBRANCH   1  12
BRANCH   7  16
HETATM   16  C10 UNL     1      -4.342  36.408   4.435  1.00  0.00     0.145 C 
BRANCH  16  17
HETATM   17  C11 UNL     1      -4.810  35.160   3.704  1.00  0.00     0.141 C 
BRANCH  17  18
HETATM   18  N3  UNL     1      -5.932  35.484   2.898  1.00  0.00    -0.390 N 
HETATM   19  C12 UNL     1      -6.215  36.849   2.711  1.00  0.00     0.068 C 
HETATM   20  C13 UNL     1      -7.287  37.133   1.684  1.00  0.00     0.118 C 
HETATM   21  S1  UNL     1      -6.610  36.608   0.072  1.00  0.00    -0.162 SA
HETATM   22  C14 UNL     1      -5.544  35.167   0.482  1.00  0.00     0.094 C 
HETATM   23  C15 UNL     1      -6.127  34.620   1.769  1.00  0.00     0.132 C 
ENDBRANCH  17  18
ENDBRANCH  16  17
ENDBRANCH   7  16
TORSDOF 4
ENDMDL
MODEL 5
REMARK VINA RESULT: -5.937204520      1.168      1.762
REMARK  4 active torsions:
REMARK  status: ('A' for Active; 'I' for Inactive)
REMARK    1  A    between atoms: C3_4  and  C4_5 
REMARK    2  A    between atoms: N2_11  and  C10_12 
REMARK    3  A    between atoms: C10_12  and  C11_13 
REMARK    4  A    between atoms: C11_13  and  N3_14 
ROOT
HETATM    1  C4  UNL     1      -4.940  33.553   7.516  1.00  0.00     0.012 C 
HETATM    2  C5  UNL     1      -5.890  32.861   6.567  1.00  0.00     0.011 C 
HETATM    3  C6  UNL     1      -5.980  33.834   5.417  1.00  0.00     0.033 C 
HETATM    4  C7  UNL     1      -4.817  34.793   5.541  1.00  0.00     0.049 C 
HETATM    5  C8  UNL     1      -3.923  34.148   6.555  1.00  0.00     0.041 C 
HETATM    6  C9  UNL     1      -4.159  34.949   4.189  1.00  0.00     0.156 C 
HETATM    7  N2  UNL     1      -5.020  35.986   3.627  1.00  0.00    -0.352 N 
HETATM    8  C16 UNL     1      -5.342  36.817   4.733  1.00  0.00     0.187 C 
HETATM    9  N4  UNL     1      -5.726  38.170   4.599  1.00  0.00    -0.064 NA
HETATM   10  N5  UNL     1      -5.224  36.126   5.843  1.00  0.00    -0.354 N 
ATOM     11  H5  UNL     1      -5.398  36.488   6.780  1.00  0.00     0.163 HD
ENDROOT
BRANCH   1  12
HETATM   12  C3  UNL     1      -4.318  32.616   8.468  1.00  0.00    -0.001 C 
HETATM   13  C2  UNL     1      -4.060  33.013   9.688  1.00  0.00     0.017 C 
HETATM   14  C1  UNL     1      -4.390  34.386  10.106  1.00  0.00     0.064 C 
HETATM   15  N1  UNL     1      -3.464  32.126  10.613  1.00  0.00    -0.108 NA
ENDBRANCH   1  12
BRANCH   7  16
HETATM   16  C10 UNL     1      -5.399  36.064   2.249  1.00  0.00     0.145 C 
BRANCH  16  17
HETATM   17  C11 UNL     1      -6.795  35.497   2.048  1.00  0.00     0.141 C 
BRANCH  17  18
HETATM   18  N3  UNL     1      -6.710  34.304   1.286  1.00  0.00    -0.390 N 
HETATM   19  C12 UNL     1      -7.841  33.468   1.273  1.00  0.00     0.068 C 
HETATM   20  C13 UNL     1      -7.766  32.325   0.287  1.00  0.00     0.118 C 
HETATM   21  S1  UNL     1      -7.765  33.077  -1.376  1.00  0.00    -0.162 SA
HETATM   22  C14 UNL     1      -6.869  34.666  -1.150  1.00  0.00     0.094 C 
HETATM   23  C15 UNL     1      -5.981  34.430   0.056  1.00  0.00     0.132 C 
ENDBRANCH  17  18
ENDBRANCH  16  17
ENDBRANCH   7  16
TORSDOF 4
ENDMDL
