MODEL 1
REMARK VINA RESULT: -8.778501397      0.000      0.000
REMARK  3 active torsions:
REMARK  status: ('A' for Active; 'I' for Inactive)
REMARK    1  A    between atoms: C2_2  and  O2_4 
REMARK    2  A    between atoms: O2_4  and  C3_5 
REMARK    3  A    between atoms: C7_9  and  C8_10 
ROOT
HETATM    1  C3  UNL     1       8.989  -2.017  33.760  1.00  0.00     0.100 A 
HETATM    2  C4  UNL     1       9.588  -0.780  33.843  1.00  0.00    -0.026 A 
HETATM    3  C5  UNL     1      11.009  -0.642  33.393  1.00  0.00     0.051 C 
HETATM    4  C6  UNL     1       8.871   0.281  34.334  1.00  0.00     0.025 A 
HETATM    5  C7  UNL     1       7.534   0.169  34.762  1.00  0.00     0.025 A 
HETATM    6  C10 UNL     1       6.944  -1.057  34.673  1.00  0.00     0.040 A 
HETATM    7  C11 UNL     1       7.684  -2.151  34.170  1.00  0.00     0.060 A 
HETATM    8  C12 UNL     1       7.009  -3.434  34.138  1.00  0.00     0.171 C 
HETATM    9  O4  UNL     1       7.712  -4.434  33.818  1.00  0.00    -0.291 OA
HETATM   10  C13 UNL     1       5.583  -3.617  34.453  1.00  0.00     0.025 C 
HETATM   11  C14 UNL     1       4.750  -3.283  33.223  1.00  0.00     0.024 C 
HETATM   12  C15 UNL     1       5.285  -5.033  34.913  1.00  0.00     0.024 C 
HETATM   13  C16 UNL     1       5.178  -2.613  35.537  1.00  0.00     0.101 C 
HETATM   14  C17 UNL     1       5.538  -1.293  34.993  1.00  0.00     0.162 C 
HETATM   15  O5  UNL     1       4.697  -0.409  34.805  1.00  0.00    -0.292 OA
ENDROOT
BRANCH   1  16
HETATM   16  O2  UNL     1       9.711  -3.084  33.267  1.00  0.00    -0.278 OA
BRANCH  16  17
HETATM   17  C2  UNL     1      10.192  -3.155  31.968  1.00  0.00     0.260 C 
HETATM   18  C1  UNL     1      11.597  -3.637  31.805  1.00  0.00     0.126 C 
HETATM   19  O1  UNL     1       9.457  -2.826  31.028  1.00  0.00    -0.265 OA
ENDBRANCH  16  17
ENDBRANCH   1  16
BRANCH   5  20
HETATM   20  C8  UNL     1       6.866   1.306  35.356  1.00  0.00     0.156 C 
HETATM   21  C9  UNL     1       6.249   2.380  34.504  1.00  0.00     0.097 C 
HETATM   22  O3  UNL     1       6.749   1.490  36.578  1.00  0.00    -0.293 OA
ENDBRANCH   5  20
TORSDOF 3
ENDMDL
MODEL 2
REMARK VINA RESULT: -8.741535626      1.313      4.719
REMARK  3 active torsions:
REMARK  status: ('A' for Active; 'I' for Inactive)
REMARK    1  A    between atoms: C2_2  and  O2_4 
REMARK    2  A    between atoms: O2_4  and  C3_5 
REMARK    3  A    between atoms: C7_9  and  C8_10 
ROOT
HETATM    1  C3  UNL     1       8.158  -0.755  34.402  1.00  0.00     0.100 A 
HETATM    2  C4  UNL     1       9.431  -0.429  33.992  1.00  0.00    -0.026 A 
HETATM    3  C5  UNL     1       9.966   0.929  34.326  1.00  0.00     0.051 C 
HETATM    4  C6  UNL     1      10.167  -1.352  33.292  1.00  0.00     0.025 A 
HETATM    5  C7  UNL     1       9.680  -2.633  32.968  1.00  0.00     0.025 A 
HETATM    6  C10 UNL     1       8.420  -2.952  33.381  1.00  0.00     0.040 A 
HETATM    7  C11 UNL     1       7.662  -2.000  34.099  1.00  0.00     0.060 A 
HETATM    8  C12 UNL     1       6.316  -2.390  34.476  1.00  0.00     0.171 C 
HETATM    9  O4  UNL     1       5.593  -1.494  34.995  1.00  0.00    -0.291 OA
HETATM   10  C13 UNL     1       5.772  -3.743  34.283  1.00  0.00     0.025 C 
HETATM   11  C14 UNL     1       6.222  -4.634  35.432  1.00  0.00     0.024 C 
HETATM   12  C15 UNL     1       4.256  -3.735  34.197  1.00  0.00     0.024 C 
HETATM   13  C16 UNL     1       6.370  -4.346  33.007  1.00  0.00     0.101 C 
HETATM   14  C17 UNL     1       7.828  -4.275  33.195  1.00  0.00     0.162 C 
HETATM   15  O5  UNL     1       8.540  -5.284  33.202  1.00  0.00    -0.292 OA
ENDROOT
BRANCH   1  16
HETATM   16  O2  UNL     1       7.419   0.174  35.105  1.00  0.00    -0.278 OA
BRANCH  16  17
HETATM   17  C2  UNL     1       6.901   1.331  34.543  1.00  0.00     0.260 C 
HETATM   18  C1  UNL     1       6.729   2.496  35.464  1.00  0.00     0.126 C 
HETATM   19  O1  UNL     1       6.614   1.349  33.340  1.00  0.00    -0.265 OA
ENDBRANCH  16  17
ENDBRANCH   1  16
BRANCH   5  20
HETATM   20  C8  UNL     1      10.472  -3.522  32.148  1.00  0.00     0.156 C 
HETATM   21  C9  UNL     1      11.768  -4.098  32.648  1.00  0.00     0.097 C 
HETATM   22  O3  UNL     1      10.164  -3.876  30.998  1.00  0.00    -0.293 OA
ENDBRANCH   5  20
TORSDOF 3
ENDMDL
MODEL 3
REMARK VINA RESULT: -8.715492359      1.133      1.401
REMARK  3 active torsions:
REMARK  status: ('A' for Active; 'I' for Inactive)
REMARK    1  A    between atoms: C2_2  and  O2_4 
REMARK    2  A    between atoms: O2_4  and  C3_5 
REMARK    3  A    between atoms: C7_9  and  C8_10 
ROOT
HETATM    1  C3  UNL     1       8.671  -1.171  33.785  1.00  0.00     0.100 A 
HETATM    2  C4  UNL     1       8.916   0.132  34.157  1.00  0.00    -0.026 A 
HETATM    3  C5  UNL     1      10.242   0.737  33.813  1.00  0.00     0.051 C 
HETATM    4  C6  UNL     1       7.946   0.832  34.828  1.00  0.00     0.025 A 
HETATM    5  C7  UNL     1       6.694   0.279  35.159  1.00  0.00     0.025 A 
HETATM    6  C10 UNL     1       6.455  -1.010  34.785  1.00  0.00     0.040 A 
HETATM    7  C11 UNL     1       7.456  -1.732  34.096  1.00  0.00     0.060 A 
HETATM    8  C12 UNL     1       7.151  -3.110  33.761  1.00  0.00     0.171 C 
HETATM    9  O4  UNL     1       8.093  -3.793  33.269  1.00  0.00    -0.291 OA
HETATM   10  C13 UNL     1       5.831  -3.729  33.963  1.00  0.00     0.025 C 
HETATM   11  C14 UNL     1       4.924  -3.369  32.795  1.00  0.00     0.024 C 
HETATM   12  C15 UNL     1       5.931  -5.237  34.098  1.00  0.00     0.024 C 
HETATM   13  C16 UNL     1       5.185  -3.128  35.216  1.00  0.00     0.101 C 
HETATM   14  C17 UNL     1       5.169  -1.675  34.982  1.00  0.00     0.162 C 
HETATM   15  O5  UNL     1       4.119  -1.026  34.947  1.00  0.00    -0.292 OA
ENDROOT
BRANCH   1  16
HETATM   16  O2  UNL     1       9.648  -1.874  33.111  1.00  0.00    -0.278 OA
BRANCH  16  17
HETATM   17  C2  UNL     1      10.818  -2.327  33.703  1.00  0.00     0.260 C 
HETATM   18  C1  UNL     1      11.932  -2.692  32.775  1.00  0.00     0.126 C 
HETATM   19  O1  UNL     1      10.886  -2.407  34.935  1.00  0.00    -0.265 OA
ENDBRANCH  16  17
ENDBRANCH   1  16
BRANCH   5  20
HETATM   20  C8  UNL     1       5.753   1.041  35.949  1.00  0.00     0.156 C 
HETATM   21  C9  UNL     1       5.061   2.251  35.385  1.00  0.00     0.097 C 
HETATM   22  O3  UNL     1       5.444   0.774  37.122  1.00  0.00    -0.293 OA
ENDBRANCH   5  20
TORSDOF 3
ENDMDL
MODEL 4
REMARK VINA RESULT: -8.552448344      1.397      4.780
REMARK  3 active torsions:
REMARK  status: ('A' for Active; 'I' for Inactive)
REMARK    1  A    between atoms: C2_2  and  O2_4 
REMARK    2  A    between atoms: O2_4  and  C3_5 
REMARK    3  A    between atoms: C7_9  and  C8_10 
ROOT
HETATM    1  C3  UNL     1       7.511  -0.654  34.295  1.00  0.00     0.100 A 
HETATM    2  C4  UNL     1       8.777  -0.118  34.226  1.00  0.00    -0.026 A 
HETATM    3  C5  UNL     1       8.967   1.318  34.606  1.00  0.00     0.051 C 
HETATM    4  C6  UNL     1       9.819  -0.909  33.813  1.00  0.00     0.025 A 
HETATM    5  C7  UNL     1       9.658  -2.260  33.453  1.00  0.00     0.025 A 
HETATM    6  C10 UNL     1       8.403  -2.787  33.527  1.00  0.00     0.040 A 
HETATM    7  C11 UNL     1       7.329  -1.971  33.949  1.00  0.00     0.060 A 
HETATM    8  C12 UNL     1       6.015  -2.585  33.970  1.00  0.00     0.171 C 
HETATM    9  O4  UNL     1       5.039  -1.820  34.215  1.00  0.00    -0.291 OA
HETATM   10  C13 UNL     1       5.775  -4.015  33.724  1.00  0.00     0.025 C 
HETATM   11  C14 UNL     1       6.026  -4.795  35.007  1.00  0.00     0.024 C 
HETATM   12  C15 UNL     1       4.363  -4.273  33.228  1.00  0.00     0.024 C 
HETATM   13  C16 UNL     1       6.795  -4.524  32.700  1.00  0.00     0.101 C 
HETATM   14  C17 UNL     1       8.111  -4.196  33.273  1.00  0.00     0.162 C 
HETATM   15  O5  UNL     1       8.947  -5.065  33.537  1.00  0.00    -0.292 OA
ENDROOT
BRANCH   1  16
HETATM   16  O2  UNL     1       6.464   0.142  34.709  1.00  0.00    -0.278 OA
BRANCH  16  17
HETATM   17  C2  UNL     1       6.344   0.651  35.994  1.00  0.00     0.260 C 
HETATM   18  C1  UNL     1       5.796   2.037  36.110  1.00  0.00     0.126 C 
HETATM   19  O1  UNL     1       6.684  -0.044  36.959  1.00  0.00    -0.265 OA
ENDBRANCH  16  17
ENDBRANCH   1  16
BRANCH   5  20
HETATM   20  C8  UNL     1      10.782  -3.010  32.937  1.00  0.00     0.156 C 
HETATM   21  C9  UNL     1      10.840  -3.437  31.497  1.00  0.00     0.097 C 
HETATM   22  O3  UNL     1      11.764  -3.356  33.615  1.00  0.00    -0.293 OA
ENDBRANCH   5  20
TORSDOF 3
ENDMDL
MODEL 5
REMARK VINA RESULT: -8.507914421      1.577      5.462
REMARK  3 active torsions:
REMARK  status: ('A' for Active; 'I' for Inactive)
REMARK    1  A    between atoms: C2_2  and  O2_4 
REMARK    2  A    between atoms: O2_4  and  C3_5 
REMARK    3  A    between atoms: C7_9  and  C8_10 
ROOT
HETATM    1  C3  UNL     1       6.833  -0.626  34.877  1.00  0.00     0.100 A 
HETATM    2  C4  UNL     1       5.532  -1.010  35.107  1.00  0.00    -0.026 A 
HETATM    3  C5  UNL     1       4.609  -0.044  35.785  1.00  0.00     0.051 C 
HETATM    4  C6  UNL     1       5.121  -2.258  34.713  1.00  0.00     0.025 A 
HETATM    5  C7  UNL     1       5.974  -3.179  34.076  1.00  0.00     0.025 A 
HETATM    6  C10 UNL     1       7.261  -2.792  33.846  1.00  0.00     0.040 A 
HETATM    7  C11 UNL     1       7.684  -1.507  34.255  1.00  0.00     0.060 A 
HETATM    8  C12 UNL     1       9.076  -1.173  34.014  1.00  0.00     0.171 C 
HETATM    9  O4  UNL     1       9.486  -0.082  34.501  1.00  0.00    -0.291 OA
HETATM   10  C13 UNL     1      10.002  -2.024  33.252  1.00  0.00     0.025 C 
HETATM   11  C14 UNL     1       9.809  -1.771  31.764  1.00  0.00     0.024 C 
HETATM   12  C15 UNL     1      11.448  -1.771  33.638  1.00  0.00     0.024 C 
HETATM   13  C16 UNL     1       9.641  -3.494  33.492  1.00  0.00     0.101 C 
HETATM   14  C17 UNL     1       8.224  -3.610  33.112  1.00  0.00     0.162 C 
HETATM   15  O5  UNL     1       7.845  -4.361  32.209  1.00  0.00    -0.292 OA
ENDROOT
BRANCH   1  16
HETATM   16  O2  UNL     1       7.245   0.629  35.275  1.00  0.00    -0.278 OA
BRANCH  16  17
HETATM   17  C2  UNL     1       6.837   1.804  34.662  1.00  0.00     0.260 C 
HETATM   18  C1  UNL     1       6.583   2.969  35.563  1.00  0.00     0.126 C 
HETATM   19  O1  UNL     1       6.707   1.836  33.432  1.00  0.00    -0.265 OA
ENDBRANCH  16  17
ENDBRANCH   1  16
BRANCH   5  20
HETATM   20  C8  UNL     1       5.503  -4.512  33.771  1.00  0.00     0.156 C 
HETATM   21  C9  UNL     1       4.828  -4.820  32.464  1.00  0.00     0.097 C 
HETATM   22  O3  UNL     1       5.609  -5.485  34.536  1.00  0.00    -0.293 OA
ENDBRANCH   5  20
TORSDOF 3
ENDMDL
