MODEL 1
REMARK VINA RESULT: -5.342557963      0.000      0.000
REMARK  9 active torsions:
REMARK  status: ('A' for Active; 'I' for Inactive)
REMARK    1  A    between atoms: N1_1  and  C1_5 
REMARK    2  A    between atoms: C1_5  and  C2_6 
REMARK    3  A    between atoms: C2_6  and  N2_7 
REMARK    4  A    between atoms: N2_7  and  C3_10 
REMARK    5  A    between atoms: C3_10  and  C4_11 
REMARK    6  A    between atoms: C5_12  and  C6_13 
REMARK    7  A    between atoms: C6_13  and  N3_14 
REMARK       I    between atoms: N3_14  and  C7_16 
REMARK    8  A    between atoms: C7_16  and  C8_18 
REMARK    9  A    between atoms: C12_24  and  N5_25 
ROOT
HETATM    1  N3  UNL     1      19.547  -4.404   9.612  1.00  0.00    -0.352 N 
ATOM      2  H3  UNL     1      19.343  -3.735   8.869  1.00  0.00     0.163 HD
HETATM    3  C7  UNL     1      19.503  -5.761   9.311  1.00  0.00     0.271 C 
HETATM    4  O1  UNL     1      19.787  -6.556  10.284  1.00  0.00    -0.266 OA
ENDROOT
BRANCH   1   5
HETATM    5  C6  UNL     1      19.865  -3.894  10.923  1.00  0.00     0.150 C 
BRANCH   5   6
HETATM    6  C5  UNL     1      19.850  -2.398  10.864  1.00  0.00    -0.010 C 
HETATM    7  C4  UNL     1      20.304  -1.653  11.859  1.00  0.00    -0.002 C 
BRANCH   7   8
HETATM    8  C3  UNL     1      20.252  -0.172  11.718  1.00  0.00     0.259 C 
BRANCH   8   9
HETATM    9  N2  UNL     1      19.829   0.226  10.411  1.00  0.00    -0.070 N 
ATOM     10  H22 UNL     1      19.265  -0.507   9.981  1.00  0.00     0.277 HD
ATOM     11  H21 UNL     1      20.621   0.236   9.768  1.00  0.00     0.277 HD
BRANCH   9  12
HETATM   12  C2  UNL     1      19.132   1.487  10.370  1.00  0.00     0.259 C 
BRANCH  12  13
HETATM   13  C1  UNL     1      18.621   1.790   8.988  1.00  0.00     0.257 C 
BRANCH  13  14
HETATM   14  N1  UNL     1      19.751   1.862   8.071  1.00  0.00    -0.078 N 
ATOM     15  H13 UNL     1      20.300   2.713   8.196  1.00  0.00     0.274 HD
ATOM     16  H12 UNL     1      20.481   1.187   8.301  1.00  0.00     0.274 HD
ATOM     17  H11 UNL     1      19.410   1.755   7.116  1.00  0.00     0.274 HD
ENDBRANCH  13  14
ENDBRANCH  12  13
ENDBRANCH   9  12
ENDBRANCH   8   9
ENDBRANCH   7   8
ENDBRANCH   5   6
ENDBRANCH   1   5
BRANCH   3  18
HETATM   18  C8  UNL     1      19.193  -6.403   8.062  1.00  0.00     0.134 A 
HETATM   19  N4  UNL     1      17.977  -7.042   8.011  1.00  0.00    -0.359 N 
HETATM   20  C9  UNL     1      17.547  -7.701   6.935  1.00  0.00     0.088 A 
ATOM     21  H4  UNL     1      17.377  -7.010   8.835  1.00  0.00     0.165 HD
HETATM   22  C10 UNL     1      18.338  -7.758   5.811  1.00  0.00     0.020 A 
HETATM   23  C11 UNL     1      19.539  -7.152   5.797  1.00  0.00     0.040 A 
HETATM   24  C12 UNL     1      19.971  -6.453   6.962  1.00  0.00     0.135 A 
BRANCH  24  25
HETATM   25  N5  UNL     1      21.213  -5.787   6.871  1.00  0.00    -0.113 N 
HETATM   26  O2  UNL     1      22.250  -6.481   6.874  1.00  0.00    -0.532 OA
HETATM   27  O3  UNL     1      21.353  -4.448   6.781  1.00  0.00    -0.532 OA
ENDBRANCH  24  25
ENDBRANCH   3  18
TORSDOF 9
ENDMDL
MODEL 2
REMARK VINA RESULT: -5.331389454      4.364      8.608
REMARK  9 active torsions:
REMARK  status: ('A' for Active; 'I' for Inactive)
REMARK    1  A    between atoms: N1_1  and  C1_5 
REMARK    2  A    between atoms: C1_5  and  C2_6 
REMARK    3  A    between atoms: C2_6  and  N2_7 
REMARK    4  A    between atoms: N2_7  and  C3_10 
REMARK    5  A    between atoms: C3_10  and  C4_11 
REMARK    6  A    between atoms: C5_12  and  C6_13 
REMARK    7  A    between atoms: C6_13  and  N3_14 
REMARK       I    between atoms: N3_14  and  C7_16 
REMARK    8  A    between atoms: C7_16  and  C8_18 
REMARK    9  A    between atoms: C12_24  and  N5_25 
ROOT
HETATM    1  N3  UNL     1      17.358  -8.020   8.332  1.00  0.00    -0.352 N 
ATOM      2  H3  UNL     1      17.934  -8.780   7.973  1.00  0.00     0.163 HD
HETATM    3  C7  UNL     1      17.872  -6.728   8.300  1.00  0.00     0.271 C 
HETATM    4  O1  UNL     1      17.091  -5.807   8.750  1.00  0.00    -0.266 OA
ENDROOT
BRANCH   1   5
HETATM    5  C6  UNL     1      16.049  -8.338   8.849  1.00  0.00     0.150 C 
BRANCH   5   6
HETATM    6  C5  UNL     1      16.210  -9.323   9.964  1.00  0.00    -0.010 C 
HETATM    7  C4  UNL     1      15.627 -10.512   9.937  1.00  0.00    -0.002 C 
BRANCH   7   8
HETATM    8  C3  UNL     1      15.839 -11.432  11.089  1.00  0.00     0.259 C 
BRANCH   8   9
HETATM    9  N2  UNL     1      16.007 -12.787  10.666  1.00  0.00    -0.070 N 
ATOM     10  H22 UNL     1      16.753 -12.854   9.974  1.00  0.00     0.277 HD
ATOM     11  H21 UNL     1      15.214 -13.084  10.096  1.00  0.00     0.277 HD
BRANCH   9  12
HETATM   12  C2  UNL     1      16.231 -13.722  11.740  1.00  0.00     0.259 C 
BRANCH  12  13
HETATM   13  C1  UNL     1      17.169 -14.823  11.327  1.00  0.00     0.257 C 
BRANCH  13  14
HETATM   14  N1  UNL     1      17.134 -14.955   9.876  1.00  0.00    -0.078 N 
ATOM     15  H13 UNL     1      16.533 -15.720   9.570  1.00  0.00     0.274 HD
ATOM     16  H12 UNL     1      16.630 -14.189   9.428  1.00  0.00     0.274 HD
ATOM     17  H11 UNL     1      18.089 -15.047   9.529  1.00  0.00     0.274 HD
ENDBRANCH  13  14
ENDBRANCH  12  13
ENDBRANCH   9  12
ENDBRANCH   8   9
ENDBRANCH   7   8
ENDBRANCH   5   6
ENDBRANCH   1   5
BRANCH   3  18
HETATM   18  C8  UNL     1      19.151  -6.273   7.826  1.00  0.00     0.134 A 
HETATM   19  N4  UNL     1      19.728  -5.263   8.560  1.00  0.00    -0.359 N 
HETATM   20  C9  UNL     1      20.902  -4.716   8.245  1.00  0.00     0.088 A 
ATOM     21  H4  UNL     1      19.234  -4.917   9.382  1.00  0.00     0.165 HD
HETATM   22  C10 UNL     1      21.587  -5.165   7.140  1.00  0.00     0.020 A 
HETATM   23  C11 UNL     1      21.077  -6.152   6.382  1.00  0.00     0.040 A 
HETATM   24  C12 UNL     1      19.821  -6.719   6.745  1.00  0.00     0.135 A 
BRANCH  24  25
HETATM   25  N5  UNL     1      19.361  -7.790   5.948  1.00  0.00    -0.113 N 
HETATM   26  O2  UNL     1      20.020  -8.850   5.956  1.00  0.00    -0.532 OA
HETATM   27  O3  UNL     1      18.255  -7.743   5.177  1.00  0.00    -0.532 OA
ENDBRANCH  24  25
ENDBRANCH   3  18
TORSDOF 9
ENDMDL
MODEL 3
REMARK VINA RESULT: -5.224419124      2.862      7.836
REMARK  9 active torsions:
REMARK  status: ('A' for Active; 'I' for Inactive)
REMARK    1  A    between atoms: N1_1  and  C1_5 
REMARK    2  A    between atoms: C1_5  and  C2_6 
REMARK    3  A    between atoms: C2_6  and  N2_7 
REMARK    4  A    between atoms: N2_7  and  C3_10 
REMARK    5  A    between atoms: C3_10  and  C4_11 
REMARK    6  A    between atoms: C5_12  and  C6_13 
REMARK    7  A    between atoms: C6_13  and  N3_14 
REMARK       I    between atoms: N3_14  and  C7_16 
REMARK    8  A    between atoms: C7_16  and  C8_18 
REMARK    9  A    between atoms: C12_24  and  N5_25 
ROOT
HETATM    1  N3  UNL     1      20.062  -3.502  10.443  1.00  0.00    -0.352 N 
ATOM      2  H3  UNL     1      20.753  -4.070  10.934  1.00  0.00     0.163 HD
HETATM    3  C7  UNL     1      19.894  -2.179  10.837  1.00  0.00     0.271 C 
HETATM    4  O1  UNL     1      19.021  -1.506  10.169  1.00  0.00    -0.266 OA
ENDROOT
BRANCH   1   5
HETATM    5  C6  UNL     1      19.307  -4.112   9.377  1.00  0.00     0.150 C 
BRANCH   5   6
HETATM    6  C5  UNL     1      20.177  -5.126   8.703  1.00  0.00    -0.010 C 
HETATM    7  C4  UNL     1      20.862  -4.843   7.606  1.00  0.00    -0.002 C 
BRANCH   7   8
HETATM    8  C3  UNL     1      21.704  -5.911   7.000  1.00  0.00     0.259 C 
BRANCH   8   9
HETATM    9  N2  UNL     1      21.060  -6.531   5.884  1.00  0.00    -0.070 N 
ATOM     10  H22 UNL     1      21.743  -6.762   5.162  1.00  0.00     0.277 HD
ATOM     11  H21 UNL     1      20.494  -5.851   5.377  1.00  0.00     0.277 HD
BRANCH   9  12
HETATM   12  C2  UNL     1      20.272  -7.690   6.221  1.00  0.00     0.259 C 
BRANCH  12  13
HETATM   13  C1  UNL     1      18.815  -7.472   5.921  1.00  0.00     0.257 C 
BRANCH  13  14
HETATM   14  N1  UNL     1      18.036  -7.755   7.120  1.00  0.00    -0.078 N 
ATOM     15  H13 UNL     1      18.361  -7.225   7.928  1.00  0.00     0.274 HD
ATOM     16  H12 UNL     1      17.092  -7.373   7.068  1.00  0.00     0.274 HD
ATOM     17  H11 UNL     1      18.040  -8.761   7.288  1.00  0.00     0.274 HD
ENDBRANCH  13  14
ENDBRANCH  12  13
ENDBRANCH   9  12
ENDBRANCH   8   9
ENDBRANCH   7   8
ENDBRANCH   5   6
ENDBRANCH   1   5
BRANCH   3  18
HETATM   18  C8  UNL     1      20.565  -1.451  11.880  1.00  0.00     0.134 A 
HETATM   19  N4  UNL     1      21.274  -0.347  11.468  1.00  0.00    -0.359 N 
HETATM   20  C9  UNL     1      21.968   0.425  12.304  1.00  0.00     0.088 A 
ATOM     21  H4  UNL     1      21.269  -0.108  10.476  1.00  0.00     0.165 HD
HETATM   22  C10 UNL     1      21.991   0.124  13.646  1.00  0.00     0.020 A 
HETATM   23  C11 UNL     1      21.317  -0.942  14.113  1.00  0.00     0.040 A 
HETATM   24  C12 UNL     1      20.582  -1.747  13.195  1.00  0.00     0.135 A 
BRANCH  24  25
HETATM   25  N5  UNL     1      19.846  -2.819  13.747  1.00  0.00    -0.113 N 
HETATM   26  O2  UNL     1      18.845  -2.546  14.439  1.00  0.00    -0.532 OA
HETATM   27  O3  UNL     1      20.156  -4.122  13.576  1.00  0.00    -0.532 OA
ENDBRANCH  24  25
ENDBRANCH   3  18
TORSDOF 9
ENDMDL
MODEL 4
REMARK VINA RESULT: -5.193781081      4.176      8.637
REMARK  9 active torsions:
REMARK  status: ('A' for Active; 'I' for Inactive)
REMARK    1  A    between atoms: N1_1  and  C1_5 
REMARK    2  A    between atoms: C1_5  and  C2_6 
REMARK    3  A    between atoms: C2_6  and  N2_7 
REMARK    4  A    between atoms: N2_7  and  C3_10 
REMARK    5  A    between atoms: C3_10  and  C4_11 
REMARK    6  A    between atoms: C5_12  and  C6_13 
REMARK    7  A    between atoms: C6_13  and  N3_14 
REMARK       I    between atoms: N3_14  and  C7_16 
REMARK    8  A    between atoms: C7_16  and  C8_18 
REMARK    9  A    between atoms: C12_24  and  N5_25 
ROOT
HETATM    1  N3  UNL     1      17.303  -8.000   8.328  1.00  0.00    -0.352 N 
ATOM      2  H3  UNL     1      17.880  -8.784   8.024  1.00  0.00     0.163 HD
HETATM    3  C7  UNL     1      17.841  -6.719   8.267  1.00  0.00     0.271 C 
HETATM    4  O1  UNL     1      17.058  -5.768   8.646  1.00  0.00    -0.266 OA
ENDROOT
BRANCH   1   5
HETATM    5  C6  UNL     1      15.969  -8.276   8.801  1.00  0.00     0.150 C 
BRANCH   5   6
HETATM    6  C5  UNL     1      16.019  -9.492   9.671  1.00  0.00    -0.010 C 
HETATM    7  C4  UNL     1      15.124 -10.462   9.572  1.00  0.00    -0.002 C 
BRANCH   7   8
HETATM    8  C3  UNL     1      15.248 -11.638  10.477  1.00  0.00     0.259 C 
BRANCH   8   9
HETATM    9  N2  UNL     1      14.817 -12.847   9.846  1.00  0.00    -0.070 N 
ATOM     10  H22 UNL     1      14.653 -13.573  10.542  1.00  0.00     0.277 HD
ATOM     11  H21 UNL     1      15.586 -13.272   9.328  1.00  0.00     0.277 HD
BRANCH   9  12
HETATM   12  C2  UNL     1      13.662 -12.694   8.996  1.00  0.00     0.259 C 
BRANCH  12  13
HETATM   13  C1  UNL     1      13.547 -13.826   8.013  1.00  0.00     0.257 C 
BRANCH  13  14
HETATM   14  N1  UNL     1      14.857 -14.441   7.843  1.00  0.00    -0.078 N 
ATOM     15  H13 UNL     1      15.144 -14.480   6.865  1.00  0.00     0.274 HD
ATOM     16  H12 UNL     1      15.612 -13.849   8.191  1.00  0.00     0.274 HD
ATOM     17  H11 UNL     1      14.852 -15.361   8.283  1.00  0.00     0.274 HD
ENDBRANCH  13  14
ENDBRANCH  12  13
ENDBRANCH   9  12
ENDBRANCH   8   9
ENDBRANCH   7   8
ENDBRANCH   5   6
ENDBRANCH   1   5
BRANCH   3  18
HETATM   18  C8  UNL     1      19.146  -6.304   7.830  1.00  0.00     0.134 A 
HETATM   19  N4  UNL     1      19.737  -5.319   8.586  1.00  0.00    -0.359 N 
HETATM   20  C9  UNL     1      20.937  -4.810   8.306  1.00  0.00     0.088 A 
ATOM     21  H4  UNL     1      19.234  -4.962   9.398  1.00  0.00     0.165 HD
HETATM   22  C10 UNL     1      21.636  -5.274   7.216  1.00  0.00     0.020 A 
HETATM   23  C11 UNL     1      21.113  -6.237   6.437  1.00  0.00     0.040 A 
HETATM   24  C12 UNL     1      19.829  -6.765   6.763  1.00  0.00     0.135 A 
BRANCH  24  25
HETATM   25  N5  UNL     1      19.354  -7.814   5.945  1.00  0.00    -0.113 N 
HETATM   26  O2  UNL     1      20.019  -8.869   5.904  1.00  0.00    -0.532 OA
HETATM   27  O3  UNL     1      18.228  -7.751   5.204  1.00  0.00    -0.532 OA
ENDBRANCH  24  25
ENDBRANCH   3  18
TORSDOF 9
ENDMDL
MODEL 5
REMARK VINA RESULT: -5.144429197      1.595      2.233
REMARK  9 active torsions:
REMARK  status: ('A' for Active; 'I' for Inactive)
REMARK    1  A    between atoms: N1_1  and  C1_5 
REMARK    2  A    between atoms: C1_5  and  C2_6 
REMARK    3  A    between atoms: C2_6  and  N2_7 
REMARK    4  A    between atoms: N2_7  and  C3_10 
REMARK    5  A    between atoms: C3_10  and  C4_11 
REMARK    6  A    between atoms: C5_12  and  C6_13 
REMARK    7  A    between atoms: C6_13  and  N3_14 
REMARK       I    between atoms: N3_14  and  C7_16 
REMARK    8  A    between atoms: C7_16  and  C8_18 
REMARK    9  A    between atoms: C12_24  and  N5_25 
ROOT
HETATM    1  N3  UNL     1      19.565  -4.470   9.671  1.00  0.00    -0.352 N 
ATOM      2  H3  UNL     1      19.371  -3.781   8.944  1.00  0.00     0.163 HD
HETATM    3  C7  UNL     1      19.511  -5.819   9.335  1.00  0.00     0.271 C 
HETATM    4  O1  UNL     1      19.784  -6.641  10.289  1.00  0.00    -0.266 OA
ENDROOT
BRANCH   1   5
HETATM    5  C6  UNL     1      19.881  -3.996  10.996  1.00  0.00     0.150 C 
BRANCH   5   6
HETATM    6  C5  UNL     1      19.872  -2.500  10.976  1.00  0.00    -0.010 C 
HETATM    7  C4  UNL     1      20.479  -1.784  11.909  1.00  0.00    -0.002 C 
BRANCH   7   8
HETATM    8  C3  UNL     1      20.421  -0.299  11.814  1.00  0.00     0.259 C 
BRANCH   8   9
HETATM    9  N2  UNL     1      21.711   0.273  11.580  1.00  0.00    -0.070 N 
ATOM     10  H22 UNL     1      21.846   0.450  10.585  1.00  0.00     0.277 HD
ATOM     11  H21 UNL     1      22.441  -0.421  11.735  1.00  0.00     0.277 HD
BRANCH   9  12
HETATM   12  C2  UNL     1      21.980   1.465  12.345  1.00  0.00     0.259 C 
BRANCH  12  13
HETATM   13  C1  UNL     1      23.037   1.224  13.387  1.00  0.00     0.257 C 
BRANCH  13  14
HETATM   14  N1  UNL     1      24.350   1.348  12.769  1.00  0.00    -0.078 N 
ATOM     15  H13 UNL     1      24.915   0.507  12.885  1.00  0.00     0.274 HD
ATOM     16  H12 UNL     1      24.300   1.347  11.750  1.00  0.00     0.274 HD
ATOM     17  H11 UNL     1      24.812   2.181  13.134  1.00  0.00     0.274 HD
ENDBRANCH  13  14
ENDBRANCH  12  13
ENDBRANCH   9  12
ENDBRANCH   8   9
ENDBRANCH   7   8
ENDBRANCH   5   6
ENDBRANCH   1   5
BRANCH   3  18
HETATM   18  C8  UNL     1      19.203  -6.426   8.069  1.00  0.00     0.134 A 
HETATM   19  N4  UNL     1      17.985  -7.060   7.999  1.00  0.00    -0.359 N 
HETATM   20  C9  UNL     1      17.555  -7.689   6.904  1.00  0.00     0.088 A 
ATOM     21  H4  UNL     1      17.383  -7.049   8.822  1.00  0.00     0.165 HD
HETATM   22  C10 UNL     1      18.348  -7.718   5.781  1.00  0.00     0.020 A 
HETATM   23  C11 UNL     1      19.551  -7.115   5.785  1.00  0.00     0.040 A 
HETATM   24  C12 UNL     1      19.982  -6.448   6.969  1.00  0.00     0.135 A 
BRANCH  24  25
HETATM   25  N5  UNL     1      21.226  -5.783   6.898  1.00  0.00    -0.113 N 
HETATM   26  O2  UNL     1      22.260  -6.480   6.876  1.00  0.00    -0.532 OA
HETATM   27  O3  UNL     1      21.369  -4.442   6.854  1.00  0.00    -0.532 OA
ENDBRANCH  24  25
ENDBRANCH   3  18
TORSDOF 9
ENDMDL
