MODEL 1
REMARK VINA RESULT: -9.903112986      0.000      0.000
REMARK  9 active torsions:
REMARK  status: ('A' for Active; 'I' for Inactive)
REMARK       I    between atoms: C2_2  and  N1_4 
REMARK    1  A    between atoms: N1_4  and  C3_6 
REMARK    2  A    between atoms: C3_6  and  C4_7 
REMARK    3  A    between atoms: C5_13  and  O4_14 
REMARK    4  A    between atoms: C6_16  and  O5_17 
REMARK    5  A    between atoms: C6_16  and  C7_19 
REMARK    6  A    between atoms: N3_21  and  C9_22 
REMARK    7  A    between atoms: C9_22  and  C11_24 
REMARK       I    between atoms: C11_24  and  N4_26 
REMARK    8  A    between atoms: N4_26  and  C12_28 
REMARK    9  A    between atoms: C13_32  and  O7_33 
ROOT
HETATM    1  C7  UNL     1     -21.482  19.169 -15.156  1.00  0.00     0.110 A 
HETATM    2  C8  UNL     1     -20.329  19.738 -15.654  1.00  0.00     0.144 A 
HETATM    3  N3  UNL     1     -19.471  19.990 -14.632  1.00  0.00    -0.274 N 
HETATM    4  N6  UNL     1     -20.069  19.588 -13.536  1.00  0.00    -0.240 N 
ATOM      5  H6  UNL     1     -19.675  19.643 -12.596  1.00  0.00     0.208 HD
HETATM    6  N7  UNL     1     -21.282  19.092 -13.844  1.00  0.00    -0.283 N 
ATOM      7  H7  UNL     1     -21.949  18.713 -13.171  1.00  0.00     0.188 HD
ENDROOT
BRANCH   1   8
HETATM    8  C6  UNL     1     -22.643  18.755 -16.006  1.00  0.00     0.266 C 
HETATM    9  C5  UNL     1     -22.822  17.252 -15.925  1.00  0.00     0.395 C 
HETATM   10  N2  UNL     1     -24.189  17.069 -16.288  1.00  0.00     0.019 N 
HETATM   11  C3  UNL     1     -24.830  18.323 -15.951  1.00  0.00     0.404 C 
ATOM     12  H22 UNL     1     -24.626  16.252 -15.860  1.00  0.00     0.287 HD
ATOM     13  H21 UNL     1     -24.327  16.779 -17.256  1.00  0.00     0.287 HD
HETATM   14  O9  UNL     1     -23.853  19.201 -15.498  1.00  0.00    -0.282 OA
BRANCH   9  15
HETATM   15  O4  UNL     1     -21.920  16.678 -16.800  1.00  0.00    -0.365 OA
ATOM     16  H4  UNL     1     -21.009  16.852 -16.593  1.00  0.00     0.212 HD
ENDBRANCH   9  15
BRANCH  11  17
HETATM   17  N1  UNL     1     -25.509  18.795 -17.132  1.00  0.00    -0.297 N 
HETATM   18  C2  UNL     1     -26.287  18.008 -18.013  1.00  0.00     0.217 C 
HETATM   19  C1  UNL     1     -26.886  18.706 -19.198  1.00  0.00     0.117 C 
HETATM   20  O1  UNL     1     -26.488  16.794 -17.859  1.00  0.00    -0.274 OA
ATOM     21  H1  UNL     1     -25.420  19.787 -17.352  1.00  0.00     0.167 HD
ENDBRANCH  11  17
BRANCH  11  22
HETATM   22  C4  UNL     1     -25.832  18.013 -14.899  1.00  0.00     0.263 C 
HETATM   23  O2  UNL     1     -26.553  18.893 -14.391  1.00  0.00    -0.643 OA
HETATM   24  O3  UNL     1     -25.904  16.673 -14.525  1.00  0.00    -0.643 OA
ENDBRANCH  11  22
BRANCH   8  25
HETATM   25  O5  UNL     1     -22.422  19.157 -17.302  1.00  0.00    -0.357 OA
ATOM     26  H5  UNL     1     -21.982  19.998 -17.329  1.00  0.00     0.213 HD
ENDBRANCH   8  25
ENDBRANCH   1   8
BRANCH   3  27
HETATM   27  C9  UNL     1     -18.153  20.614 -14.770  1.00  0.00     0.196 C 
HETATM   28  C10 UNL     1     -17.830  21.207 -13.401  1.00  0.00     0.044 C 
BRANCH  27  29
HETATM   29  C11 UNL     1     -17.093  19.714 -15.175  1.00  0.00     0.245 C 
HETATM   30  O6  UNL     1     -17.173  18.482 -14.944  1.00  0.00    -0.271 OA
HETATM   31  N4  UNL     1     -15.952  20.188 -15.846  1.00  0.00    -0.310 N 
ATOM     32  H4  UNL     1     -15.901  21.191 -16.021  1.00  0.00     0.166 HD
BRANCH  31  33
HETATM   33  C12 UNL     1     -14.844  19.381 -16.308  1.00  0.00     0.440 C 
HETATM   34  N5  UNL     1     -13.531  19.909 -15.870  1.00  0.00     0.020 N 
HETATM   35  C13 UNL     1     -13.106  19.517 -17.208  1.00  0.00     0.475 C 
ATOM     36  H52 UNL     1     -13.409  20.854 -15.506  1.00  0.00     0.288 HD
ATOM     37  H51 UNL     1     -13.060  19.585 -15.024  1.00  0.00     0.288 HD
HETATM   38  O8  UNL     1     -14.439  19.682 -17.613  1.00  0.00    -0.289 OA
BRANCH  35  39
HETATM   39  O7  UNL     1     -12.663  18.196 -17.313  1.00  0.00    -0.349 OA
ATOM     40  H7  UNL     1     -13.334  17.573 -17.568  1.00  0.00     0.214 HD
ENDBRANCH  35  39
ENDBRANCH  31  33
ENDBRANCH  27  29
ENDBRANCH   3  27
TORSDOF 9
ENDMDL
MODEL 2
REMARK VINA RESULT: -9.896186316      2.367      3.328
REMARK  9 active torsions:
REMARK  status: ('A' for Active; 'I' for Inactive)
REMARK       I    between atoms: C2_2  and  N1_4 
REMARK    1  A    between atoms: N1_4  and  C3_6 
REMARK    2  A    between atoms: C3_6  and  C4_7 
REMARK    3  A    between atoms: C5_13  and  O4_14 
REMARK    4  A    between atoms: C6_16  and  O5_17 
REMARK    5  A    between atoms: C6_16  and  C7_19 
REMARK    6  A    between atoms: N3_21  and  C9_22 
REMARK    7  A    between atoms: C9_22  and  C11_24 
REMARK       I    between atoms: C11_24  and  N4_26 
REMARK    8  A    between atoms: N4_26  and  C12_28 
REMARK    9  A    between atoms: C13_32  and  O7_33 
ROOT
HETATM    1  C7  UNL     1     -18.952  19.057 -17.818  1.00  0.00     0.110 A 
HETATM    2  C8  UNL     1     -18.190  19.196 -16.676  1.00  0.00     0.144 A 
HETATM    3  N3  UNL     1     -16.904  19.462 -17.020  1.00  0.00    -0.274 N 
HETATM    4  N6  UNL     1     -16.867  19.492 -18.331  1.00  0.00    -0.240 N 
ATOM      5  H6  UNL     1     -16.034  19.671 -18.892  1.00  0.00     0.208 HD
HETATM    6  N7  UNL     1     -18.097  19.248 -18.819  1.00  0.00    -0.283 N 
ATOM      7  H7  UNL     1     -18.339  19.215 -19.810  1.00  0.00     0.188 HD
ENDROOT
BRANCH   1   8
HETATM    8  C6  UNL     1     -20.420  18.765 -17.812  1.00  0.00     0.266 C 
HETATM    9  C5  UNL     1     -20.655  17.349 -17.326  1.00  0.00     0.395 C 
HETATM   10  N2  UNL     1     -22.003  17.386 -16.862  1.00  0.00     0.019 N 
HETATM   11  C3  UNL     1     -22.235  18.773 -16.518  1.00  0.00     0.404 C 
ATOM     12  H22 UNL     1     -22.199  16.732 -16.104  1.00  0.00     0.287 HD
ATOM     13  H21 UNL     1     -22.680  17.002 -17.521  1.00  0.00     0.287 HD
HETATM   14  O9  UNL     1     -21.099  19.499 -16.853  1.00  0.00    -0.282 OA
BRANCH   9  15
HETATM   15  O4  UNL     1     -20.446  16.502 -18.398  1.00  0.00    -0.365 OA
ATOM     16  H4  UNL     1     -20.437  16.935 -19.243  1.00  0.00     0.212 HD
ENDBRANCH   9  15
BRANCH  11  17
HETATM   17  N1  UNL     1     -23.411  19.206 -17.230  1.00  0.00    -0.297 N 
HETATM   18  C2  UNL     1     -24.620  18.482 -17.356  1.00  0.00     0.217 C 
HETATM   19  C1  UNL     1     -25.711  19.118 -18.166  1.00  0.00     0.117 C 
HETATM   20  O1  UNL     1     -24.814  17.370 -16.844  1.00  0.00    -0.274 OA
ATOM     21  H1  UNL     1     -23.367  20.118 -17.685  1.00  0.00     0.167 HD
ENDBRANCH  11  17
BRANCH  11  22
HETATM   22  C4  UNL     1     -22.506  18.803 -15.058  1.00  0.00     0.263 C 
HETATM   23  O2  UNL     1     -21.850  18.119 -14.248  1.00  0.00    -0.643 OA
HETATM   24  O3  UNL     1     -23.542  19.647 -14.664  1.00  0.00    -0.643 OA
ENDBRANCH  11  22
BRANCH   8  25
HETATM   25  O5  UNL     1     -20.922  18.943 -19.080  1.00  0.00    -0.357 OA
ATOM     26  H5  UNL     1     -20.733  19.815 -19.404  1.00  0.00     0.213 HD
ENDBRANCH   8  25
ENDBRANCH   1   8
BRANCH   3  27
HETATM   27  C9  UNL     1     -15.799  19.648 -16.077  1.00  0.00     0.196 C 
HETATM   28  C10 UNL     1     -15.733  18.363 -15.257  1.00  0.00     0.044 C 
BRANCH  27  29
HETATM   29  C11 UNL     1     -14.512  19.902 -16.691  1.00  0.00     0.245 C 
HETATM   30  O6  UNL     1     -14.290  20.983 -17.293  1.00  0.00    -0.271 OA
HETATM   31  N4  UNL     1     -13.473  18.958 -16.625  1.00  0.00    -0.310 N 
ATOM     32  H4  UNL     1     -13.671  18.085 -16.137  1.00  0.00     0.166 HD
BRANCH  31  33
HETATM   33  C12 UNL     1     -12.150  19.112 -17.187  1.00  0.00     0.440 C 
HETATM   34  N5  UNL     1     -11.233  18.013 -16.802  1.00  0.00     0.020 N 
HETATM   35  C13 UNL     1     -10.251  19.084 -16.693  1.00  0.00     0.475 C 
ATOM     36  H52 UNL     1     -11.435  17.369 -16.037  1.00  0.00     0.288 HD
ATOM     37  H51 UNL     1     -11.088  17.186 -17.382  1.00  0.00     0.288 HD
HETATM   38  O8  UNL     1     -11.320  19.957 -16.441  1.00  0.00    -0.289 OA
BRANCH  35  39
HETATM   39  O7  UNL     1      -9.577  19.376 -17.883  1.00  0.00    -0.349 OA
ATOM     40  H7  UNL     1      -9.286  18.614 -18.369  1.00  0.00     0.214 HD
ENDBRANCH  35  39
ENDBRANCH  31  33
ENDBRANCH  27  29
ENDBRANCH   3  27
TORSDOF 9
ENDMDL
MODEL 3
REMARK VINA RESULT: -9.559344411      3.384      4.733
REMARK  9 active torsions:
REMARK  status: ('A' for Active; 'I' for Inactive)
REMARK       I    between atoms: C2_2  and  N1_4 
REMARK    1  A    between atoms: N1_4  and  C3_6 
REMARK    2  A    between atoms: C3_6  and  C4_7 
REMARK    3  A    between atoms: C5_13  and  O4_14 
REMARK    4  A    between atoms: C6_16  and  O5_17 
REMARK    5  A    between atoms: C6_16  and  C7_19 
REMARK    6  A    between atoms: N3_21  and  C9_22 
REMARK    7  A    between atoms: C9_22  and  C11_24 
REMARK       I    between atoms: C11_24  and  N4_26 
REMARK    8  A    between atoms: N4_26  and  C12_28 
REMARK    9  A    between atoms: C13_32  and  O7_33 
ROOT
HETATM    1  C7  UNL     1     -17.634  19.009 -17.498  1.00  0.00     0.110 A 
HETATM    2  C8  UNL     1     -17.183  18.756 -16.219  1.00  0.00     0.144 A 
HETATM    3  N3  UNL     1     -15.912  19.216 -16.088  1.00  0.00    -0.274 N 
HETATM    4  N6  UNL     1     -15.585  19.741 -17.244  1.00  0.00    -0.240 N 
ATOM      5  H6  UNL     1     -14.687  20.174 -17.462  1.00  0.00     0.208 HD
HETATM    6  N7  UNL     1     -16.618  19.621 -18.100  1.00  0.00    -0.283 N 
ATOM      7  H7  UNL     1     -16.621  19.949 -19.065  1.00  0.00     0.188 HD
ENDROOT
BRANCH   1   8
HETATM    8  C6  UNL     1     -18.999  18.642 -17.990  1.00  0.00     0.266 C 
HETATM    9  C5  UNL     1     -19.146  17.133 -18.003  1.00  0.00     0.395 C 
HETATM   10  N2  UNL     1     -20.559  16.945 -17.949  1.00  0.00     0.019 N 
HETATM   11  C3  UNL     1     -21.065  18.145 -17.315  1.00  0.00     0.404 C 
ATOM     12  H22 UNL     1     -20.845  16.081 -17.489  1.00  0.00     0.287 HD
ATOM     13  H21 UNL     1     -20.985  16.741 -18.853  1.00  0.00     0.287 HD
HETATM   14  O9  UNL     1     -19.996  19.005 -17.099  1.00  0.00    -0.282 OA
BRANCH   9  15
HETATM   15  O4  UNL     1     -18.554  16.668 -19.162  1.00  0.00    -0.365 OA
ATOM     16  H4  UNL     1     -17.686  16.302 -19.038  1.00  0.00     0.212 HD
ENDBRANCH   9  15
BRANCH  11  17
HETATM   17  N1  UNL     1     -22.072  18.703 -18.182  1.00  0.00    -0.297 N 
HETATM   18  C2  UNL     1     -22.896  19.816 -17.891  1.00  0.00     0.217 C 
HETATM   19  C1  UNL     1     -23.896  20.212 -18.936  1.00  0.00     0.117 C 
HETATM   20  O1  UNL     1     -22.834  20.461 -16.834  1.00  0.00    -0.274 OA
ATOM     21  H1  UNL     1     -22.202  18.254 -19.089  1.00  0.00     0.167 HD
ENDBRANCH  11  17
BRANCH  11  22
HETATM   22  C4  UNL     1     -21.698  17.711 -16.043  1.00  0.00     0.263 C 
HETATM   23  O2  UNL     1     -22.609  16.861 -16.013  1.00  0.00    -0.643 OA
HETATM   24  O3  UNL     1     -21.201  18.321 -14.894  1.00  0.00    -0.643 OA
ENDBRANCH  11  22
BRANCH   8  25
HETATM   25  O5  UNL     1     -19.184  19.167 -19.247  1.00  0.00    -0.357 OA
ATOM     26  H5  UNL     1     -19.323  20.106 -19.208  1.00  0.00     0.213 HD
ENDBRANCH   8  25
ENDBRANCH   1   8
BRANCH   3  27
HETATM   27  C9  UNL     1     -15.094  19.103 -14.879  1.00  0.00     0.196 C 
HETATM   28  C10 UNL     1     -13.971  18.130 -15.227  1.00  0.00     0.044 C 
BRANCH  27  29
HETATM   29  C11 UNL     1     -14.530  20.351 -14.408  1.00  0.00     0.245 C 
HETATM   30  O6  UNL     1     -14.509  21.367 -15.148  1.00  0.00    -0.271 OA
HETATM   31  N4  UNL     1     -13.999  20.469 -13.112  1.00  0.00    -0.310 N 
ATOM     32  H4  UNL     1     -14.019  19.635 -12.526  1.00  0.00     0.166 HD
BRANCH  31  33
HETATM   33  C12 UNL     1     -13.427  21.664 -12.534  1.00  0.00     0.440 C 
HETATM   34  N5  UNL     1     -12.682  21.395 -11.282  1.00  0.00     0.020 N 
HETATM   35  C13 UNL     1     -13.287  22.645 -10.841  1.00  0.00     0.475 C 
ATOM     36  H52 UNL     1     -12.775  20.523 -10.762  1.00  0.00     0.288 HD
ATOM     37  H51 UNL     1     -11.675  21.231 -11.263  1.00  0.00     0.288 HD
HETATM   38  O8  UNL     1     -14.327  22.391 -11.747  1.00  0.00    -0.289 OA
BRANCH  35  39
HETATM   39  O7  UNL     1     -12.551  23.790 -11.161  1.00  0.00    -0.349 OA
ATOM     40  H7  UNL     1     -12.422  24.392 -10.437  1.00  0.00     0.214 HD
ENDBRANCH  35  39
ENDBRANCH  31  33
ENDBRANCH  27  29
ENDBRANCH   3  27
TORSDOF 9
ENDMDL
MODEL 4
REMARK VINA RESULT: -9.483494766      3.308      4.635
REMARK  9 active torsions:
REMARK  status: ('A' for Active; 'I' for Inactive)
REMARK       I    between atoms: C2_2  and  N1_4 
REMARK    1  A    between atoms: N1_4  and  C3_6 
REMARK    2  A    between atoms: C3_6  and  C4_7 
REMARK    3  A    between atoms: C5_13  and  O4_14 
REMARK    4  A    between atoms: C6_16  and  O5_17 
REMARK    5  A    between atoms: C6_16  and  C7_19 
REMARK    6  A    between atoms: N3_21  and  C9_22 
REMARK    7  A    between atoms: C9_22  and  C11_24 
REMARK       I    between atoms: C11_24  and  N4_26 
REMARK    8  A    between atoms: N4_26  and  C12_28 
REMARK    9  A    between atoms: C13_32  and  O7_33 
ROOT
HETATM    1  C7  UNL     1     -17.766  19.205 -17.202  1.00  0.00     0.110 A 
HETATM    2  C8  UNL     1     -17.655  19.660 -15.905  1.00  0.00     0.144 A 
HETATM    3  N3  UNL     1     -16.356  19.950 -15.637  1.00  0.00    -0.274 N 
HETATM    4  N6  UNL     1     -15.681  19.687 -16.731  1.00  0.00    -0.240 N 
ATOM      5  H6  UNL     1     -14.674  19.805 -16.845  1.00  0.00     0.208 HD
HETATM    6  N7  UNL     1     -16.525  19.237 -17.679  1.00  0.00    -0.283 N 
ATOM      7  H7  UNL     1     -16.253  18.963 -18.623  1.00  0.00     0.188 HD
ENDROOT
BRANCH   1   8
HETATM    8  C6  UNL     1     -19.060  18.800 -17.837  1.00  0.00     0.266 C 
HETATM    9  C5  UNL     1     -19.103  17.292 -17.985  1.00  0.00     0.395 C 
HETATM   10  N2  UNL     1     -20.500  17.015 -18.067  1.00  0.00     0.019 N 
HETATM   11  C3  UNL     1     -21.135  18.122 -17.383  1.00  0.00     0.404 C 
ATOM     12  H22 UNL     1     -20.763  16.098 -17.706  1.00  0.00     0.287 HD
ATOM     13  H21 UNL     1     -20.838  16.865 -19.017  1.00  0.00     0.287 HD
HETATM   14  O9  UNL     1     -20.146  19.024 -17.007  1.00  0.00    -0.282 OA
BRANCH   9  15
HETATM   15  O4  UNL     1     -18.391  16.966 -19.124  1.00  0.00    -0.365 OA
ATOM     16  H4  UNL     1     -18.909  16.961 -19.920  1.00  0.00     0.212 HD
ENDBRANCH   9  15
BRANCH  11  17
HETATM   17  N1  UNL     1     -22.104  18.692 -18.284  1.00  0.00    -0.297 N 
HETATM   18  C2  UNL     1     -22.955  19.788 -18.005  1.00  0.00     0.217 C 
HETATM   19  C1  UNL     1     -23.907  20.201 -19.087  1.00  0.00     0.117 C 
HETATM   20  O1  UNL     1     -22.953  20.406 -16.930  1.00  0.00    -0.274 OA
ATOM     21  H1  UNL     1     -22.185  18.266 -19.207  1.00  0.00     0.167 HD
ENDBRANCH  11  17
BRANCH  11  22
HETATM   22  C4  UNL     1     -21.836  17.542 -16.209  1.00  0.00     0.263 C 
HETATM   23  O2  UNL     1     -22.693  16.645 -16.326  1.00  0.00    -0.643 OA
HETATM   24  O3  UNL     1     -21.467  18.072 -14.975  1.00  0.00    -0.643 OA
ENDBRANCH  11  22
BRANCH   8  25
HETATM   25  O5  UNL     1     -19.179  19.421 -19.058  1.00  0.00    -0.357 OA
ATOM     26  H5  UNL     1     -18.573  19.052 -19.690  1.00  0.00     0.213 HD
ENDBRANCH   8  25
ENDBRANCH   1   8
BRANCH   3  27
HETATM   27  C9  UNL     1     -15.846  20.435 -14.352  1.00  0.00     0.196 C 
HETATM   28  C10 UNL     1     -17.063  20.949 -13.590  1.00  0.00     0.044 C 
BRANCH  27  29
HETATM   29  C11 UNL     1     -15.156  19.439 -13.557  1.00  0.00     0.245 C 
HETATM   30  O6  UNL     1     -14.256  18.723 -14.063  1.00  0.00    -0.271 OA
HETATM   31  N4  UNL     1     -15.463  19.251 -12.198  1.00  0.00    -0.310 N 
ATOM     32  H4  UNL     1     -16.198  19.838 -11.804  1.00  0.00     0.166 HD
BRANCH  31  33
HETATM   33  C12 UNL     1     -14.831  18.302 -11.309  1.00  0.00     0.440 C 
HETATM   34  N5  UNL     1     -15.153  16.897 -11.650  1.00  0.00     0.020 N 
HETATM   35  C13 UNL     1     -15.218  16.728 -10.204  1.00  0.00     0.475 C 
ATOM     36  H52 UNL     1     -15.920  16.642 -12.272  1.00  0.00     0.288 HD
ATOM     37  H51 UNL     1     -14.556  16.323 -12.247  1.00  0.00     0.288 HD
HETATM   38  O8  UNL     1     -15.539  18.091 -10.121  1.00  0.00    -0.289 OA
BRANCH  35  39
HETATM   39  O7  UNL     1     -13.997  16.416  -9.600  1.00  0.00    -0.349 OA
ATOM     40  H7  UNL     1     -13.311  17.057  -9.742  1.00  0.00     0.214 HD
ENDBRANCH  35  39
ENDBRANCH  31  33
ENDBRANCH  27  29
ENDBRANCH   3  27
TORSDOF 9
ENDMDL
MODEL 5
REMARK VINA RESULT: -9.464757895      1.149      1.295
REMARK  9 active torsions:
REMARK  status: ('A' for Active; 'I' for Inactive)
REMARK       I    between atoms: C2_2  and  N1_4 
REMARK    1  A    between atoms: N1_4  and  C3_6 
REMARK    2  A    between atoms: C3_6  and  C4_7 
REMARK    3  A    between atoms: C5_13  and  O4_14 
REMARK    4  A    between atoms: C6_16  and  O5_17 
REMARK    5  A    between atoms: C6_16  and  C7_19 
REMARK    6  A    between atoms: N3_21  and  C9_22 
REMARK    7  A    between atoms: C9_22  and  C11_24 
REMARK       I    between atoms: C11_24  and  N4_26 
REMARK    8  A    between atoms: N4_26  and  C12_28 
REMARK    9  A    between atoms: C13_32  and  O7_33 
ROOT
HETATM    1  C7  UNL     1     -21.480  19.154 -15.357  1.00  0.00     0.110 A 
HETATM    2  C8  UNL     1     -20.290  19.604 -15.890  1.00  0.00     0.144 A 
HETATM    3  N3  UNL     1     -19.415  19.866 -14.885  1.00  0.00    -0.274 N 
HETATM    4  N6  UNL     1     -20.038  19.585 -13.765  1.00  0.00    -0.240 N 
ATOM      5  H6  UNL     1     -19.641  19.678 -12.830  1.00  0.00     0.208 HD
HETATM    6  N7  UNL     1     -21.284  19.155 -14.042  1.00  0.00    -0.283 N 
ATOM      7  H7  UNL     1     -21.975  18.873 -13.346  1.00  0.00     0.188 HD
ENDROOT
BRANCH   1   8
HETATM    8  C6  UNL     1     -22.669  18.764 -16.180  1.00  0.00     0.266 C 
HETATM    9  C5  UNL     1     -23.057  17.333 -15.865  1.00  0.00     0.395 C 
HETATM   10  N2  UNL     1     -24.429  17.277 -16.254  1.00  0.00     0.019 N 
HETATM   11  C3  UNL     1     -24.895  18.645 -16.154  1.00  0.00     0.404 C 
ATOM     12  H22 UNL     1     -24.985  16.609 -15.721  1.00  0.00     0.287 HD
ATOM     13  H21 UNL     1     -24.584  16.852 -17.168  1.00  0.00     0.287 HD
HETATM   14  O9  UNL     1     -23.815  19.447 -15.805  1.00  0.00    -0.282 OA
BRANCH   9  15
HETATM   15  O4  UNL     1     -22.225  16.506 -16.595  1.00  0.00    -0.365 OA
ATOM     16  H4  UNL     1     -21.415  16.916 -16.875  1.00  0.00     0.212 HD
ENDBRANCH   9  15
BRANCH  11  17
HETATM   17  N1  UNL     1     -25.475  19.000 -17.424  1.00  0.00    -0.297 N 
HETATM   18  C2  UNL     1     -26.343  18.193 -18.197  1.00  0.00     0.217 C 
HETATM   19  C1  UNL     1     -26.811  18.757 -19.505  1.00  0.00     0.117 C 
HETATM   20  O1  UNL     1     -26.722  17.063 -17.853  1.00  0.00    -0.274 OA
ATOM     21  H1  UNL     1     -25.239  19.919 -17.800  1.00  0.00     0.167 HD
ENDBRANCH  11  17
BRANCH  11  22
HETATM   22  C4  UNL     1     -25.953  18.651 -15.111  1.00  0.00     0.263 C 
HETATM   23  O2  UNL     1     -26.284  17.617 -14.497  1.00  0.00    -0.643 OA
HETATM   24  O3  UNL     1     -26.544  19.889 -14.872  1.00  0.00    -0.643 OA
ENDBRANCH  11  22
BRANCH   8  25
HETATM   25  O5  UNL     1     -22.366  18.912 -17.513  1.00  0.00    -0.357 OA
ATOM     26  H5  UNL     1     -21.584  18.424 -17.742  1.00  0.00     0.213 HD
ENDBRANCH   8  25
ENDBRANCH   1   8
BRANCH   3  27
HETATM   27  C9  UNL     1     -18.057  20.385 -15.061  1.00  0.00     0.196 C 
HETATM   28  C10 UNL     1     -17.522  20.632 -13.655  1.00  0.00     0.044 C 
BRANCH  27  29
HETATM   29  C11 UNL     1     -17.158  19.504 -15.778  1.00  0.00     0.245 C 
HETATM   30  O6  UNL     1     -17.170  19.458 -17.035  1.00  0.00    -0.271 OA
HETATM   31  N4  UNL     1     -16.242  18.685 -15.096  1.00  0.00    -0.310 N 
ATOM     32  H4  UNL     1     -16.248  18.731 -14.078  1.00  0.00     0.166 HD
BRANCH  31  33
HETATM   33  C12 UNL     1     -15.292  17.783 -15.708  1.00  0.00     0.440 C 
HETATM   34  N5  UNL     1     -14.254  17.315 -14.759  1.00  0.00     0.020 N 
HETATM   35  C13 UNL     1     -13.365  17.471 -15.903  1.00  0.00     0.475 C 
ATOM     36  H52 UNL     1     -14.083  17.768 -13.861  1.00  0.00     0.288 HD
ATOM     37  H51 UNL     1     -14.336  16.442 -14.237  1.00  0.00     0.288 HD
HETATM   38  O8  UNL     1     -14.259  18.435 -16.390  1.00  0.00    -0.289 OA
BRANCH  35  39
HETATM   39  O7  UNL     1     -13.274  16.344 -16.726  1.00  0.00    -0.349 OA
ATOM     40  H7  UNL     1     -12.434  16.235 -17.154  1.00  0.00     0.214 HD
ENDBRANCH  35  39
ENDBRANCH  31  33
ENDBRANCH  27  29
ENDBRANCH   3  27
TORSDOF 9
ENDMDL
