MODEL 1
REMARK VINA RESULT: -7.913681973      0.000      0.000
REMARK  14 active torsions:
REMARK  status: ('A' for Active; 'I' for Inactive)
REMARK    1  A    between atoms: C5_5  and  N1_6 
REMARK    2  A    between atoms: N1_6  and  C6_8 
REMARK    3  A    between atoms: C6_8  and  C7_9 
REMARK    4  A    between atoms: C7_9  and  O1_10 
REMARK    5  A    between atoms: C7_9  and  C8_12 
REMARK    6  A    between atoms: C8_12  and  C9_13 
REMARK    7  A    between atoms: C8_12  and  N2_16 
REMARK    8  A    between atoms: C9_13  and  C10_14 
REMARK       I    between atoms: N2_16  and  C11_18 
REMARK    9  A    between atoms: C11_18  and  C12_20 
REMARK   10  A    between atoms: C12_20  and  C13_21 
REMARK   11  A    between atoms: C12_20  and  N3_28 
REMARK   12  A    between atoms: C13_21  and  C14_22 
REMARK   13  A    between atoms: N3_28  and  C20_30 
REMARK   14  A    between atoms: C20_30  and  C21_31 
ROOT
HETATM    1  C8  UNL     1       4.023 -26.730   6.084  1.00  0.00     0.119 C 
ENDROOT
BRANCH   1   2
HETATM    2  C7  UNL     1       3.125 -27.036   7.277  1.00  0.00     0.179 C 
BRANCH   2   3
HETATM    3  C6  UNL     1       1.876 -27.738   6.880  1.00  0.00     0.096 C 
BRANCH   3   4
HETATM    4  N1  UNL     1       1.672 -29.097   7.032  1.00  0.00    -0.351 N 
ATOM      5  H1  UNL     1       1.940 -29.530   7.915  1.00  0.00     0.166 HD
BRANCH   4   6
HETATM    6  C5  UNL     1       1.108 -29.918   6.020  1.00  0.00     0.122 C 
HETATM    7  C4  UNL     1       0.718 -29.319   4.732  1.00  0.00     0.114 C 
HETATM    8  C2  UNL     1       0.651 -30.299   3.585  1.00  0.00     0.028 C 
HETATM    9  C1  UNL     1      -0.687 -30.980   3.475  1.00  0.00     0.038 C 
HETATM   10  C3  UNL     1       0.836 -29.485   2.304  1.00  0.00     0.038 C 
HETATM   11  N4  UNL     1       1.668 -31.277   3.587  1.00  0.00    -0.383 N 
HETATM   12  C22 UNL     1       2.308 -31.553   4.817  1.00  0.00     0.131 C 
ATOM     13  H4  UNL     1       1.932 -31.767   2.733  1.00  0.00     0.157 HD
HETATM   14  O5  UNL     1       1.727 -31.166   5.962  1.00  0.00    -0.309 OA
HETATM   15  C23 UNL     1       3.774 -31.130   4.686  1.00  0.00     0.070 C 
HETATM   16  C24 UNL     1       2.381 -33.102   4.892  1.00  0.00     0.070 C 
ENDBRANCH   4   6
ENDBRANCH   3   4
ENDBRANCH   2   3
BRANCH   2  17
HETATM   17  O1  UNL     1       3.884 -28.101   7.922  1.00  0.00    -0.388 OA
ATOM     18  H1  UNL     1       4.501 -28.347   7.242  1.00  0.00     0.210 HD
ENDBRANCH   2  17
ENDBRANCH   1   2
BRANCH   1  19
HETATM   19  C9  UNL     1       3.248 -26.552   4.810  1.00  0.00     0.043 C 
BRANCH  19  20
HETATM   20  C10 UNL     1       3.766 -27.443   3.730  1.00  0.00     0.116 C 
HETATM   21 CL1  UNL     1       5.494 -27.117   3.397  1.00  0.00    -0.130 Cl
ENDBRANCH  19  20
ENDBRANCH   1  19
BRANCH   1  22
HETATM   22  N2  UNL     1       4.682 -25.446   6.406  1.00  0.00    -0.352 N 
HETATM   23  C11 UNL     1       5.984 -25.461   6.956  1.00  0.00     0.240 C 
HETATM   24  O2  UNL     1       6.513 -26.590   7.126  1.00  0.00    -0.271 OA
ATOM     25  H2  UNL     1       4.203 -24.562   6.233  1.00  0.00     0.163 HD
BRANCH  23  26
HETATM   26  C12 UNL     1       6.651 -24.185   7.301  1.00  0.00     0.173 C 
BRANCH  26  27
HETATM   27  C13 UNL     1       7.375 -23.727   6.042  1.00  0.00     0.039 C 
BRANCH  27  28
HETATM   28  C14 UNL     1       8.714 -24.312   5.819  1.00  0.00    -0.012 C 
HETATM   29  C15 UNL     1       8.889 -24.998   4.490  1.00  0.00     0.005 C 
HETATM   30  C16 UNL     1      10.220 -25.722   4.558  1.00  0.00     0.000 C 
HETATM   31  C17 UNL     1      11.336 -24.771   4.820  1.00  0.00     0.000 C 
HETATM   32  C18 UNL     1      11.086 -23.779   5.917  1.00  0.00     0.000 C 
HETATM   33  C19 UNL     1       9.719 -23.156   5.825  1.00  0.00     0.005 C 
ENDBRANCH  27  28
ENDBRANCH  26  27
BRANCH  26  34
HETATM   34  N3  UNL     1       5.836 -23.198   7.865  1.00  0.00    -0.380 N 
ATOM     35  H3  UNL     1       5.587 -23.308   8.849  1.00  0.00     0.160 HD
BRANCH  34  36
HETATM   36  C20 UNL     1       5.342 -22.099   7.216  1.00  0.00     0.169 C 
BRANCH  36  37
HETATM   37  C21 UNL     1       3.861 -22.006   7.468  1.00  0.00     0.214 C 
HETATM   38  O3  UNL     1       3.079 -22.886   7.035  1.00  0.00    -0.644 OA
HETATM   39  O4  UNL     1       3.287 -20.969   8.180  1.00  0.00    -0.644 OA
ENDBRANCH  36  37
ENDBRANCH  34  36
ENDBRANCH  26  34
ENDBRANCH  23  26
ENDBRANCH   1  22
TORSDOF 14
ENDMDL
MODEL 2
REMARK VINA RESULT: -7.888192196      0.748      1.852
REMARK  14 active torsions:
REMARK  status: ('A' for Active; 'I' for Inactive)
REMARK    1  A    between atoms: C5_5  and  N1_6 
REMARK    2  A    between atoms: N1_6  and  C6_8 
REMARK    3  A    between atoms: C6_8  and  C7_9 
REMARK    4  A    between atoms: C7_9  and  O1_10 
REMARK    5  A    between atoms: C7_9  and  C8_12 
REMARK    6  A    between atoms: C8_12  and  C9_13 
REMARK    7  A    between atoms: C8_12  and  N2_16 
REMARK    8  A    between atoms: C9_13  and  C10_14 
REMARK       I    between atoms: N2_16  and  C11_18 
REMARK    9  A    between atoms: C11_18  and  C12_20 
REMARK   10  A    between atoms: C12_20  and  C13_21 
REMARK   11  A    between atoms: C12_20  and  N3_28 
REMARK   12  A    between atoms: C13_21  and  C14_22 
REMARK   13  A    between atoms: N3_28  and  C20_30 
REMARK   14  A    between atoms: C20_30  and  C21_31 
ROOT
HETATM    1  C8  UNL     1       4.047 -26.788   6.031  1.00  0.00     0.119 C 
ENDROOT
BRANCH   1   2
HETATM    2  C7  UNL     1       2.961 -27.018   7.076  1.00  0.00     0.179 C 
BRANCH   2   3
HETATM    3  C6  UNL     1       1.986 -28.059   6.657  1.00  0.00     0.096 C 
BRANCH   3   4
HETATM    4  N1  UNL     1       2.266 -29.412   6.628  1.00  0.00    -0.351 N 
ATOM      5  H1  UNL     1       2.340 -29.911   7.515  1.00  0.00     0.166 HD
BRANCH   4   6
HETATM    6  C5  UNL     1       2.457 -30.144   5.426  1.00  0.00     0.122 C 
HETATM    7  C4  UNL     1       2.698 -31.596   5.491  1.00  0.00     0.114 C 
HETATM    8  C2  UNL     1       2.354 -32.340   4.222  1.00  0.00     0.028 C 
HETATM    9  C1  UNL     1       3.490 -32.371   3.236  1.00  0.00     0.038 C 
HETATM   10  C3  UNL     1       2.084 -33.789   4.626  1.00  0.00     0.038 C 
HETATM   11  N4  UNL     1       1.189 -31.883   3.570  1.00  0.00    -0.383 N 
HETATM   12  C22 UNL     1       0.758 -30.566   3.847  1.00  0.00     0.131 C 
ATOM     13  H4  UNL     1       0.677 -32.482   2.923  1.00  0.00     0.157 HD
HETATM   14  O5  UNL     1       1.612 -29.699   4.411  1.00  0.00    -0.309 OA
HETATM   15  C23 UNL     1      -0.597 -30.657   4.553  1.00  0.00     0.070 C 
HETATM   16  C24 UNL     1       0.406 -29.960   2.461  1.00  0.00     0.070 C 
ENDBRANCH   4   6
ENDBRANCH   3   4
ENDBRANCH   2   3
BRANCH   2  17
HETATM   17  O1  UNL     1       3.722 -27.708   8.111  1.00  0.00    -0.388 OA
ATOM     18  H1  UNL     1       4.018 -28.487   7.656  1.00  0.00     0.210 HD
ENDBRANCH   2  17
ENDBRANCH   1   2
BRANCH   1  19
HETATM   19  C9  UNL     1       3.496 -26.685   4.638  1.00  0.00     0.043 C 
BRANCH  19  20
HETATM   20  C10 UNL     1       4.331 -27.449   3.665  1.00  0.00     0.116 C 
HETATM   21 CL1  UNL     1       5.876 -26.607   3.339  1.00  0.00    -0.130 Cl
ENDBRANCH  19  20
ENDBRANCH   1  19
BRANCH   1  22
HETATM   22  N2  UNL     1       4.661 -25.489   6.380  1.00  0.00    -0.352 N 
HETATM   23  C11 UNL     1       5.962 -25.471   6.935  1.00  0.00     0.240 C 
HETATM   24  O2  UNL     1       6.528 -26.584   7.084  1.00  0.00    -0.271 OA
ATOM     25  H2  UNL     1       4.154 -24.618   6.223  1.00  0.00     0.163 HD
BRANCH  23  26
HETATM   26  C12 UNL     1       6.584 -24.180   7.306  1.00  0.00     0.173 C 
BRANCH  26  27
HETATM   27  C13 UNL     1       7.329 -23.693   6.071  1.00  0.00     0.039 C 
BRANCH  27  28
HETATM   28  C14 UNL     1       8.676 -24.264   5.864  1.00  0.00    -0.012 C 
HETATM   29  C15 UNL     1       8.882 -24.925   4.525  1.00  0.00     0.005 C 
HETATM   30  C16 UNL     1      10.216 -25.640   4.606  1.00  0.00     0.000 C 
HETATM   31  C17 UNL     1      11.321 -24.686   4.906  1.00  0.00     0.000 C 
HETATM   32  C18 UNL     1      11.042 -23.716   6.015  1.00  0.00     0.000 C 
HETATM   33  C19 UNL     1       9.673 -23.101   5.909  1.00  0.00     0.005 C 
ENDBRANCH  27  28
ENDBRANCH  26  27
BRANCH  26  34
HETATM   34  N3  UNL     1       5.728 -23.220   7.856  1.00  0.00    -0.380 N 
ATOM     35  H3  UNL     1       5.308 -23.435   8.761  1.00  0.00     0.160 HD
BRANCH  34  36
HETATM   36  C20 UNL     1       5.402 -22.019   7.287  1.00  0.00     0.169 C 
BRANCH  36  37
HETATM   37  C21 UNL     1       3.910 -21.954   7.101  1.00  0.00     0.214 C 
HETATM   38  O3  UNL     1       3.216 -23.000   7.101  1.00  0.00    -0.644 OA
HETATM   39  O4  UNL     1       3.228 -20.764   6.926  1.00  0.00    -0.644 OA
ENDBRANCH  36  37
ENDBRANCH  34  36
ENDBRANCH  26  34
ENDBRANCH  23  26
ENDBRANCH   1  22
TORSDOF 14
ENDMDL
MODEL 3
REMARK VINA RESULT: -7.706507148      1.188      1.971
REMARK  14 active torsions:
REMARK  status: ('A' for Active; 'I' for Inactive)
REMARK    1  A    between atoms: C5_5  and  N1_6 
REMARK    2  A    between atoms: N1_6  and  C6_8 
REMARK    3  A    between atoms: C6_8  and  C7_9 
REMARK    4  A    between atoms: C7_9  and  O1_10 
REMARK    5  A    between atoms: C7_9  and  C8_12 
REMARK    6  A    between atoms: C8_12  and  C9_13 
REMARK    7  A    between atoms: C8_12  and  N2_16 
REMARK    8  A    between atoms: C9_13  and  C10_14 
REMARK       I    between atoms: N2_16  and  C11_18 
REMARK    9  A    between atoms: C11_18  and  C12_20 
REMARK   10  A    between atoms: C12_20  and  C13_21 
REMARK   11  A    between atoms: C12_20  and  N3_28 
REMARK   12  A    between atoms: C13_21  and  C14_22 
REMARK   13  A    between atoms: N3_28  and  C20_30 
REMARK   14  A    between atoms: C20_30  and  C21_31 
ROOT
HETATM    1  C8  UNL     1       4.295 -26.825   5.453  1.00  0.00     0.119 C 
ENDROOT
BRANCH   1   2
HETATM    2  C7  UNL     1       2.821 -26.775   5.837  1.00  0.00     0.179 C 
BRANCH   2   3
HETATM    3  C6  UNL     1       2.534 -27.543   7.077  1.00  0.00     0.096 C 
BRANCH   3   4
HETATM    4  N1  UNL     1       2.023 -28.828   7.089  1.00  0.00    -0.351 N 
ATOM      5  H1  UNL     1       1.882 -29.284   7.990  1.00  0.00     0.166 HD
BRANCH   4   6
HETATM    6  C5  UNL     1       1.686 -29.543   5.910  1.00  0.00     0.122 C 
HETATM    7  C4  UNL     1       2.409 -30.786   5.584  1.00  0.00     0.114 C 
HETATM    8  C2  UNL     1       1.656 -31.721   4.667  1.00  0.00     0.028 C 
HETATM    9  C1  UNL     1       1.875 -31.415   3.211  1.00  0.00     0.038 C 
HETATM   10  C3  UNL     1       2.220 -33.120   4.913  1.00  0.00     0.038 C 
HETATM   11  N4  UNL     1       0.269 -31.799   4.919  1.00  0.00    -0.383 N 
HETATM   12  C22 UNL     1      -0.334 -30.721   5.606  1.00  0.00     0.131 C 
ATOM     13  H4  UNL     1      -0.277 -32.605   4.616  1.00  0.00     0.157 HD
HETATM   14  O5  UNL     1       0.311 -29.547   5.683  1.00  0.00    -0.309 OA
HETATM   15  C23 UNL     1      -0.837 -31.248   6.952  1.00  0.00     0.070 C 
HETATM   16  C24 UNL     1      -1.640 -30.426   4.819  1.00  0.00     0.070 C 
ENDBRANCH   4   6
ENDBRANCH   3   4
ENDBRANCH   2   3
BRANCH   2  17
HETATM   17  O1  UNL     1       2.706 -25.396   6.296  1.00  0.00    -0.388 OA
ATOM     18  H1  UNL     1       3.428 -24.974   5.845  1.00  0.00     0.210 HD
ENDBRANCH   2  17
ENDBRANCH   1   2
BRANCH   1  19
HETATM   19  C9  UNL     1       4.502 -26.909   3.967  1.00  0.00     0.043 C 
BRANCH  19  20
HETATM   20  C10 UNL     1       3.641 -27.964   3.357  1.00  0.00     0.116 C 
HETATM   21 CL1  UNL     1       4.629 -29.209   2.535  1.00  0.00    -0.130 Cl
ENDBRANCH  19  20
ENDBRANCH   1  19
BRANCH   1  22
HETATM   22  N2  UNL     1       4.869 -25.547   5.926  1.00  0.00    -0.352 N 
HETATM   23  C11 UNL     1       6.013 -25.574   6.757  1.00  0.00     0.240 C 
HETATM   24  O2  UNL     1       6.485 -26.708   7.032  1.00  0.00    -0.271 OA
ATOM     25  H2  UNL     1       4.446 -24.659   5.657  1.00  0.00     0.163 HD
BRANCH  23  26
HETATM   26  C12 UNL     1       6.590 -24.305   7.255  1.00  0.00     0.173 C 
BRANCH  26  27
HETATM   27  C13 UNL     1       7.375 -23.708   6.095  1.00  0.00     0.039 C 
BRANCH  27  28
HETATM   28  C14 UNL     1       8.728 -24.263   5.879  1.00  0.00    -0.012 C 
HETATM   29  C15 UNL     1       8.927 -24.942   4.549  1.00  0.00     0.005 C 
HETATM   30  C16 UNL     1      10.273 -25.635   4.623  1.00  0.00     0.000 C 
HETATM   31  C17 UNL     1      11.366 -24.660   4.894  1.00  0.00     0.000 C 
HETATM   32  C18 UNL     1      11.087 -23.677   5.992  1.00  0.00     0.000 C 
HETATM   33  C19 UNL     1       9.708 -23.084   5.894  1.00  0.00     0.005 C 
ENDBRANCH  27  28
ENDBRANCH  26  27
BRANCH  26  34
HETATM   34  N3  UNL     1       5.690 -23.408   7.839  1.00  0.00    -0.380 N 
ATOM     35  H3  UNL     1       5.127 -23.754   8.616  1.00  0.00     0.160 HD
BRANCH  34  36
HETATM   36  C20 UNL     1       5.496 -22.107   7.460  1.00  0.00     0.169 C 
BRANCH  36  37
HETATM   37  C21 UNL     1       4.042 -21.904   7.131  1.00  0.00     0.214 C 
HETATM   38  O3  UNL     1       3.247 -22.875   7.109  1.00  0.00    -0.644 OA
HETATM   39  O4  UNL     1       3.506 -20.662   6.844  1.00  0.00    -0.644 OA
ENDBRANCH  36  37
ENDBRANCH  34  36
ENDBRANCH  26  34
ENDBRANCH  23  26
ENDBRANCH   1  22
TORSDOF 14
ENDMDL
MODEL 4
REMARK VINA RESULT: -7.676207632      1.056      1.381
REMARK  14 active torsions:
REMARK  status: ('A' for Active; 'I' for Inactive)
REMARK    1  A    between atoms: C5_5  and  N1_6 
REMARK    2  A    between atoms: N1_6  and  C6_8 
REMARK    3  A    between atoms: C6_8  and  C7_9 
REMARK    4  A    between atoms: C7_9  and  O1_10 
REMARK    5  A    between atoms: C7_9  and  C8_12 
REMARK    6  A    between atoms: C8_12  and  C9_13 
REMARK    7  A    between atoms: C8_12  and  N2_16 
REMARK    8  A    between atoms: C9_13  and  C10_14 
REMARK       I    between atoms: N2_16  and  C11_18 
REMARK    9  A    between atoms: C11_18  and  C12_20 
REMARK   10  A    between atoms: C12_20  and  C13_21 
REMARK   11  A    between atoms: C12_20  and  N3_28 
REMARK   12  A    between atoms: C13_21  and  C14_22 
REMARK   13  A    between atoms: N3_28  and  C20_30 
REMARK   14  A    between atoms: C20_30  and  C21_31 
ROOT
HETATM    1  C8  UNL     1       4.054 -26.791   5.918  1.00  0.00     0.119 C 
ENDROOT
BRANCH   1   2
HETATM    2  C7  UNL     1       2.883 -26.957   6.880  1.00  0.00     0.179 C 
BRANCH   2   3
HETATM    3  C6  UNL     1       1.690 -27.552   6.221  1.00  0.00     0.096 C 
BRANCH   3   4
HETATM    4  N1  UNL     1       0.687 -28.219   6.898  1.00  0.00    -0.351 N 
ATOM      5  H1  UNL     1       0.101 -27.687   7.541  1.00  0.00     0.166 HD
BRANCH   4   6
HETATM    6  C5  UNL     1       0.431 -29.607   6.743  1.00  0.00     0.122 C 
HETATM    7  C4  UNL     1      -0.805 -30.046   6.071  1.00  0.00     0.114 C 
HETATM    8  C2  UNL     1      -0.736 -31.438   5.488  1.00  0.00     0.028 C 
HETATM    9  C1  UNL     1      -1.101 -32.508   6.481  1.00  0.00     0.038 C 
HETATM   10  C3  UNL     1      -1.780 -31.497   4.374  1.00  0.00     0.038 C 
HETATM   11  N4  UNL     1       0.502 -31.764   4.892  1.00  0.00    -0.383 N 
HETATM   12  C22 UNL     1       1.638 -31.025   5.297  1.00  0.00     0.131 C 
ATOM     13  H4  UNL     1       0.574 -32.505   4.196  1.00  0.00     0.157 HD
HETATM   14  O5  UNL     1       1.590 -30.316   6.434  1.00  0.00    -0.309 OA
HETATM   15  C23 UNL     1       2.134 -30.232   4.085  1.00  0.00     0.070 C 
HETATM   16  C24 UNL     1       2.748 -32.088   5.516  1.00  0.00     0.070 C 
ENDBRANCH   4   6
ENDBRANCH   3   4
ENDBRANCH   2   3
BRANCH   2  17
HETATM   17  O1  UNL     1       3.362 -28.061   7.703  1.00  0.00    -0.388 OA
ATOM     18  H1  UNL     1       4.227 -27.761   7.957  1.00  0.00     0.210 HD
ENDBRANCH   2  17
ENDBRANCH   1   2
BRANCH   1  19
HETATM   19  C9  UNL     1       3.613 -26.671   4.487  1.00  0.00     0.043 C 
BRANCH  19  20
HETATM   20  C10 UNL     1       4.530 -27.413   3.572  1.00  0.00     0.116 C 
HETATM   21 CL1  UNL     1       6.029 -26.484   3.267  1.00  0.00    -0.130 Cl
ENDBRANCH  19  20
ENDBRANCH   1  19
BRANCH   1  22
HETATM   22  N2  UNL     1       4.707 -25.524   6.307  1.00  0.00    -0.352 N 
HETATM   23  C11 UNL     1       6.017 -25.560   6.837  1.00  0.00     0.240 C 
HETATM   24  O2  UNL     1       6.558 -26.692   6.932  1.00  0.00    -0.271 OA
ATOM     25  H2  UNL     1       4.219 -24.635   6.194  1.00  0.00     0.163 HD
BRANCH  23  26
HETATM   26  C12 UNL     1       6.679 -24.301   7.248  1.00  0.00     0.173 C 
BRANCH  26  27
HETATM   27  C13 UNL     1       7.439 -23.799   6.028  1.00  0.00     0.039 C 
BRANCH  27  28
HETATM   28  C14 UNL     1       8.804 -24.338   5.852  1.00  0.00    -0.012 C 
HETATM   29  C15 UNL     1       9.053 -25.004   4.524  1.00  0.00     0.005 C 
HETATM   30  C16 UNL     1      10.403 -25.684   4.637  1.00  0.00     0.000 C 
HETATM   31  C17 UNL     1      11.477 -24.701   4.951  1.00  0.00     0.000 C 
HETATM   32  C18 UNL     1      11.152 -23.730   6.047  1.00  0.00     0.000 C 
HETATM   33  C19 UNL     1       9.770 -23.150   5.909  1.00  0.00     0.005 C 
ENDBRANCH  27  28
ENDBRANCH  26  27
BRANCH  26  34
HETATM   34  N3  UNL     1       5.852 -23.333   7.827  1.00  0.00    -0.380 N 
ATOM     35  H3  UNL     1       5.425 -23.563   8.725  1.00  0.00     0.160 HD
BRANCH  34  36
HETATM   36  C20 UNL     1       5.564 -22.104   7.297  1.00  0.00     0.169 C 
BRANCH  36  37
HETATM   37  C21 UNL     1       4.077 -21.992   7.101  1.00  0.00     0.214 C 
HETATM   38  O3  UNL     1       3.531 -20.871   6.954  1.00  0.00    -0.644 OA
HETATM   39  O4  UNL     1       3.241 -23.093   7.069  1.00  0.00    -0.644 OA
ENDBRANCH  36  37
ENDBRANCH  34  36
ENDBRANCH  26  34
ENDBRANCH  23  26
ENDBRANCH   1  22
TORSDOF 14
ENDMDL
MODEL 5
REMARK VINA RESULT: -7.642228289      1.411      2.030
REMARK  14 active torsions:
REMARK  status: ('A' for Active; 'I' for Inactive)
REMARK    1  A    between atoms: C5_5  and  N1_6 
REMARK    2  A    between atoms: N1_6  and  C6_8 
REMARK    3  A    between atoms: C6_8  and  C7_9 
REMARK    4  A    between atoms: C7_9  and  O1_10 
REMARK    5  A    between atoms: C7_9  and  C8_12 
REMARK    6  A    between atoms: C8_12  and  C9_13 
REMARK    7  A    between atoms: C8_12  and  N2_16 
REMARK    8  A    between atoms: C9_13  and  C10_14 
REMARK       I    between atoms: N2_16  and  C11_18 
REMARK    9  A    between atoms: C11_18  and  C12_20 
REMARK   10  A    between atoms: C12_20  and  C13_21 
REMARK   11  A    between atoms: C12_20  and  N3_28 
REMARK   12  A    between atoms: C13_21  and  C14_22 
REMARK   13  A    between atoms: N3_28  and  C20_30 
REMARK   14  A    between atoms: C20_30  and  C21_31 
ROOT
HETATM    1  C8  UNL     1       4.683 -26.801   4.952  1.00  0.00     0.119 C 
ENDROOT
BRANCH   1   2
HETATM    2  C7  UNL     1       3.298 -26.358   4.496  1.00  0.00     0.179 C 
BRANCH   2   3
HETATM    3  C6  UNL     1       2.297 -26.412   5.594  1.00  0.00     0.096 C 
BRANCH   3   4
HETATM    4  N1  UNL     1       2.410 -27.231   6.701  1.00  0.00    -0.351 N 
ATOM      5  H1  UNL     1       3.051 -26.955   7.444  1.00  0.00     0.166 HD
BRANCH   4   6
HETATM    6  C5  UNL     1       1.677 -28.438   6.857  1.00  0.00     0.122 C 
HETATM    7  C4  UNL     1       0.214 -28.426   6.677  1.00  0.00     0.114 C 
HETATM    8  C2  UNL     1      -0.381 -29.771   6.331  1.00  0.00     0.028 C 
HETATM    9  C1  UNL     1      -0.710 -30.595   7.546  1.00  0.00     0.038 C 
HETATM   10  C3  UNL     1      -1.703 -29.492   5.618  1.00  0.00     0.038 C 
HETATM   11  N4  UNL     1       0.396 -30.546   5.444  1.00  0.00    -0.383 N 
HETATM   12  C22 UNL     1       1.777 -30.253   5.355  1.00  0.00     0.131 C 
ATOM     13  H4  UNL     1      -0.023 -31.290   4.887  1.00  0.00     0.157 HD
HETATM   14  O5  UNL     1       2.359 -29.530   6.323  1.00  0.00    -0.309 OA
HETATM   15  C23 UNL     1       2.055 -29.742   3.940  1.00  0.00     0.070 C 
HETATM   16  C24 UNL     1       2.482 -31.636   5.389  1.00  0.00     0.070 C 
ENDBRANCH   4   6
ENDBRANCH   3   4
ENDBRANCH   2   3
BRANCH   2  17
HETATM   17  O1  UNL     1       3.509 -24.923   4.343  1.00  0.00    -0.388 OA
ATOM     18  H1  UNL     1       3.321 -24.790   3.422  1.00  0.00     0.210 HD
ENDBRANCH   2  17
ENDBRANCH   1   2
BRANCH   1  19
HETATM   19  C9  UNL     1       5.515 -27.347   3.827  1.00  0.00     0.043 C 
BRANCH  19  20
HETATM   20  C10 UNL     1       4.666 -28.022   2.801  1.00  0.00     0.116 C 
HETATM   21 CL1  UNL     1       5.361 -29.601   2.324  1.00  0.00    -0.130 Cl
ENDBRANCH  19  20
ENDBRANCH   1  19
BRANCH   1  22
HETATM   22  N2  UNL     1       5.341 -25.579   5.461  1.00  0.00    -0.352 N 
HETATM   23  C11 UNL     1       6.074 -25.644   6.669  1.00  0.00     0.240 C 
HETATM   24  O2  UNL     1       6.130 -26.766   7.235  1.00  0.00    -0.271 OA
ATOM     25  H2  UNL     1       5.268 -24.701   4.947  1.00  0.00     0.163 HD
BRANCH  23  26
HETATM   26  C12 UNL     1       6.724 -24.425   7.200  1.00  0.00     0.173 C 
BRANCH  26  27
HETATM   27  C13 UNL     1       7.519 -23.827   6.048  1.00  0.00     0.039 C 
BRANCH  27  28
HETATM   28  C14 UNL     1       8.870 -24.386   5.837  1.00  0.00    -0.012 C 
HETATM   29  C15 UNL     1       9.084 -25.030   4.492  1.00  0.00     0.005 C 
HETATM   30  C16 UNL     1      10.423 -25.737   4.568  1.00  0.00     0.000 C 
HETATM   31  C17 UNL     1      11.520 -24.779   4.882  1.00  0.00     0.000 C 
HETATM   32  C18 UNL     1      11.232 -23.824   6.002  1.00  0.00     0.000 C 
HETATM   33  C19 UNL     1       9.859 -23.217   5.899  1.00  0.00     0.005 C 
ENDBRANCH  27  28
ENDBRANCH  26  27
BRANCH  26  34
HETATM   34  N3  UNL     1       5.881 -23.506   7.834  1.00  0.00    -0.380 N 
ATOM     35  H3  UNL     1       5.452 -23.797   8.712  1.00  0.00     0.160 HD
BRANCH  34  36
HETATM   36  C20 UNL     1       5.581 -22.250   7.380  1.00  0.00     0.169 C 
BRANCH  36  37
HETATM   37  C21 UNL     1       4.122 -22.197   7.016  1.00  0.00     0.214 C 
HETATM   38  O3  UNL     1       3.538 -21.098   6.860  1.00  0.00    -0.644 OA
HETATM   39  O4  UNL     1       3.354 -23.333   6.833  1.00  0.00    -0.644 OA
ENDBRANCH  36  37
ENDBRANCH  34  36
ENDBRANCH  26  34
ENDBRANCH  23  26
ENDBRANCH   1  22
TORSDOF 14
ENDMDL
