MODEL 1
REMARK VINA RESULT: -5.287624878      0.000      0.000
REMARK  2 active torsions:
REMARK  status: ('A' for Active; 'I' for Inactive)
REMARK    1  A    between atoms: C2_2  and  N1_3 
REMARK    2  A    between atoms: N2_9  and  O2_11 
ROOT
HETATM    1  N1  UNL     1      23.573  20.739   7.517  1.00  0.00    -0.339 N 
HETATM    2  C3  UNL     1      24.350  21.940   7.696  1.00  0.00     0.296 C 
HETATM    3  O1  UNL     1      25.587  21.703   8.270  1.00  0.00    -0.362 OA
HETATM    4  C4  UNL     1      26.458  21.010   7.476  1.00  0.00     0.252 C 
HETATM    5  S1  UNL     1      25.894  19.284   7.449  1.00  0.00    -0.066 SA
HETATM    6  C5  UNL     1      24.103  19.431   7.659  1.00  0.00     0.165 C 
HETATM    7  N2  UNL     1      23.367  18.402   7.922  1.00  0.00    -0.247 N 
ATOM      8  H2  UNL     1      22.357  18.484   8.040  1.00  0.00     0.196 HD
ENDROOT
BRANCH   1   9
HETATM    9  C2  UNL     1      22.175  20.832   7.176  1.00  0.00     0.122 C 
HETATM   10  C1  UNL     1      21.716  22.217   6.820  1.00  0.00     0.026 C 
ENDBRANCH   1   9
BRANCH   7  11
HETATM   11  O2  UNL     1      24.007  17.193   8.034  1.00  0.00    -0.288 OA
ATOM     12  H2  UNL     1      23.670  16.587   8.684  1.00  0.00     0.244 HD
ENDBRANCH   7  11
TORSDOF 2
ENDMDL
MODEL 2
REMARK VINA RESULT: -5.249613452      2.129      3.596
REMARK  2 active torsions:
REMARK  status: ('A' for Active; 'I' for Inactive)
REMARK    1  A    between atoms: C2_2  and  N1_3 
REMARK    2  A    between atoms: N2_9  and  O2_11 
ROOT
HETATM    1  N1  UNL     1      26.588  19.625   8.297  1.00  0.00    -0.339 N 
HETATM    2  C3  UNL     1      27.072  20.898   7.824  1.00  0.00     0.296 C 
HETATM    3  O1  UNL     1      26.276  21.444   6.831  1.00  0.00    -0.362 OA
HETATM    4  C4  UNL     1      25.036  21.838   7.251  1.00  0.00     0.252 C 
HETATM    5  S1  UNL     1      24.059  20.330   7.511  1.00  0.00    -0.066 SA
HETATM    6  C5  UNL     1      25.305  19.107   7.985  1.00  0.00     0.165 C 
HETATM    7  N2  UNL     1      25.030  17.845   8.032  1.00  0.00    -0.247 N 
ATOM      8  H2  UNL     1      25.732  17.155   8.300  1.00  0.00     0.196 HD
ENDROOT
BRANCH   1   9
HETATM    9  C2  UNL     1      27.426  18.805   9.137  1.00  0.00     0.122 C 
HETATM   10  C1  UNL     1      28.082  19.545  10.267  1.00  0.00     0.026 C 
ENDBRANCH   1   9
BRANCH   7  11
HETATM   11  O2  UNL     1      23.749  17.477   7.704  1.00  0.00    -0.288 OA
ATOM     12  H2  UNL     1      23.197  17.166   8.413  1.00  0.00     0.244 HD
ENDBRANCH   7  11
TORSDOF 2
ENDMDL
MODEL 3
REMARK VINA RESULT: -5.109801414      6.166      7.136
REMARK  2 active torsions:
REMARK  status: ('A' for Active; 'I' for Inactive)
REMARK    1  A    between atoms: C2_2  and  N1_3 
REMARK    2  A    between atoms: N2_9  and  O2_11 
ROOT
HETATM    1  N1  UNL     1      28.762  19.240  11.580  1.00  0.00    -0.339 N 
HETATM    2  C3  UNL     1      28.314  20.306  10.718  1.00  0.00     0.296 C 
HETATM    3  O1  UNL     1      27.929  21.439  11.414  1.00  0.00    -0.362 OA
HETATM    4  C4  UNL     1      28.952  22.095  12.039  1.00  0.00     0.252 C 
HETATM    5  S1  UNL     1      29.419  21.099  13.484  1.00  0.00    -0.066 SA
HETATM    6  C5  UNL     1      29.036  19.410  12.962  1.00  0.00     0.165 C 
HETATM    7  N2  UNL     1      29.016  18.430  13.804  1.00  0.00    -0.247 N 
ATOM      8  H2  UNL     1      28.801  17.477  13.510  1.00  0.00     0.196 HD
ENDROOT
BRANCH   1   9
HETATM    9  C2  UNL     1      28.952  17.915  11.045  1.00  0.00     0.122 C 
HETATM   10  C1  UNL     1      27.854  17.454  10.130  1.00  0.00     0.026 C 
ENDBRANCH   1   9
BRANCH   7  11
HETATM   11  O2  UNL     1      29.299  18.731  15.113  1.00  0.00    -0.288 OA
ATOM     12  H2  UNL     1      28.561  18.939  15.675  1.00  0.00     0.244 HD
ENDBRANCH   7  11
TORSDOF 2
ENDMDL
MODEL 4
REMARK VINA RESULT: -5.010318253      3.357      5.053
REMARK  2 active torsions:
REMARK  status: ('A' for Active; 'I' for Inactive)
REMARK    1  A    between atoms: C2_2  and  N1_3 
REMARK    2  A    between atoms: N2_9  and  O2_11 
ROOT
HETATM    1  N1  UNL     1      23.529  22.172   7.294  1.00  0.00    -0.339 N 
HETATM    2  C3  UNL     1      22.487  21.182   7.177  1.00  0.00     0.296 C 
HETATM    3  O1  UNL     1      21.216  21.722   7.274  1.00  0.00    -0.362 OA
HETATM    4  C4  UNL     1      20.859  22.524   6.226  1.00  0.00     0.252 C 
HETATM    5  S1  UNL     1      21.773  24.081   6.412  1.00  0.00    -0.066 SA
HETATM    6  C5  UNL     1      23.295  23.570   7.245  1.00  0.00     0.165 C 
HETATM    7  N2  UNL     1      24.107  24.434   7.759  1.00  0.00    -0.247 N 
ATOM      8  H2  UNL     1      24.966  24.147   8.228  1.00  0.00     0.196 HD
ENDROOT
BRANCH   1   9
HETATM    9  C2  UNL     1      24.898  21.756   7.472  1.00  0.00     0.122 C 
HETATM   10  C1  UNL     1      25.091  20.267   7.520  1.00  0.00     0.026 C 
ENDBRANCH   1   9
BRANCH   7  11
HETATM   11  O2  UNL     1      23.760  25.757   7.643  1.00  0.00    -0.288 OA
ATOM     12  H2  UNL     1      24.246  26.275   7.011  1.00  0.00     0.244 HD
ENDBRANCH   7  11
TORSDOF 2
ENDMDL
MODEL 5
REMARK VINA RESULT: -4.963515800      6.888      7.986
REMARK  2 active torsions:
REMARK  status: ('A' for Active; 'I' for Inactive)
REMARK    1  A    between atoms: C2_2  and  N1_3 
REMARK    2  A    between atoms: N2_9  and  O2_11 
ROOT
HETATM    1  N1  UNL     1      28.836  19.998  12.346  1.00  0.00    -0.339 N 
HETATM    2  C3  UNL     1      29.018  18.643  11.889  1.00  0.00     0.296 C 
HETATM    3  O1  UNL     1      29.621  17.830  12.833  1.00  0.00    -0.362 OA
HETATM    4  C4  UNL     1      28.854  17.575  13.936  1.00  0.00     0.252 C 
HETATM    5  S1  UNL     1      28.835  19.092  14.933  1.00  0.00    -0.066 SA
HETATM    6  C5  UNL     1      29.004  20.401  13.696  1.00  0.00     0.165 C 
HETATM    7  N2  UNL     1      29.263  21.622  14.034  1.00  0.00    -0.247 N 
ATOM      8  H2  UNL     1      29.358  22.361  13.338  1.00  0.00     0.196 HD
ENDROOT
BRANCH   1   9
HETATM    9  C2  UNL     1      28.463  21.029  11.409  1.00  0.00     0.122 C 
HETATM   10  C1  UNL     1      28.049  20.517  10.059  1.00  0.00     0.026 C 
ENDBRANCH   1   9
BRANCH   7  11
HETATM   11  O2  UNL     1      29.403  21.877  15.376  1.00  0.00    -0.288 OA
ATOM     12  H2  UNL     1      30.174  21.519  15.803  1.00  0.00     0.244 HD
ENDBRANCH   7  11
TORSDOF 2
ENDMDL
