MODEL 1
REMARK VINA RESULT: -5.833726370      0.000      0.000
REMARK  2 active torsions:
REMARK  status: ('A' for Active; 'I' for Inactive)
REMARK    1  A    between atoms: O1_2  and  N1_3 
REMARK    2  A    between atoms: C5_8  and  O2_9 
ROOT
HETATM    1  N1  UNL     1      27.771  19.451  10.187  1.00  0.00    -0.249 N 
ATOM      2  H1  UNL     1      27.286  20.313   9.938  1.00  0.00     0.196 HD
HETATM    3  C2  UNL     1      28.420  19.375  11.295  1.00  0.00     0.141 C 
HETATM    4  C3  UNL     1      29.121  18.120  11.649  1.00  0.00     0.088 C 
HETATM    5  C4  UNL     1      29.056  17.783  13.100  1.00  0.00     0.045 C 
HETATM    6  C5  UNL     1      28.690  18.933  13.985  1.00  0.00     0.186 C 
HETATM    7  C6  UNL     1      29.278  20.188  13.371  1.00  0.00     0.233 C 
HETATM    8  C7  UNL     1      29.171  21.310  14.357  1.00  0.00     0.088 C 
HETATM    9  F1  UNL     1      30.585  19.966  13.010  1.00  0.00    -0.209 F 
HETATM   10  O3  UNL     1      28.493  20.440  12.194  1.00  0.00    -0.293 OA
ENDROOT
BRANCH   1  11
HETATM   11  O1  UNL     1      27.732  18.390   9.353  1.00  0.00    -0.284 OA
HETATM   12  C1  UNL     1      26.749  18.173   8.364  1.00  0.00     0.237 C 
ENDBRANCH   1  11
BRANCH   6  13
HETATM   13  O2  UNL     1      29.194  18.804  15.274  1.00  0.00    -0.390 OA
ATOM     14  H2  UNL     1      29.983  18.276  15.310  1.00  0.00     0.210 HD
ENDBRANCH   6  13
TORSDOF 2
ENDMDL
MODEL 2
REMARK VINA RESULT: -5.773890218      2.323      4.850
REMARK  2 active torsions:
REMARK  status: ('A' for Active; 'I' for Inactive)
REMARK    1  A    between atoms: O1_2  and  N1_3 
REMARK    2  A    between atoms: C5_8  and  O2_9 
ROOT
HETATM    1  N1  UNL     1      28.493  20.295  15.725  1.00  0.00    -0.249 N 
ATOM      2  H1  UNL     1      28.119  19.523  16.277  1.00  0.00     0.196 HD
HETATM    3  C2  UNL     1      28.804  20.111  14.491  1.00  0.00     0.141 C 
HETATM    4  C3  UNL     1      29.346  21.237  13.696  1.00  0.00     0.088 C 
HETATM    5  C4  UNL     1      28.869  21.261  12.283  1.00  0.00     0.045 C 
HETATM    6  C5  UNL     1      28.299  19.964  11.802  1.00  0.00     0.186 C 
HETATM    7  C6  UNL     1      29.066  18.847  12.481  1.00  0.00     0.233 C 
HETATM    8  C7  UNL     1      28.715  17.546  11.825  1.00  0.00     0.088 C 
HETATM    9  F1  UNL     1      30.416  19.092  12.407  1.00  0.00    -0.209 F 
HETATM   10  O3  UNL     1      28.649  18.878  13.855  1.00  0.00    -0.293 OA
ENDROOT
BRANCH   1  11
HETATM   11  O1  UNL     1      28.663  21.509  16.291  1.00  0.00    -0.284 OA
HETATM   12  C1  UNL     1      27.710  22.168  17.095  1.00  0.00     0.237 C 
ENDBRANCH   1  11
BRANCH   6  13
HETATM   13  O2  UNL     1      28.418  19.799  10.427  1.00  0.00    -0.390 OA
ATOM     14  H2  UNL     1      27.582  19.843   9.976  1.00  0.00     0.210 HD
ENDBRANCH   6  13
TORSDOF 2
ENDMDL
MODEL 3
REMARK VINA RESULT: -5.547601770      8.345     10.299
REMARK  2 active torsions:
REMARK  status: ('A' for Active; 'I' for Inactive)
REMARK    1  A    between atoms: O1_2  and  N1_3 
REMARK    2  A    between atoms: C5_8  and  O2_9 
ROOT
HETATM    1  N1  UNL     1      22.716  21.444   7.612  1.00  0.00    -0.249 N 
ATOM      2  H1  UNL     1      23.563  21.511   8.177  1.00  0.00     0.196 HD
HETATM    3  C2  UNL     1      22.215  22.501   7.077  1.00  0.00     0.141 C 
HETATM    4  C3  UNL     1      20.986  22.394   6.257  1.00  0.00     0.088 C 
HETATM    5  C4  UNL     1      20.976  23.292   5.067  1.00  0.00     0.045 C 
HETATM    6  C5  UNL     1      21.965  24.415   5.133  1.00  0.00     0.186 C 
HETATM    7  C6  UNL     1      22.084  24.834   6.584  1.00  0.00     0.233 C 
HETATM    8  C7  UNL     1      22.846  26.122   6.658  1.00  0.00     0.088 C 
HETATM    9  F1  UNL     1      20.834  24.964   7.140  1.00  0.00    -0.209 F 
HETATM   10  O3  UNL     1      22.788  23.764   7.234  1.00  0.00    -0.293 OA
ENDROOT
BRANCH   1  11
HETATM   11  O1  UNL     1      22.121  20.246   7.428  1.00  0.00    -0.284 OA
HETATM   12  C1  UNL     1      22.555  19.031   7.997  1.00  0.00     0.237 C 
ENDBRANCH   1  11
BRANCH   6  13
HETATM   13  O2  UNL     1      21.572  25.523   4.391  1.00  0.00    -0.390 OA
ATOM     14  H2  UNL     1      20.730  25.404   3.967  1.00  0.00     0.210 HD
ENDBRANCH   6  13
TORSDOF 2
ENDMDL
MODEL 4
REMARK VINA RESULT: -5.509167270      3.253      4.339
REMARK  2 active torsions:
REMARK  status: ('A' for Active; 'I' for Inactive)
REMARK    1  A    between atoms: O1_2  and  N1_3 
REMARK    2  A    between atoms: C5_8  and  O2_9 
ROOT
HETATM    1  N1  UNL     1      29.174  20.152  13.850  1.00  0.00    -0.249 N 
ATOM      2  H1  UNL     1      29.681  20.769  13.215  1.00  0.00     0.196 HD
HETATM    3  C2  UNL     1      28.886  20.549  15.039  1.00  0.00     0.141 C 
HETATM    4  C3  UNL     1      28.149  19.647  15.953  1.00  0.00     0.088 C 
HETATM    5  C4  UNL     1      27.155  20.347  16.818  1.00  0.00     0.045 C 
HETATM    6  C5  UNL     1      27.365  21.826  16.926  1.00  0.00     0.186 C 
HETATM    7  C6  UNL     1      28.858  22.080  16.872  1.00  0.00     0.233 C 
HETATM    8  C7  UNL     1      29.123  23.506  17.250  1.00  0.00     0.088 C 
HETATM    9  F1  UNL     1      29.514  21.213  17.711  1.00  0.00    -0.209 F 
HETATM   10  O3  UNL     1      29.241  21.813  15.513  1.00  0.00    -0.293 OA
ENDROOT
BRANCH   1  11
HETATM   11  O1  UNL     1      28.806  18.919  13.441  1.00  0.00    -0.284 OA
HETATM   12  C1  UNL     1      28.776  18.486  12.099  1.00  0.00     0.237 C 
ENDBRANCH   1  11
BRANCH   6  13
HETATM   13  O2  UNL     1      26.878  22.353  18.117  1.00  0.00    -0.390 OA
ATOM     14  H2  UNL     1      27.121  23.263  18.243  1.00  0.00     0.210 HD
ENDBRANCH   6  13
TORSDOF 2
ENDMDL
MODEL 5
REMARK VINA RESULT: -5.426623790      3.046      5.673
REMARK  2 active torsions:
REMARK  status: ('A' for Active; 'I' for Inactive)
REMARK    1  A    between atoms: O1_2  and  N1_3 
REMARK    2  A    between atoms: C5_8  and  O2_9 
ROOT
HETATM    1  N1  UNL     1      28.741  17.053  12.439  1.00  0.00    -0.249 N 
ATOM      2  H1  UNL     1      28.914  16.264  13.062  1.00  0.00     0.196 HD
HETATM    3  C2  UNL     1      28.537  16.850  11.186  1.00  0.00     0.141 C 
HETATM    4  C3  UNL     1      28.286  18.002  10.289  1.00  0.00     0.088 C 
HETATM    5  C4  UNL     1      27.274  17.730   9.228  1.00  0.00     0.045 C 
HETATM    6  C5  UNL     1      27.014  16.276   8.983  1.00  0.00     0.186 C 
HETATM    7  C6  UNL     1      28.317  15.535   9.204  1.00  0.00     0.233 C 
HETATM    8  C7  UNL     1      28.169  14.130   8.706  1.00  0.00     0.088 C 
HETATM    9  F1  UNL     1      29.343  16.184   8.562  1.00  0.00    -0.209 F 
HETATM   10  O3  UNL     1      28.541  15.573  10.623  1.00  0.00    -0.293 OA
ENDROOT
BRANCH   1  11
HETATM   11  O1  UNL     1      28.727  18.310  12.932  1.00  0.00    -0.284 OA
HETATM   12  C1  UNL     1      28.996  18.658  14.273  1.00  0.00     0.237 C 
ENDBRANCH   1  11
BRANCH   6  13
HETATM   13  O2  UNL     1      26.583  16.017   7.687  1.00  0.00    -0.390 OA
ATOM     14  H2  UNL     1      27.297  15.977   7.061  1.00  0.00     0.210 HD
ENDBRANCH   6  13
TORSDOF 2
ENDMDL
