MODEL 1
REMARK VINA RESULT: -6.481281475      0.000      0.000
REMARK  5 active torsions:
REMARK  status: ('A' for Active; 'I' for Inactive)
REMARK    1  A    between atoms: C2_2  and  C3_3 
REMARK    2  A    between atoms: C2_2  and  C4_6 
REMARK    3  A    between atoms: C4_6  and  N1_8 
REMARK    4  A    between atoms: N2_10  and  C5_12 
REMARK    5  A    between atoms: C6_14  and  N3_15 
ROOT
HETATM    1  N1  UNL     1      26.984  16.619  10.526  1.00  0.00    -0.316 N 
ATOM      2  H1  UNL     1      26.331  16.905  11.255  1.00  0.00     0.182 HD
HETATM    3  N2  UNL     1      26.972  15.420  10.141  1.00  0.00    -0.294 N 
ATOM      4  H2  UNL     1      26.306  14.782  10.576  1.00  0.00     0.187 HD
ENDROOT
BRANCH   3   5
HETATM    5  C5  UNL     1      27.846  14.899   9.119  1.00  0.00     0.133 A 
HETATM    6  S1  UNL     1      27.598  14.744   7.439  1.00  0.00    -0.032 SA
HETATM    7  C6  UNL     1      29.101  14.059   7.028  1.00  0.00     0.145 A 
HETATM    8  N4  UNL     1      29.734  13.977   8.205  1.00  0.00    -0.323 N 
HETATM    9  C7  UNL     1      29.112  14.398   9.270  1.00  0.00     0.153 A 
ATOM     10  H4  UNL     1      30.677  13.595   8.266  1.00  0.00     0.169 HD
HETATM   11  N5  UNL     1      29.707  14.356  10.602  1.00  0.00    -0.080 NA
BRANCH   7  12
HETATM   12  N3  UNL     1      29.566  13.685   5.851  1.00  0.00    -0.380 N 
ATOM     13  H32 UNL     1      30.111  14.251   5.200  1.00  0.00     0.158 HD
ATOM     14  H31 UNL     1      29.482  12.790   5.369  1.00  0.00     0.158 HD
ENDBRANCH   7  12
ENDBRANCH   3   5
BRANCH   1  15
HETATM   15  C4  UNL     1      27.880  17.600   9.978  1.00  0.00     0.204 C 
HETATM   16 BR1  UNL     1      26.998  18.450   8.465  1.00  0.00    -0.062 Br
BRANCH  15  17
HETATM   17  C2  UNL     1      28.274  18.617  10.988  1.00  0.00     0.009 C 
HETATM   18  C1  UNL     1      28.447  19.875  10.653  1.00  0.00     0.023 C 
BRANCH  17  19
HETATM   19  C3  UNL     1      28.468  18.170  12.388  1.00  0.00     0.384 C 
HETATM   20  F1  UNL     1      28.284  19.219  13.280  1.00  0.00    -0.209 F 
HETATM   21  F2  UNL     1      29.750  17.672  12.507  1.00  0.00    -0.209 F 
ENDBRANCH  17  19
ENDBRANCH  15  17
ENDBRANCH   1  15
TORSDOF 5
ENDMDL
MODEL 2
REMARK VINA RESULT: -6.272299269      0.950      1.347
REMARK  5 active torsions:
REMARK  status: ('A' for Active; 'I' for Inactive)
REMARK    1  A    between atoms: C2_2  and  C3_3 
REMARK    2  A    between atoms: C2_2  and  C4_6 
REMARK    3  A    between atoms: C4_6  and  N1_8 
REMARK    4  A    between atoms: N2_10  and  C5_12 
REMARK    5  A    between atoms: C6_14  and  N3_15 
ROOT
HETATM    1  N1  UNL     1      27.060  16.269  10.477  1.00  0.00    -0.316 N 
ATOM      2  H1  UNL     1      26.408  16.578  11.199  1.00  0.00     0.182 HD
HETATM    3  N2  UNL     1      26.976  15.087  10.054  1.00  0.00    -0.294 N 
ATOM      4  H2  UNL     1      26.257  14.483  10.452  1.00  0.00     0.187 HD
ENDROOT
BRANCH   3   5
HETATM    5  C5  UNL     1      27.840  14.539   9.038  1.00  0.00     0.133 A 
HETATM    6  S1  UNL     1      27.588  14.369   7.359  1.00  0.00    -0.032 SA
HETATM    7  C6  UNL     1      29.078  13.651   6.955  1.00  0.00     0.145 A 
HETATM    8  N4  UNL     1      29.709  13.571   8.132  1.00  0.00    -0.323 N 
HETATM    9  C7  UNL     1      29.097  14.015   9.193  1.00  0.00     0.153 A 
ATOM     10  H4  UNL     1      30.646  13.172   8.197  1.00  0.00     0.169 HD
HETATM   11  N5  UNL     1      29.692  13.977  10.525  1.00  0.00    -0.080 NA
BRANCH   7  12
HETATM   12  N3  UNL     1      29.535  13.256   5.782  1.00  0.00    -0.380 N 
ATOM     13  H32 UNL     1      29.018  12.750   5.062  1.00  0.00     0.158 HD
ATOM     14  H31 UNL     1      30.460  13.370   5.369  1.00  0.00     0.158 HD
ENDBRANCH   7  12
ENDBRANCH   3   5
BRANCH   1  15
HETATM   15  C4  UNL     1      28.034  17.203   9.983  1.00  0.00     0.204 C 
HETATM   16 BR1  UNL     1      27.145  18.408   8.739  1.00  0.00    -0.062 Br
BRANCH  15  17
HETATM   17  C2  UNL     1      28.674  17.972  11.082  1.00  0.00     0.009 C 
HETATM   18  C1  UNL     1      29.552  17.412  11.883  1.00  0.00     0.023 C 
BRANCH  17  19
HETATM   19  C3  UNL     1      28.292  19.395  11.250  1.00  0.00     0.384 C 
HETATM   20  F1  UNL     1      29.207  20.237  10.629  1.00  0.00    -0.209 F 
HETATM   21  F2  UNL     1      28.244  19.670  12.602  1.00  0.00    -0.209 F 
ENDBRANCH  17  19
ENDBRANCH  15  17
ENDBRANCH   1  15
TORSDOF 5
ENDMDL
MODEL 3
REMARK VINA RESULT: -6.239179993      1.858      2.458
REMARK  5 active torsions:
REMARK  status: ('A' for Active; 'I' for Inactive)
REMARK    1  A    between atoms: C2_2  and  C3_3 
REMARK    2  A    between atoms: C2_2  and  C4_6 
REMARK    3  A    between atoms: C4_6  and  N1_8 
REMARK    4  A    between atoms: N2_10  and  C5_12 
REMARK    5  A    between atoms: C6_14  and  N3_15 
ROOT
HETATM    1  N1  UNL     1      27.430  17.384  11.392  1.00  0.00    -0.316 N 
ATOM      2  H1  UNL     1      26.727  17.728  12.045  1.00  0.00     0.182 HD
HETATM    3  N2  UNL     1      27.154  16.384  10.678  1.00  0.00    -0.294 N 
ATOM      4  H2  UNL     1      26.233  15.958  10.784  1.00  0.00     0.187 HD
ENDROOT
BRANCH   3   5
HETATM    5  C5  UNL     1      28.066  15.809   9.721  1.00  0.00     0.133 A 
HETATM    6  S1  UNL     1      29.177  14.528   9.898  1.00  0.00    -0.032 SA
HETATM    7  C6  UNL     1      29.807  14.524   8.316  1.00  0.00     0.145 A 
HETATM    8  N4  UNL     1      29.134  15.513   7.715  1.00  0.00    -0.323 N 
HETATM    9  C7  UNL     1      28.250  16.171   8.412  1.00  0.00     0.153 A 
ATOM     10  H4  UNL     1      29.307  15.745   6.737  1.00  0.00     0.169 HD
HETATM   11  N5  UNL     1      27.460  17.265   7.857  1.00  0.00    -0.080 NA
BRANCH   7  12
HETATM   12  N3  UNL     1      30.732  13.754   7.776  1.00  0.00    -0.380 N 
ATOM     13  H32 UNL     1      31.420  13.184   8.270  1.00  0.00     0.158 HD
ATOM     14  H31 UNL     1      30.942  13.575   6.795  1.00  0.00     0.158 HD
ENDBRANCH   7  12
ENDBRANCH   3   5
BRANCH   1  15
HETATM   15  C4  UNL     1      28.696  18.060  11.322  1.00  0.00     0.204 C 
HETATM   16 BR1  UNL     1      28.403  19.819  10.539  1.00  0.00    -0.062 Br
BRANCH  15  17
HETATM   17  C2  UNL     1      29.333  18.188  12.659  1.00  0.00     0.009 C 
HETATM   18  C1  UNL     1      30.003  17.191  13.190  1.00  0.00     0.023 C 
BRANCH  17  19
HETATM   19  C3  UNL     1      29.190  19.476  13.378  1.00  0.00     0.384 C 
HETATM   20  F1  UNL     1      30.400  19.881  13.929  1.00  0.00    -0.209 F 
HETATM   21  F2  UNL     1      28.253  19.308  14.378  1.00  0.00    -0.209 F 
ENDBRANCH  17  19
ENDBRANCH  15  17
ENDBRANCH   1  15
TORSDOF 5
ENDMDL
MODEL 4
REMARK VINA RESULT: -6.038319172      1.410      1.729
REMARK  5 active torsions:
REMARK  status: ('A' for Active; 'I' for Inactive)
REMARK    1  A    between atoms: C2_2  and  C3_3 
REMARK    2  A    between atoms: C2_2  and  C4_6 
REMARK    3  A    between atoms: C4_6  and  N1_8 
REMARK    4  A    between atoms: N2_10  and  C5_12 
REMARK    5  A    between atoms: C6_14  and  N3_15 
ROOT
HETATM    1  N1  UNL     1      26.804  16.606  10.535  1.00  0.00    -0.316 N 
ATOM      2  H1  UNL     1      26.057  17.041  11.076  1.00  0.00     0.182 HD
HETATM    3  N2  UNL     1      26.796  15.355  10.392  1.00  0.00    -0.294 N 
ATOM      4  H2  UNL     1      26.040  14.826  10.826  1.00  0.00     0.187 HD
ENDROOT
BRANCH   3   5
HETATM    5  C5  UNL     1      27.797  14.629   9.650  1.00  0.00     0.133 A 
HETATM    6  S1  UNL     1      29.262  13.933  10.177  1.00  0.00    -0.032 SA
HETATM    7  C6  UNL     1      29.787  13.300   8.686  1.00  0.00     0.145 A 
HETATM    8  N4  UNL     1      28.810  13.652   7.842  1.00  0.00    -0.323 N 
HETATM    9  C7  UNL     1      27.798  14.324   8.314  1.00  0.00     0.153 A 
ATOM     10  H4  UNL     1      28.857  13.401   6.854  1.00  0.00     0.169 HD
HETATM   11  N5  UNL     1      26.679  14.758   7.484  1.00  0.00    -0.080 NA
BRANCH   7  12
HETATM   12  N3  UNL     1      30.881  12.624   8.393  1.00  0.00    -0.380 N 
ATOM     13  H32 UNL     1      31.074  11.646   8.612  1.00  0.00     0.158 HD
ATOM     14  H31 UNL     1      31.726  12.925   7.907  1.00  0.00     0.158 HD
ENDBRANCH   7  12
ENDBRANCH   3   5
BRANCH   1  15
HETATM   15  C4  UNL     1      27.821  17.446   9.965  1.00  0.00     0.204 C 
HETATM   16 BR1  UNL     1      27.096  18.275   8.360  1.00  0.00    -0.062 Br
BRANCH  15  17
HETATM   17  C2  UNL     1      28.285  18.484  10.921  1.00  0.00     0.009 C 
HETATM   18  C1  UNL     1      28.345  19.750  10.574  1.00  0.00     0.023 C 
BRANCH  17  19
HETATM   19  C3  UNL     1      28.678  18.051  12.284  1.00  0.00     0.384 C 
HETATM   20  F1  UNL     1      28.199  18.929  13.248  1.00  0.00    -0.209 F 
HETATM   21  F2  UNL     1      30.056  18.000  12.338  1.00  0.00    -0.209 F 
ENDBRANCH  17  19
ENDBRANCH  15  17
ENDBRANCH   1  15
TORSDOF 5
ENDMDL
MODEL 5
REMARK VINA RESULT: -5.996562995      1.665      2.171
REMARK  5 active torsions:
REMARK  status: ('A' for Active; 'I' for Inactive)
REMARK    1  A    between atoms: C2_2  and  C3_3 
REMARK    2  A    between atoms: C2_2  and  C4_6 
REMARK    3  A    between atoms: C4_6  and  N1_8 
REMARK    4  A    between atoms: N2_10  and  C5_12 
REMARK    5  A    between atoms: C6_14  and  N3_15 
ROOT
HETATM    1  N1  UNL     1      26.892  16.256  10.365  1.00  0.00    -0.316 N 
ATOM      2  H1  UNL     1      26.122  16.669  10.889  1.00  0.00     0.182 HD
HETATM    3  N2  UNL     1      26.894  15.011  10.176  1.00  0.00    -0.294 N 
ATOM      4  H2  UNL     1      26.121  14.465  10.557  1.00  0.00     0.187 HD
ENDROOT
BRANCH   3   5
HETATM    5  C5  UNL     1      27.928  14.314   9.452  1.00  0.00     0.133 A 
HETATM    6  S1  UNL     1      29.284  13.456  10.030  1.00  0.00    -0.032 SA
HETATM    7  C6  UNL     1      29.933  12.977   8.531  1.00  0.00     0.145 A 
HETATM    8  N4  UNL     1      29.077  13.499   7.644  1.00  0.00    -0.323 N 
HETATM    9  C7  UNL     1      28.059  14.177   8.095  1.00  0.00     0.153 A 
ATOM     10  H4  UNL     1      29.217  13.370   6.642  1.00  0.00     0.169 HD
HETATM   11  N5  UNL     1      27.064  14.788   7.218  1.00  0.00    -0.080 NA
BRANCH   7  12
HETATM   12  N3  UNL     1      31.013  12.267   8.265  1.00  0.00    -0.380 N 
ATOM     13  H32 UNL     1      31.650  11.844   8.941  1.00  0.00     0.158 HD
ATOM     14  H31 UNL     1      31.417  12.003   7.367  1.00  0.00     0.158 HD
ENDBRANCH   7  12
ENDBRANCH   3   5
BRANCH   1  15
HETATM   15  C4  UNL     1      27.932  17.117   9.871  1.00  0.00     0.204 C 
HETATM   16 BR1  UNL     1      27.134  18.370   8.613  1.00  0.00    -0.062 Br
BRANCH  15  17
HETATM   17  C2  UNL     1      28.616  17.848  10.969  1.00  0.00     0.009 C 
HETATM   18  C1  UNL     1      29.524  17.261  11.715  1.00  0.00     0.023 C 
BRANCH  17  19
HETATM   19  C3  UNL     1      28.243  19.264  11.200  1.00  0.00     0.384 C 
HETATM   20  F1  UNL     1      29.154  20.128  10.603  1.00  0.00    -0.209 F 
HETATM   21  F2  UNL     1      28.212  19.484  12.562  1.00  0.00    -0.209 F 
ENDBRANCH  17  19
ENDBRANCH  15  17
ENDBRANCH   1  15
TORSDOF 5
ENDMDL
