MODEL 1
REMARK VINA RESULT: -7.095035008      0.000      0.000
REMARK  7 active torsions:
REMARK  status: ('A' for Active; 'I' for Inactive)
REMARK    1  A    between atoms: C3_3  and  O1_4 
REMARK    2  A    between atoms: C4_6  and  O2_7 
REMARK    3  A    between atoms: C5_9  and  O3_10 
REMARK    4  A    between atoms: O3_10  and  C6_11 
REMARK    5  A    between atoms: C8_14  and  O4_15 
REMARK    6  A    between atoms: C9_17  and  O5_18 
REMARK    7  A    between atoms: C9_17  and  O6_20 
ROOT
HETATM    1  C6  UNL     1       2.666   5.866  55.589  1.00  0.00     0.291 C 
HETATM    2  C7  UNL     1       1.627   6.535  56.348  1.00  0.00     0.085 C 
HETATM    3  N1  UNL     1       0.788   7.094  56.954  1.00  0.00    -0.195 NA
ENDROOT
BRANCH   1   4
HETATM    4  O3  UNL     1       2.593   4.505  55.758  1.00  0.00    -0.367 OA
BRANCH   4   5
HETATM    5  C5  UNL     1       2.316   3.818  54.577  1.00  0.00     0.188 C 
HETATM    6  C4  UNL     1       3.553   3.260  53.960  1.00  0.00     0.179 C 
HETATM    7  C3  UNL     1       3.141   2.451  52.737  1.00  0.00     0.158 C 
HETATM    8  C2  UNL     1       2.405   1.240  53.271  1.00  0.00     0.078 C 
HETATM    9  C1  UNL     1       2.058   0.273  52.152  1.00  0.00     0.018 C 
HETATM   10  C9  UNL     1       1.134   1.703  53.891  1.00  0.00     0.194 C 
HETATM   11  C8  UNL     1       1.263   2.798  54.877  1.00  0.00     0.212 C 
BRANCH   6  12
HETATM   12  O2  UNL     1       4.314   2.505  54.839  1.00  0.00    -0.390 OA
ATOM     13  H2  UNL     1       4.918   3.047  55.334  1.00  0.00     0.210 HD
ENDBRANCH   6  12
BRANCH   7  14
HETATM   14  O1  UNL     1       4.221   2.109  51.951  1.00  0.00    -0.392 OA
ATOM     15  H1  UNL     1       4.676   2.869  51.607  1.00  0.00     0.210 HD
ENDBRANCH   7  14
BRANCH  10  16
HETATM   16  O5  UNL     1       0.208   2.024  52.873  1.00  0.00    -0.363 OA
ATOM     17  H5  UNL     1       0.221   2.962  52.721  1.00  0.00     0.213 HD
ENDBRANCH  10  16
BRANCH  10  18
HETATM   18  O6  UNL     1       0.570   0.589  54.556  1.00  0.00    -0.363 OA
ATOM     19  H6  UNL     1      -0.306   0.840  54.822  1.00  0.00     0.213 HD
ENDBRANCH  10  18
BRANCH  11  20
HETATM   20  O4  UNL     1       0.028   3.489  54.902  1.00  0.00    -0.387 OA
ATOM     21  H4  UNL     1      -0.369   3.301  55.745  1.00  0.00     0.210 HD
ENDBRANCH  11  20
ENDBRANCH   4   5
ENDBRANCH   1   4
TORSDOF 7
ENDMDL
MODEL 2
REMARK VINA RESULT: -6.573643319      2.896      4.451
REMARK  7 active torsions:
REMARK  status: ('A' for Active; 'I' for Inactive)
REMARK    1  A    between atoms: C3_3  and  O1_4 
REMARK    2  A    between atoms: C4_6  and  O2_7 
REMARK    3  A    between atoms: C5_9  and  O3_10 
REMARK    4  A    between atoms: O3_10  and  C6_11 
REMARK    5  A    between atoms: C8_14  and  O4_15 
REMARK    6  A    between atoms: C9_17  and  O5_18 
REMARK    7  A    between atoms: C9_17  and  O6_20 
ROOT
HETATM    1  C6  UNL     1      -1.644   0.375  56.266  1.00  0.00     0.291 C 
HETATM    2  C7  UNL     1      -2.946   0.552  56.878  1.00  0.00     0.085 C 
HETATM    3  N1  UNL     1      -3.999   0.678  57.386  1.00  0.00    -0.195 NA
ENDROOT
BRANCH   1   4
HETATM    4  O3  UNL     1      -1.282   1.496  55.559  1.00  0.00    -0.367 OA
BRANCH   4   5
HETATM    5  C5  UNL     1       0.047   1.475  55.137  1.00  0.00     0.188 C 
HETATM    6  C4  UNL     1       0.159   1.169  53.683  1.00  0.00     0.179 C 
HETATM    7  C3  UNL     1       1.630   1.265  53.298  1.00  0.00     0.158 C 
HETATM    8  C2  UNL     1       1.991   2.731  53.405  1.00  0.00     0.078 C 
HETATM    9  C1  UNL     1       3.405   2.986  52.910  1.00  0.00     0.018 C 
HETATM   10  C9  UNL     1       1.926   3.124  54.838  1.00  0.00     0.194 C 
HETATM   11  C8  UNL     1       0.676   2.771  55.545  1.00  0.00     0.212 C 
BRANCH   6  12
HETATM   12  O2  UNL     1      -0.631   1.983  52.886  1.00  0.00    -0.390 OA
ATOM     13  H2  UNL     1      -1.037   2.677  53.390  1.00  0.00     0.210 HD
ENDBRANCH   6  12
BRANCH   7  14
HETATM   14  O1  UNL     1       1.875   0.750  52.043  1.00  0.00    -0.392 OA
ATOM     15  H1  UNL     1       1.302   0.023  51.829  1.00  0.00     0.210 HD
ENDBRANCH   7  14
BRANCH  10  16
HETATM   16  O5  UNL     1       3.064   2.625  55.511  1.00  0.00    -0.363 OA
ATOM     17  H5  UNL     1       2.901   2.626  56.447  1.00  0.00     0.213 HD
ENDBRANCH  10  16
BRANCH  10  18
HETATM   18  O6  UNL     1       2.064   4.532  54.887  1.00  0.00    -0.363 OA
ATOM     19  H6  UNL     1       1.551   4.835  55.626  1.00  0.00     0.213 HD
ENDBRANCH  10  18
BRANCH  11  20
HETATM   20  O4  UNL     1       0.988   2.653  56.920  1.00  0.00    -0.387 OA
ATOM     21  H4  UNL     1       1.687   3.273  57.093  1.00  0.00     0.210 HD
ENDBRANCH  11  20
ENDBRANCH   4   5
ENDBRANCH   1   4
TORSDOF 7
ENDMDL
MODEL 3
REMARK VINA RESULT: -6.528124183      2.755      4.382
REMARK  7 active torsions:
REMARK  status: ('A' for Active; 'I' for Inactive)
REMARK    1  A    between atoms: C3_3  and  O1_4 
REMARK    2  A    between atoms: C4_6  and  O2_7 
REMARK    3  A    between atoms: C5_9  and  O3_10 
REMARK    4  A    between atoms: O3_10  and  C6_11 
REMARK    5  A    between atoms: C8_14  and  O4_15 
REMARK    6  A    between atoms: C9_17  and  O5_18 
REMARK    7  A    between atoms: C9_17  and  O6_20 
ROOT
HETATM    1  C6  UNL     1      -1.786   0.447  56.156  1.00  0.00     0.291 C 
HETATM    2  C7  UNL     1      -0.955  -0.008  57.253  1.00  0.00     0.085 C 
HETATM    3  N1  UNL     1      -0.289  -0.396  58.142  1.00  0.00    -0.195 NA
ENDROOT
BRANCH   1   4
HETATM    4  O3  UNL     1      -1.339   1.653  55.674  1.00  0.00    -0.367 OA
BRANCH   4   5
HETATM    5  C5  UNL     1      -0.017   1.613  55.232  1.00  0.00     0.188 C 
HETATM    6  C4  UNL     1       0.070   1.278  53.782  1.00  0.00     0.179 C 
HETATM    7  C3  UNL     1       1.536   1.354  53.373  1.00  0.00     0.158 C 
HETATM    8  C2  UNL     1       1.911   2.819  53.447  1.00  0.00     0.078 C 
HETATM    9  C1  UNL     1       3.319   3.052  52.927  1.00  0.00     0.018 C 
HETATM   10  C9  UNL     1       1.871   3.239  54.874  1.00  0.00     0.194 C 
HETATM   11  C8  UNL     1       0.629   2.911  55.606  1.00  0.00     0.212 C 
BRANCH   6  12
HETATM   12  O2  UNL     1      -0.725   2.084  52.983  1.00  0.00    -0.390 OA
ATOM     13  H2  UNL     1      -1.326   1.571  52.457  1.00  0.00     0.210 HD
ENDBRANCH   6  12
BRANCH   7  14
HETATM   14  O1  UNL     1       1.757   0.814  52.124  1.00  0.00    -0.392 OA
ATOM     15  H1  UNL     1       2.129  -0.059  52.165  1.00  0.00     0.210 HD
ENDBRANCH   7  14
BRANCH  10  16
HETATM   16  O5  UNL     1       3.015   2.742  55.538  1.00  0.00    -0.363 OA
ATOM     17  H5  UNL     1       3.587   3.466  55.763  1.00  0.00     0.213 HD
ENDBRANCH  10  16
BRANCH  10  18
HETATM   18  O6  UNL     1       2.023   4.646  54.894  1.00  0.00    -0.363 OA
ATOM     19  H6  UNL     1       1.744   4.942  55.753  1.00  0.00     0.213 HD
ENDBRANCH  10  18
BRANCH  11  20
HETATM   20  O4  UNL     1       0.961   2.815  56.978  1.00  0.00    -0.387 OA
ATOM     21  H4  UNL     1       0.318   3.333  57.449  1.00  0.00     0.210 HD
ENDBRANCH  11  20
ENDBRANCH   4   5
ENDBRANCH   1   4
TORSDOF 7
ENDMDL
MODEL 4
REMARK VINA RESULT: -6.450287635      2.427      3.816
REMARK  7 active torsions:
REMARK  status: ('A' for Active; 'I' for Inactive)
REMARK    1  A    between atoms: C3_3  and  O1_4 
REMARK    2  A    between atoms: C4_6  and  O2_7 
REMARK    3  A    between atoms: C5_9  and  O3_10 
REMARK    4  A    between atoms: O3_10  and  C6_11 
REMARK    5  A    between atoms: C8_14  and  O4_15 
REMARK    6  A    between atoms: C9_17  and  O5_18 
REMARK    7  A    between atoms: C9_17  and  O6_20 
ROOT
HETATM    1  C6  UNL     1       0.088   1.162  55.383  1.00  0.00     0.291 C 
HETATM    2  C7  UNL     1      -1.160   0.675  55.938  1.00  0.00     0.085 C 
HETATM    3  N1  UNL     1      -2.161   0.263  56.397  1.00  0.00    -0.195 NA
ENDROOT
BRANCH   1   4
HETATM    4  O3  UNL     1      -0.070   2.426  54.868  1.00  0.00    -0.367 OA
BRANCH   4   5
HETATM    5  C5  UNL     1       0.957   2.799  54.001  1.00  0.00     0.188 C 
HETATM    6  C4  UNL     1       1.840   3.836  54.607  1.00  0.00     0.179 C 
HETATM    7  C3  UNL     1       2.980   4.105  53.633  1.00  0.00     0.158 C 
HETATM    8  C2  UNL     1       3.823   2.848  53.623  1.00  0.00     0.078 C 
HETATM    9  C1  UNL     1       5.079   3.036  52.790  1.00  0.00     0.018 C 
HETATM   10  C9  UNL     1       3.022   1.754  53.010  1.00  0.00     0.194 C 
HETATM   11  C8  UNL     1       1.670   1.554  53.574  1.00  0.00     0.212 C 
BRANCH   6  12
HETATM   12  O2  UNL     1       2.314   3.489  55.863  1.00  0.00    -0.390 OA
ATOM     13  H2  UNL     1       2.426   2.550  55.948  1.00  0.00     0.210 HD
ENDBRANCH   6  12
BRANCH   7  14
HETATM   14  O1  UNL     1       3.705   5.226  53.977  1.00  0.00    -0.392 OA
ATOM     15  H1  UNL     1       4.307   5.065  54.694  1.00  0.00     0.210 HD
ENDBRANCH   7  14
BRANCH  10  16
HETATM   16  O5  UNL     1       2.981   1.935  51.609  1.00  0.00    -0.363 OA
ATOM     17  H5  UNL     1       3.360   1.176  51.183  1.00  0.00     0.213 HD
ENDBRANCH  10  16
BRANCH  10  18
HETATM   18  O6  UNL     1       3.749   0.555  53.199  1.00  0.00    -0.363 OA
ATOM     19  H6  UNL     1       3.974   0.510  54.121  1.00  0.00     0.213 HD
ENDBRANCH  10  18
BRANCH  11  20
HETATM   20  O4  UNL     1       0.876   0.960  52.565  1.00  0.00    -0.387 OA
ATOM     21  H4  UNL     1       0.925   1.534  51.810  1.00  0.00     0.210 HD
ENDBRANCH  11  20
ENDBRANCH   4   5
ENDBRANCH   1   4
TORSDOF 7
ENDMDL
MODEL 5
REMARK VINA RESULT: -6.073415029      2.557      4.397
REMARK  7 active torsions:
REMARK  status: ('A' for Active; 'I' for Inactive)
REMARK    1  A    between atoms: C3_3  and  O1_4 
REMARK    2  A    between atoms: C4_6  and  O2_7 
REMARK    3  A    between atoms: C5_9  and  O3_10 
REMARK    4  A    between atoms: O3_10  and  C6_11 
REMARK    5  A    between atoms: C8_14  and  O4_15 
REMARK    6  A    between atoms: C9_17  and  O5_18 
REMARK    7  A    between atoms: C9_17  and  O6_20 
ROOT
HETATM    1  C6  UNL     1      -1.386   1.089  55.077  1.00  0.00     0.291 C 
HETATM    2  C7  UNL     1      -1.838   0.410  56.275  1.00  0.00     0.085 C 
HETATM    3  N1  UNL     1      -2.225  -0.136  57.243  1.00  0.00    -0.195 NA
ENDROOT
BRANCH   1   4
HETATM    4  O3  UNL     1      -0.083   0.759  54.793  1.00  0.00    -0.367 OA
BRANCH   4   5
HETATM    5  C5  UNL     1       0.649   1.817  54.255  1.00  0.00     0.188 C 
HETATM    6  C4  UNL     1       0.928   2.869  55.274  1.00  0.00     0.179 C 
HETATM    7  C3  UNL     1       1.808   3.928  54.623  1.00  0.00     0.158 C 
HETATM    8  C2  UNL     1       3.148   3.264  54.387  1.00  0.00     0.078 C 
HETATM    9  C1  UNL     1       4.169   4.261  53.864  1.00  0.00     0.018 C 
HETATM   10  C9  UNL     1       2.969   2.205  53.357  1.00  0.00     0.194 C 
HETATM   11  C8  UNL     1       1.872   1.246  53.607  1.00  0.00     0.212 C 
BRANCH   6  12
HETATM   12  O2  UNL     1       1.501   2.372  56.435  1.00  0.00    -0.390 OA
ATOM     13  H2  UNL     1       1.989   1.574  56.270  1.00  0.00     0.210 HD
ENDBRANCH   6  12
BRANCH   7  14
HETATM   14  O1  UNL     1       1.910   5.066  55.394  1.00  0.00    -0.392 OA
ATOM     15  H1  UNL     1       1.738   5.858  54.899  1.00  0.00     0.210 HD
ENDBRANCH   7  14
BRANCH  10  16
HETATM   16  O5  UNL     1       2.856   2.807  52.084  1.00  0.00    -0.363 OA
ATOM     17  H5  UNL     1       3.717   3.074  51.785  1.00  0.00     0.213 HD
ENDBRANCH  10  16
BRANCH  10  18
HETATM   18  O6  UNL     1       4.177   1.471  53.306  1.00  0.00    -0.363 OA
ATOM     19  H6  UNL     1       4.094   0.849  52.592  1.00  0.00     0.213 HD
ENDBRANCH  10  18
BRANCH  11  20
HETATM   20  O4  UNL     1       1.462   0.737  52.352  1.00  0.00    -0.387 OA
ATOM     21  H4  UNL     1       0.604   0.352  52.483  1.00  0.00     0.210 HD
ENDBRANCH  11  20
ENDBRANCH   4   5
ENDBRANCH   1   4
TORSDOF 7
ENDMDL
