MODEL 1
REMARK VINA RESULT: -6.243670490      0.000      0.000
REMARK  6 active torsions:
REMARK  status: ('A' for Active; 'I' for Inactive)
REMARK    1  A    between atoms: C3_5  and  N2_6 
REMARK    2  A    between atoms: C4_11  and  N4_12 
REMARK    3  A    between atoms: N4_12  and  C5_14 
REMARK    4  A    between atoms: C5_14  and  C6_15 
REMARK    5  A    between atoms: C6_15  and  N5_16 
REMARK    6  A    between atoms: N5_16  and  N6_17 
ROOT
HETATM    1  C1  UNL     1       2.676  16.014  27.112  1.00  0.00     0.070 C 
HETATM    2  C2  UNL     1       2.854  16.035  25.627  1.00  0.00     0.047 A 
HETATM    3  N1  UNL     1       2.807  17.211  24.993  1.00  0.00    -0.195 N 
ATOM      4  H1  UNL     1       2.651  18.073  25.515  1.00  0.00     0.184 HD
HETATM    5  C3  UNL     1       2.967  17.242  23.653  1.00  0.00     0.677 A 
HETATM    6  N3  UNL     1       3.170  16.113  22.961  1.00  0.00    -0.176 N 
ATOM      7  H3  UNL     1       3.286  16.184  21.950  1.00  0.00     0.186 HD
HETATM    8  C4  UNL     1       3.232  14.870  23.532  1.00  0.00     0.139 A 
HETATM    9  C7  UNL     1       3.066  14.865  24.901  1.00  0.00     0.111 A 
HETATM   10  C8  UNL     1       3.101  13.660  25.672  1.00  0.00     0.105 C 
HETATM   11  N7  UNL     1       3.125  12.696  26.319  1.00  0.00    -0.191 NA
ENDROOT
BRANCH   8  12
HETATM   12  N4  UNL     1       3.427  13.856  22.821  1.00  0.00    -0.373 N 
ATOM     13  H4  UNL     1       4.419  13.624  22.767  1.00  0.00     0.161 HD
BRANCH  12  14
HETATM   14  C5  UNL     1       2.656  12.961  22.088  1.00  0.00     0.139 C 
BRANCH  14  15
HETATM   15  C6  UNL     1       2.388  11.653  22.842  1.00  0.00     0.153 C 
BRANCH  15  16
HETATM   16  N5  UNL     1       1.039  11.642  23.350  1.00  0.00    -0.147 NA
BRANCH  16  17
HETATM   17  N6  UNL     1       0.940  10.999  24.580  1.00  0.00    -0.348 N 
ATOM     18  H62 UNL     1       1.725  10.914  25.226  1.00  0.00     0.172 HD
ATOM     19  H61 UNL     1       0.005  10.632  24.753  1.00  0.00     0.172 HD
ENDBRANCH  16  17
ENDBRANCH  15  16
ENDBRANCH  14  15
ENDBRANCH  12  14
ENDBRANCH   8  12
BRANCH   5  20
HETATM   20  N2  UNL     1       2.915  18.398  23.084  1.00  0.00    -0.234 N 
ATOM     21  H22 UNL     1       2.348  19.162  23.454  1.00  0.00     0.174 HD
ATOM     22  H21 UNL     1       3.470  18.522  22.236  1.00  0.00     0.174 HD
ENDBRANCH   5  20
TORSDOF 6
ENDMDL
MODEL 2
REMARK VINA RESULT: -6.005025843      1.672      5.139
REMARK  6 active torsions:
REMARK  status: ('A' for Active; 'I' for Inactive)
REMARK    1  A    between atoms: C3_5  and  N2_6 
REMARK    2  A    between atoms: C4_11  and  N4_12 
REMARK    3  A    between atoms: N4_12  and  C5_14 
REMARK    4  A    between atoms: C5_14  and  C6_15 
REMARK    5  A    between atoms: C6_15  and  N5_16 
REMARK    6  A    between atoms: N5_16  and  N6_17 
ROOT
HETATM    1  C1  UNL     1       2.794  13.557  26.578  1.00  0.00     0.070 C 
HETATM    2  C2  UNL     1       2.971  14.185  25.232  1.00  0.00     0.047 A 
HETATM    3  N1  UNL     1       3.095  13.389  24.166  1.00  0.00    -0.195 N 
ATOM      4  H1  UNL     1       3.070  12.375  24.272  1.00  0.00     0.184 HD
HETATM    5  C3  UNL     1       3.255  13.945  22.946  1.00  0.00     0.677 A 
HETATM    6  N3  UNL     1       3.291  15.276  22.799  1.00  0.00    -0.176 N 
ATOM      7  H3  UNL     1       3.413  15.652  21.859  1.00  0.00     0.186 HD
HETATM    8  C4  UNL     1       3.172  16.161  23.837  1.00  0.00     0.139 A 
HETATM    9  C7  UNL     1       3.009  15.569  25.072  1.00  0.00     0.111 A 
HETATM   10  C8  UNL     1       2.868  16.332  26.274  1.00  0.00     0.105 C 
HETATM   11  N7  UNL     1       2.750  16.929  27.263  1.00  0.00    -0.191 NA
ENDROOT
BRANCH   8  12
HETATM   12  N4  UNL     1       3.214  17.396  23.625  1.00  0.00    -0.373 N 
ATOM     13  H4  UNL     1       4.168  17.751  23.684  1.00  0.00     0.161 HD
BRANCH  12  14
HETATM   14  C5  UNL     1       2.312  18.411  23.330  1.00  0.00     0.139 C 
BRANCH  14  15
HETATM   15  C6  UNL     1       2.120  19.389  24.495  1.00  0.00     0.153 C 
BRANCH  15  16
HETATM   16  N5  UNL     1       1.884  20.720  23.990  1.00  0.00    -0.147 NA
BRANCH  16  17
HETATM   17  N6  UNL     1       2.957  21.201  23.244  1.00  0.00    -0.348 N 
ATOM     18  H62 UNL     1       3.224  20.810  22.341  1.00  0.00     0.172 HD
ATOM     19  H61 UNL     1       3.432  21.978  23.704  1.00  0.00     0.172 HD
ENDBRANCH  16  17
ENDBRANCH  15  16
ENDBRANCH  14  15
ENDBRANCH  12  14
ENDBRANCH   8  12
BRANCH   5  20
HETATM   20  N2  UNL     1       3.369  13.138  21.945  1.00  0.00    -0.234 N 
ATOM     21  H22 UNL     1       4.155  13.185  21.296  1.00  0.00     0.174 HD
ATOM     22  H21 UNL     1       2.633  12.442  21.826  1.00  0.00     0.174 HD
ENDBRANCH   5  20
TORSDOF 6
ENDMDL
MODEL 3
REMARK VINA RESULT: -5.959720236      1.418      3.205
REMARK  6 active torsions:
REMARK  status: ('A' for Active; 'I' for Inactive)
REMARK    1  A    between atoms: C3_5  and  N2_6 
REMARK    2  A    between atoms: C4_11  and  N4_12 
REMARK    3  A    between atoms: N4_12  and  C5_14 
REMARK    4  A    between atoms: C5_14  and  C6_15 
REMARK    5  A    between atoms: C6_15  and  N5_16 
REMARK    6  A    between atoms: N5_16  and  N6_17 
ROOT
HETATM    1  C1  UNL     1       3.103  17.610  23.749  1.00  0.00     0.070 C 
HETATM    2  C2  UNL     1       3.133  16.121  23.876  1.00  0.00     0.047 A 
HETATM    3  N1  UNL     1       3.274  15.387  22.768  1.00  0.00    -0.195 N 
ATOM      4  H1  UNL     1       3.360  15.837  21.857  1.00  0.00     0.184 HD
HETATM    5  C3  UNL     1       3.301  14.041  22.871  1.00  0.00     0.677 A 
HETATM    6  N3  UNL     1       3.189  13.442  24.064  1.00  0.00    -0.176 N 
ATOM      7  H3  UNL     1       3.215  12.423  24.094  1.00  0.00     0.186 HD
HETATM    8  C4  UNL     1       3.040  14.119  25.245  1.00  0.00     0.139 A 
HETATM    9  C7  UNL     1       3.015  15.492  25.114  1.00  0.00     0.111 A 
HETATM   10  C8  UNL     1       2.868  16.365  26.238  1.00  0.00     0.105 C 
HETATM   11  N7  UNL     1       2.750  17.095  27.133  1.00  0.00    -0.191 NA
ENDROOT
BRANCH   8  12
HETATM   12  N4  UNL     1       2.941  13.492  26.327  1.00  0.00    -0.373 N 
ATOM     13  H4  UNL     1       3.601  13.841  27.021  1.00  0.00     0.161 HD
BRANCH  12  14
HETATM   14  C5  UNL     1       2.173  12.450  26.834  1.00  0.00     0.139 C 
BRANCH  14  15
HETATM   15  C6  UNL     1       2.141  11.231  25.906  1.00  0.00     0.153 C 
BRANCH  15  16
HETATM   16  N5  UNL     1       0.827  11.079  25.333  1.00  0.00    -0.147 NA
BRANCH  16  17
HETATM   17  N6  UNL     1       0.869  10.847  23.961  1.00  0.00    -0.348 N 
ATOM     18  H62 UNL     1       0.980  11.594  23.275  1.00  0.00     0.172 HD
ATOM     19  H61 UNL     1       0.778   9.858  23.732  1.00  0.00     0.172 HD
ENDBRANCH  16  17
ENDBRANCH  15  16
ENDBRANCH  14  15
ENDBRANCH  12  14
ENDBRANCH   8  12
BRANCH   5  20
HETATM   20  N2  UNL     1       3.441  13.372  21.776  1.00  0.00    -0.234 N 
ATOM     21  H22 UNL     1       4.239  13.506  21.155  1.00  0.00     0.174 HD
ATOM     22  H21 UNL     1       2.712  12.695  21.552  1.00  0.00     0.174 HD
ENDBRANCH   5  20
TORSDOF 6
ENDMDL
MODEL 4
REMARK VINA RESULT: -5.918662486      1.527      4.760
REMARK  6 active torsions:
REMARK  status: ('A' for Active; 'I' for Inactive)
REMARK    1  A    between atoms: C3_5  and  N2_6 
REMARK    2  A    between atoms: C4_11  and  N4_12 
REMARK    3  A    between atoms: N4_12  and  C5_14 
REMARK    4  A    between atoms: C5_14  and  C6_15 
REMARK    5  A    between atoms: C6_15  and  N5_16 
REMARK    6  A    between atoms: N5_16  and  N6_17 
ROOT
HETATM    1  C1  UNL     1       1.631  10.760  24.586  1.00  0.00     0.070 C 
HETATM    2  C2  UNL     1       2.311  11.884  23.872  1.00  0.00     0.047 A 
HETATM    3  N1  UNL     1       2.471  11.798  22.548  1.00  0.00    -0.195 N 
ATOM      4  H1  UNL     1       2.135  10.981  22.039  1.00  0.00     0.184 HD
HETATM    5  C3  UNL     1       3.083  12.807  21.893  1.00  0.00     0.677 A 
HETATM    6  N3  UNL     1       3.528  13.884  22.554  1.00  0.00    -0.176 N 
ATOM      7  H3  UNL     1       3.985  14.622  22.019  1.00  0.00     0.186 HD
HETATM    8  C4  UNL     1       3.405  14.050  23.908  1.00  0.00     0.139 A 
HETATM    9  C7  UNL     1       2.777  13.007  24.554  1.00  0.00     0.111 A 
HETATM   10  C8  UNL     1       2.557  13.003  25.968  1.00  0.00     0.105 C 
HETATM   11  N7  UNL     1       2.367  12.976  27.114  1.00  0.00    -0.191 NA
ENDROOT
BRANCH   8  12
HETATM   12  N4  UNL     1       3.846  15.086  24.461  1.00  0.00    -0.373 N 
ATOM     13  H4  UNL     1       4.729  14.906  24.938  1.00  0.00     0.161 HD
BRANCH  12  14
HETATM   14  C5  UNL     1       3.455  16.412  24.601  1.00  0.00     0.139 C 
BRANCH  14  15
HETATM   15  C6  UNL     1       2.868  16.715  25.984  1.00  0.00     0.153 C 
BRANCH  15  16
HETATM   16  N5  UNL     1       2.349  18.060  26.018  1.00  0.00    -0.147 NA
BRANCH  16  17
HETATM   17  N6  UNL     1       2.241  18.554  27.315  1.00  0.00    -0.348 N 
ATOM     18  H62 UNL     1       1.787  18.038  28.069  1.00  0.00     0.172 HD
ATOM     19  H61 UNL     1       2.663  19.477  27.416  1.00  0.00     0.172 HD
ENDBRANCH  16  17
ENDBRANCH  15  16
ENDBRANCH  14  15
ENDBRANCH  12  14
ENDBRANCH   8  12
BRANCH   5  20
HETATM   20  N2  UNL     1       3.214  12.682  20.615  1.00  0.00    -0.234 N 
ATOM     21  H22 UNL     1       3.900  12.053  20.198  1.00  0.00     0.174 HD
ATOM     22  H21 UNL     1       2.597  13.245  20.029  1.00  0.00     0.174 HD
ENDBRANCH   5  20
TORSDOF 6
ENDMDL
MODEL 5
REMARK VINA RESULT: -5.917859698      1.768      4.946
REMARK  6 active torsions:
REMARK  status: ('A' for Active; 'I' for Inactive)
REMARK    1  A    between atoms: C3_5  and  N2_6 
REMARK    2  A    between atoms: C4_11  and  N4_12 
REMARK    3  A    between atoms: N4_12  and  C5_14 
REMARK    4  A    between atoms: C5_14  and  C6_15 
REMARK    5  A    between atoms: C6_15  and  N5_16 
REMARK    6  A    between atoms: N5_16  and  N6_17 
ROOT
HETATM    1  C1  UNL     1       2.784  13.790  26.640  1.00  0.00     0.070 C 
HETATM    2  C2  UNL     1       2.963  14.439  25.305  1.00  0.00     0.047 A 
HETATM    3  N1  UNL     1       3.128  13.660  24.232  1.00  0.00    -0.195 N 
ATOM      4  H1  UNL     1       3.132  12.645  24.325  1.00  0.00     0.184 HD
HETATM    5  C3  UNL     1       3.290  14.236  23.021  1.00  0.00     0.677 A 
HETATM    6  N3  UNL     1       3.287  15.569  22.890  1.00  0.00    -0.176 N 
ATOM      7  H3  UNL     1       3.413  15.960  21.956  1.00  0.00     0.186 HD
HETATM    8  C4  UNL     1       3.125  16.437  23.937  1.00  0.00     0.139 A 
HETATM    9  C7  UNL     1       2.961  15.826  25.162  1.00  0.00     0.111 A 
HETATM   10  C8  UNL     1       2.777  16.570  26.370  1.00  0.00     0.105 C 
HETATM   11  N7  UNL     1       2.626  17.150  27.364  1.00  0.00    -0.191 NA
ENDROOT
BRANCH   8  12
HETATM   12  N4  UNL     1       3.132  17.676  23.740  1.00  0.00    -0.373 N 
ATOM     13  H4  UNL     1       4.079  18.053  23.779  1.00  0.00     0.161 HD
BRANCH  12  14
HETATM   14  C5  UNL     1       2.199  18.673  23.481  1.00  0.00     0.139 C 
BRANCH  14  15
HETATM   15  C6  UNL     1       2.293  19.842  24.468  1.00  0.00     0.153 C 
BRANCH  15  16
HETATM   16  N5  UNL     1       1.081  19.933  25.244  1.00  0.00    -0.147 NA
BRANCH  16  17
HETATM   17  N6  UNL     1       1.325  19.914  26.614  1.00  0.00    -0.348 N 
ATOM     18  H62 UNL     1       1.845  20.648  27.095  1.00  0.00     0.172 HD
ATOM     19  H61 UNL     1       0.927  19.092  27.068  1.00  0.00     0.172 HD
ENDBRANCH  16  17
ENDBRANCH  15  16
ENDBRANCH  14  15
ENDBRANCH  12  14
ENDBRANCH   8  12
BRANCH   5  20
HETATM   20  N2  UNL     1       3.445  13.446  22.013  1.00  0.00    -0.234 N 
ATOM     21  H22 UNL     1       2.670  13.186  21.401  1.00  0.00     0.174 HD
ATOM     22  H21 UNL     1       4.385  13.085  21.848  1.00  0.00     0.174 HD
ENDBRANCH   5  20
TORSDOF 6
ENDMDL
