MODEL 1
REMARK VINA RESULT: -6.711192535      0.000      0.000
REMARK  5 active torsions:
REMARK  status: ('A' for Active; 'I' for Inactive)
REMARK    1  A    between atoms: C2_2  and  N1_3 
REMARK    2  A    between atoms: C2_2  and  C3_7 
REMARK    3  A    between atoms: C8_13  and  S1_14 
REMARK    4  A    between atoms: S1_14  and  C9_15 
REMARK    5  A    between atoms: C9_15  and  C10_16 
ROOT
HETATM    1  C3  UNL     1     -37.938  55.047   7.641  1.00  0.00     0.031 C 
HETATM    2  C4  UNL     1     -37.707  55.246   9.165  1.00  0.00     0.008 C 
HETATM    3  C5  UNL     1     -38.697  56.222   9.724  1.00  0.00     0.002 C 
HETATM    4  C6  UNL     1     -38.519  57.556   9.026  1.00  0.00     0.021 C 
HETATM    5  C7  UNL     1     -38.654  57.385   7.517  1.00  0.00     0.096 C 
HETATM    6 CL1  UNL     1     -38.262  58.957   6.811  1.00  0.00    -0.124 Cl
HETATM    7  C8  UNL     1     -37.595  56.396   7.048  1.00  0.00     0.072 C 
ENDROOT
BRANCH   7   8
HETATM    8  S1  UNL     1     -37.350  56.462   5.312  1.00  0.00    -0.155 SA
BRANCH   8   9
HETATM    9  C9  UNL     1     -36.287  57.653   4.592  1.00  0.00     0.152 C 
BRANCH   9  10
HETATM   10  C10 UNL     1     -36.814  58.515   3.536  1.00  0.00     0.106 A 
HETATM   11  N2  UNL     1     -36.829  58.243   2.209  1.00  0.00    -0.339 N 
HETATM   12  C11 UNL     1     -37.429  59.263   1.562  1.00  0.00     0.198 A 
ATOM     13  H2  UNL     1     -36.450  57.405   1.770  1.00  0.00     0.168 HD
HETATM   14  N3  UNL     1     -37.782  60.159   2.498  1.00  0.00    -0.295 N 
HETATM   15  N4  UNL     1     -37.404  59.692   3.667  1.00  0.00    -0.287 N 
ATOM     16  H3  UNL     1     -38.259  61.045   2.332  1.00  0.00     0.187 HD
ATOM     17  H4  UNL     1     -37.546  60.171   4.556  1.00  0.00     0.188 HD
ENDBRANCH   9  10
ENDBRANCH   8   9
ENDBRANCH   7   8
BRANCH   1  18
HETATM   18  C2  UNL     1     -36.983  53.953   7.280  1.00  0.00     0.184 C 
HETATM   19  C1  UNL     1     -37.562  52.610   7.010  1.00  0.00     0.040 C 
BRANCH  18  20
HETATM   20  N1  UNL     1     -36.051  53.797   8.410  1.00  0.00    -0.075 N 
ATOM     21  H13 UNL     1     -36.348  54.298   9.248  1.00  0.00     0.274 HD
ATOM     22  H12 UNL     1     -36.061  52.859   8.811  1.00  0.00     0.274 HD
ATOM     23  H11 UNL     1     -35.131  54.082   8.076  1.00  0.00     0.274 HD
ENDBRANCH  18  20
ENDBRANCH   1  18
TORSDOF 5
ENDMDL
MODEL 2
REMARK VINA RESULT: -6.405577523      2.207      6.442
REMARK  5 active torsions:
REMARK  status: ('A' for Active; 'I' for Inactive)
REMARK    1  A    between atoms: C2_2  and  N1_3 
REMARK    2  A    between atoms: C2_2  and  C3_7 
REMARK    3  A    between atoms: C8_13  and  S1_14 
REMARK    4  A    between atoms: S1_14  and  C9_15 
REMARK    5  A    between atoms: C9_15  and  C10_16 
ROOT
HETATM    1  C3  UNL     1     -37.678  57.569   5.707  1.00  0.00     0.031 C 
HETATM    2  C4  UNL     1     -38.857  58.005   4.794  1.00  0.00     0.008 C 
HETATM    3  C5  UNL     1     -39.975  58.575   5.612  1.00  0.00     0.002 C 
HETATM    4  C6  UNL     1     -40.470  57.513   6.573  1.00  0.00     0.021 C 
HETATM    5  C7  UNL     1     -39.319  56.998   7.431  1.00  0.00     0.096 C 
HETATM    6 CL1  UNL     1     -39.978  55.661   8.380  1.00  0.00    -0.124 Cl
HETATM    7  C8  UNL     1     -38.252  56.423   6.510  1.00  0.00     0.072 C 
ENDROOT
BRANCH   7   8
HETATM    8  S1  UNL     1     -37.111  55.406   7.372  1.00  0.00    -0.155 SA
BRANCH   8   9
HETATM    9  C9  UNL     1     -37.261  53.661   7.354  1.00  0.00     0.152 C 
BRANCH   9  10
HETATM   10  C10 UNL     1     -37.008  52.924   8.591  1.00  0.00     0.106 A 
HETATM   11  N2  UNL     1     -36.053  53.201   9.512  1.00  0.00    -0.339 N 
HETATM   12  C11 UNL     1     -36.159  52.321  10.528  1.00  0.00     0.198 A 
ATOM     13  H2  UNL     1     -35.368  53.953   9.448  1.00  0.00     0.168 HD
HETATM   14  N3  UNL     1     -37.182  51.505  10.225  1.00  0.00    -0.295 N 
HETATM   15  N4  UNL     1     -37.672  51.883   9.065  1.00  0.00    -0.287 N 
ATOM     16  H3  UNL     1     -37.519  50.729  10.795  1.00  0.00     0.187 HD
ATOM     17  H4  UNL     1     -38.458  51.435   8.595  1.00  0.00     0.188 HD
ENDBRANCH   9  10
ENDBRANCH   8   9
ENDBRANCH   7   8
BRANCH   1  18
HETATM   18  C2  UNL     1     -36.610  57.171   4.738  1.00  0.00     0.184 C 
HETATM   19  C1  UNL     1     -35.462  58.102   4.574  1.00  0.00     0.040 C 
BRANCH  18  20
HETATM   20  N1  UNL     1     -37.246  57.041   3.416  1.00  0.00    -0.075 N 
ATOM     21  H13 UNL     1     -37.422  56.073   3.148  1.00  0.00     0.274 HD
ATOM     22  H12 UNL     1     -38.216  57.357   3.406  1.00  0.00     0.274 HD
ATOM     23  H11 UNL     1     -36.654  57.541   2.753  1.00  0.00     0.274 HD
ENDBRANCH  18  20
ENDBRANCH   1  18
TORSDOF 5
ENDMDL
MODEL 3
REMARK VINA RESULT: -6.278094173      3.610      6.028
REMARK  5 active torsions:
REMARK  status: ('A' for Active; 'I' for Inactive)
REMARK    1  A    between atoms: C2_2  and  N1_3 
REMARK    2  A    between atoms: C2_2  and  C3_7 
REMARK    3  A    between atoms: C8_13  and  S1_14 
REMARK    4  A    between atoms: S1_14  and  C9_15 
REMARK    5  A    between atoms: C9_15  and  C10_16 
ROOT
HETATM    1  C3  UNL     1     -39.050  56.630   7.248  1.00  0.00     0.031 C 
HETATM    2  C4  UNL     1     -39.212  58.135   7.601  1.00  0.00     0.008 C 
HETATM    3  C5  UNL     1     -39.213  58.970   6.357  1.00  0.00     0.002 C 
HETATM    4  C6  UNL     1     -37.893  58.778   5.636  1.00  0.00     0.021 C 
HETATM    5  C7  UNL     1     -37.659  57.299   5.348  1.00  0.00     0.096 C 
HETATM    6 CL1  UNL     1     -36.032  57.187   4.667  1.00  0.00    -0.124 Cl
HETATM    7  C8  UNL     1     -37.654  56.546   6.671  1.00  0.00     0.072 C 
ENDROOT
BRANCH   7   8
HETATM    8  S1  UNL     1     -36.951  54.945   6.520  1.00  0.00    -0.155 SA
BRANCH   8   9
HETATM    9  C9  UNL     1     -37.792  53.528   7.111  1.00  0.00     0.152 C 
BRANCH   9  10
HETATM   10  C10 UNL     1     -37.339  52.913   8.357  1.00  0.00     0.106 A 
HETATM   11  N2  UNL     1     -36.389  53.397   9.194  1.00  0.00    -0.339 N 
HETATM   12  C11 UNL     1     -36.278  52.569  10.253  1.00  0.00     0.198 A 
ATOM     13  H2  UNL     1     -35.846  54.247   9.047  1.00  0.00     0.168 HD
HETATM   14  N3  UNL     1     -37.165  51.579  10.062  1.00  0.00    -0.295 N 
HETATM   15  N4  UNL     1     -37.785  51.805   8.925  1.00  0.00    -0.287 N 
ATOM     16  H3  UNL     1     -37.329  50.792  10.689  1.00  0.00     0.187 HD
ATOM     17  H4  UNL     1     -38.513  51.207   8.533  1.00  0.00     0.188 HD
ENDBRANCH   9  10
ENDBRANCH   8   9
ENDBRANCH   7   8
BRANCH   1  18
HETATM   18  C2  UNL     1     -39.217  55.939   8.565  1.00  0.00     0.184 C 
HETATM   19  C1  UNL     1     -40.598  55.840   9.107  1.00  0.00     0.040 C 
BRANCH  18  20
HETATM   20  N1  UNL     1     -38.423  56.688   9.554  1.00  0.00    -0.075 N 
ATOM     21  H13 UNL     1     -38.836  56.683  10.487  1.00  0.00     0.274 HD
ATOM     22  H12 UNL     1     -37.547  56.226   9.798  1.00  0.00     0.274 HD
ATOM     23  H11 UNL     1     -38.291  57.627   9.178  1.00  0.00     0.274 HD
ENDBRANCH  18  20
ENDBRANCH   1  18
TORSDOF 5
ENDMDL
MODEL 4
REMARK VINA RESULT: -6.213921716      2.317      6.364
REMARK  5 active torsions:
REMARK  status: ('A' for Active; 'I' for Inactive)
REMARK    1  A    between atoms: C2_2  and  N1_3 
REMARK    2  A    between atoms: C2_2  and  C3_7 
REMARK    3  A    between atoms: C8_13  and  S1_14 
REMARK    4  A    between atoms: S1_14  and  C9_15 
REMARK    5  A    between atoms: C9_15  and  C10_16 
ROOT
HETATM    1  C3  UNL     1     -37.773  57.608   5.798  1.00  0.00     0.031 C 
HETATM    2  C4  UNL     1     -38.850  57.845   4.704  1.00  0.00     0.008 C 
HETATM    3  C5  UNL     1     -40.093  58.429   5.305  1.00  0.00     0.002 C 
HETATM    4  C6  UNL     1     -40.644  57.457   6.330  1.00  0.00     0.021 C 
HETATM    5  C7  UNL     1     -39.582  57.134   7.376  1.00  0.00     0.096 C 
HETATM    6 CL1  UNL     1     -40.280  55.877   8.405  1.00  0.00    -0.124 Cl
HETATM    7  C8  UNL     1     -38.378  56.529   6.669  1.00  0.00     0.072 C 
ENDROOT
BRANCH   7   8
HETATM    8  S1  UNL     1     -37.299  55.708   7.782  1.00  0.00    -0.155 SA
BRANCH   8   9
HETATM    9  C9  UNL     1     -37.119  53.966   7.751  1.00  0.00     0.152 C 
BRANCH   9  10
HETATM   10  C10 UNL     1     -36.336  53.324   8.805  1.00  0.00     0.106 A 
HETATM   11  N2  UNL     1     -36.799  52.449   9.731  1.00  0.00    -0.339 N 
HETATM   12  C11 UNL     1     -35.770  52.049  10.505  1.00  0.00     0.198 A 
ATOM     13  H2  UNL     1     -37.767  52.142   9.826  1.00  0.00     0.168 HD
HETATM   14  N3  UNL     1     -34.676  52.681  10.049  1.00  0.00    -0.295 N 
HETATM   15  N4  UNL     1     -35.039  53.436   9.035  1.00  0.00    -0.287 N 
ATOM     16  H3  UNL     1     -33.732  52.592  10.422  1.00  0.00     0.187 HD
ATOM     17  H4  UNL     1     -34.406  54.029   8.499  1.00  0.00     0.188 HD
ENDBRANCH   9  10
ENDBRANCH   8   9
ENDBRANCH   7   8
BRANCH   1  18
HETATM   18  C2  UNL     1     -36.571  57.173   5.020  1.00  0.00     0.184 C 
HETATM   19  C1  UNL     1     -35.530  58.201   4.751  1.00  0.00     0.040 C 
BRANCH  18  20
HETATM   20  N1  UNL     1     -37.047  56.695   3.711  1.00  0.00    -0.075 N 
ATOM     21  H13 UNL     1     -37.344  57.450   3.092  1.00  0.00     0.274 HD
ATOM     22  H12 UNL     1     -36.300  56.330   3.121  1.00  0.00     0.274 HD
ATOM     23  H11 UNL     1     -37.783  56.014   3.896  1.00  0.00     0.274 HD
ENDBRANCH  18  20
ENDBRANCH   1  18
TORSDOF 5
ENDMDL
MODEL 5
REMARK VINA RESULT: -6.099671417      2.007      3.068
REMARK  5 active torsions:
REMARK  status: ('A' for Active; 'I' for Inactive)
REMARK    1  A    between atoms: C2_2  and  N1_3 
REMARK    2  A    between atoms: C2_2  and  C3_7 
REMARK    3  A    between atoms: C8_13  and  S1_14 
REMARK    4  A    between atoms: S1_14  and  C9_15 
REMARK    5  A    between atoms: C9_15  and  C10_16 
ROOT
HETATM    1  C3  UNL     1     -37.797  56.203   8.289  1.00  0.00     0.031 C 
HETATM    2  C4  UNL     1     -38.052  54.671   8.348  1.00  0.00     0.008 C 
HETATM    3  C5  UNL     1     -37.001  53.932   7.575  1.00  0.00     0.002 C 
HETATM    4  C6  UNL     1     -37.052  54.380   6.128  1.00  0.00     0.021 C 
HETATM    5  C7  UNL     1     -36.891  55.894   6.037  1.00  0.00     0.096 C 
HETATM    6 CL1  UNL     1     -37.134  56.308   4.336  1.00  0.00    -0.124 Cl
HETATM    7  C8  UNL     1     -38.013  56.546   6.832  1.00  0.00     0.072 C 
ENDROOT
BRANCH   7   8
HETATM    8  S1  UNL     1     -38.205  58.244   6.435  1.00  0.00    -0.155 SA
BRANCH   8   9
HETATM    9  C9  UNL     1     -39.315  58.762   5.183  1.00  0.00     0.152 C 
BRANCH   9  10
HETATM   10  C10 UNL     1     -38.785  59.048   3.852  1.00  0.00     0.106 A 
HETATM   11  N2  UNL     1     -37.717  59.830   3.562  1.00  0.00    -0.339 N 
HETATM   12  C11 UNL     1     -37.518  59.819   2.228  1.00  0.00     0.198 A 
ATOM     13  H2  UNL     1     -37.155  60.343   4.241  1.00  0.00     0.168 HD
HETATM   14  N3  UNL     1     -38.466  59.027   1.704  1.00  0.00    -0.295 N 
HETATM   15  N4  UNL     1     -39.211  58.579   2.691  1.00  0.00    -0.287 N 
ATOM     16  H3  UNL     1     -38.588  58.810   0.715  1.00  0.00     0.187 HD
ATOM     17  H4  UNL     1     -40.009  57.954   2.577  1.00  0.00     0.188 HD
ENDBRANCH   9  10
ENDBRANCH   8   9
ENDBRANCH   7   8
BRANCH   1  18
HETATM   18  C2  UNL     1     -38.828  56.767   9.216  1.00  0.00     0.184 C 
HETATM   19  C1  UNL     1     -38.535  56.705  10.673  1.00  0.00     0.040 C 
BRANCH  18  20
HETATM   20  N1  UNL     1     -40.072  56.009   8.999  1.00  0.00    -0.075 N 
ATOM     21  H13 UNL     1     -40.897  56.474   9.377  1.00  0.00     0.274 HD
ATOM     22  H12 UNL     1     -40.367  55.996   8.023  1.00  0.00     0.274 HD
ATOM     23  H11 UNL     1     -39.922  55.077   9.386  1.00  0.00     0.274 HD
ENDBRANCH  18  20
ENDBRANCH   1  18
TORSDOF 5
ENDMDL
