MODEL 1
REMARK VINA RESULT: -6.785913621      0.000      0.000
REMARK  7 active torsions:
REMARK  status: ('A' for Active; 'I' for Inactive)
REMARK    1  A    between atoms: C2_2  and  N1_3 
REMARK    2  A    between atoms: N1_3  and  C3_5 
REMARK    3  A    between atoms: C3_5  and  S2_7 
REMARK    4  A    between atoms: S2_7  and  C4_8 
REMARK    5  A    between atoms: C4_8  and  C5_9 
REMARK    6  A    between atoms: C5_9  and  C6_13 
REMARK    7  A    between atoms: C9_17  and  O1_18 
ROOT
HETATM    1  C5  UNL     1     -39.123  57.289   6.763  1.00  0.00     0.060 C 
HETATM    2  N2  UNL     1     -39.086  58.352   7.478  1.00  0.00    -0.227 N 
ATOM      3  H2  UNL     1     -38.600  58.288   8.373  1.00  0.00     0.199 HD
HETATM    4  F1  UNL     1     -39.616  59.527   7.167  1.00  0.00    -0.101 F 
ENDROOT
BRANCH   1   5
HETATM    5  C4  UNL     1     -39.826  57.380   5.473  1.00  0.00     0.142 C 
BRANCH   5   6
HETATM    6  S2  UNL     1     -39.162  58.546   4.295  1.00  0.00    -0.095 SA
BRANCH   6   7
HETATM    7  C3  UNL     1     -37.623  58.074   3.564  1.00  0.00     0.134 C 
HETATM    8  S1  UNL     1     -36.229  58.077   4.401  1.00  0.00    -0.053 SA
BRANCH   7   9
HETATM    9  N1  UNL     1     -37.541  57.667   2.191  1.00  0.00    -0.376 N 
ATOM     10  H1  UNL     1     -38.046  56.834   1.887  1.00  0.00     0.160 HD
BRANCH   9  11
HETATM   11  C2  UNL     1     -36.761  58.410   1.226  1.00  0.00     0.116 C 
HETATM   12  C1  UNL     1     -37.535  59.608   0.766  1.00  0.00     0.026 C 
ENDBRANCH   9  11
ENDBRANCH   7   9
ENDBRANCH   6   7
ENDBRANCH   5   6
ENDBRANCH   1   5
BRANCH   1  13
HETATM   13  C6  UNL     1     -38.472  56.015   7.203  1.00  0.00     0.029 A 
HETATM   14  C7  UNL     1     -37.613  55.366   6.337  1.00  0.00     0.066 A 
HETATM   15  S3  UNL     1     -37.078  54.033   7.241  1.00  0.00    -0.110 SA
HETATM   16  C8  UNL     1     -37.922  54.299   8.670  1.00  0.00     0.087 A 
HETATM   17  C9  UNL     1     -38.644  55.475   8.418  1.00  0.00     0.085 A 
BRANCH  17  18
HETATM   18  O1  UNL     1     -39.446  55.914   9.486  1.00  0.00    -0.359 OA
ATOM     19  H1  UNL     1     -39.773  55.429  10.235  1.00  0.00     0.217 HD
ENDBRANCH  17  18
ENDBRANCH   1  13
TORSDOF 7
ENDMDL
MODEL 2
REMARK VINA RESULT: -6.714802713      0.707      1.316
REMARK  7 active torsions:
REMARK  status: ('A' for Active; 'I' for Inactive)
REMARK    1  A    between atoms: C2_2  and  N1_3 
REMARK    2  A    between atoms: N1_3  and  C3_5 
REMARK    3  A    between atoms: C3_5  and  S2_7 
REMARK    4  A    between atoms: S2_7  and  C4_8 
REMARK    5  A    between atoms: C4_8  and  C5_9 
REMARK    6  A    between atoms: C5_9  and  C6_13 
REMARK    7  A    between atoms: C9_17  and  O1_18 
ROOT
HETATM    1  C5  UNL     1     -38.271  57.439   6.955  1.00  0.00     0.060 C 
HETATM    2  N2  UNL     1     -39.358  58.050   7.252  1.00  0.00    -0.227 N 
ATOM      3  H2  UNL     1     -40.092  57.496   7.694  1.00  0.00     0.199 HD
HETATM    4  F1  UNL     1     -39.621  59.333   7.042  1.00  0.00    -0.101 F 
ENDROOT
BRANCH   1   5
HETATM    5  C4  UNL     1     -37.213  58.238   6.315  1.00  0.00     0.142 C 
BRANCH   5   6
HETATM    6  S2  UNL     1     -36.667  57.681   4.709  1.00  0.00    -0.095 SA
BRANCH   6   7
HETATM    7  C3  UNL     1     -37.743  58.096   3.369  1.00  0.00     0.134 C 
HETATM    8  S1  UNL     1     -39.221  58.731   3.608  1.00  0.00    -0.053 SA
BRANCH   7   9
HETATM    9  N1  UNL     1     -37.352  57.886   2.004  1.00  0.00    -0.376 N 
ATOM     10  H1  UNL     1     -37.607  57.013   1.542  1.00  0.00     0.160 HD
BRANCH   9  11
HETATM   11  C2  UNL     1     -36.606  58.883   1.269  1.00  0.00     0.116 C 
HETATM   12  C1  UNL     1     -37.546  59.709   0.444  1.00  0.00     0.026 C 
ENDBRANCH   9  11
ENDBRANCH   7   9
ENDBRANCH   6   7
ENDBRANCH   5   6
ENDBRANCH   1   5
BRANCH   1  13
HETATM   13  C6  UNL     1     -38.072  55.987   7.256  1.00  0.00     0.029 A 
HETATM   14  C7  UNL     1     -37.314  55.219   6.392  1.00  0.00     0.066 A 
HETATM   15  S3  UNL     1     -37.309  53.689   7.128  1.00  0.00    -0.110 SA
HETATM   16  C8  UNL     1     -38.241  54.023   8.487  1.00  0.00     0.087 A 
HETATM   17  C9  UNL     1     -38.561  55.381   8.348  1.00  0.00     0.085 A 
BRANCH  17  18
HETATM   18  O1  UNL     1     -39.352  55.909   9.383  1.00  0.00    -0.359 OA
ATOM     19  H1  UNL     1     -39.212  56.682   9.916  1.00  0.00     0.217 HD
ENDBRANCH  17  18
ENDBRANCH   1  13
TORSDOF 7
ENDMDL
MODEL 3
REMARK VINA RESULT: -6.680153712      2.745      6.201
REMARK  7 active torsions:
REMARK  status: ('A' for Active; 'I' for Inactive)
REMARK    1  A    between atoms: C2_2  and  N1_3 
REMARK    2  A    between atoms: N1_3  and  C3_5 
REMARK    3  A    between atoms: C3_5  and  S2_7 
REMARK    4  A    between atoms: S2_7  and  C4_8 
REMARK    5  A    between atoms: C4_8  and  C5_9 
REMARK    6  A    between atoms: C5_9  and  C6_13 
REMARK    7  A    between atoms: C9_17  and  O1_18 
ROOT
HETATM    1  C5  UNL     1     -38.553  57.474   7.044  1.00  0.00     0.060 C 
HETATM    2  N2  UNL     1     -38.384  58.160   8.114  1.00  0.00    -0.227 N 
ATOM      3  H2  UNL     1     -38.205  59.157   7.999  1.00  0.00     0.199 HD
HETATM    4  F1  UNL     1     -38.420  57.698   9.357  1.00  0.00    -0.101 F 
ENDROOT
BRANCH   1   5
HETATM    5  C4  UNL     1     -38.809  56.035   7.211  1.00  0.00     0.142 C 
BRANCH   5   6
HETATM    6  S2  UNL     1     -37.437  54.945   6.872  1.00  0.00    -0.095 SA
BRANCH   6   7
HETATM    7  C3  UNL     1     -37.101  53.752   8.132  1.00  0.00     0.134 C 
HETATM    8  S1  UNL     1     -37.811  52.289   8.152  1.00  0.00    -0.053 SA
BRANCH   7   9
HETATM    9  N1  UNL     1     -36.181  54.029   9.197  1.00  0.00    -0.376 N 
ATOM     10  H1  UNL     1     -35.705  54.931   9.223  1.00  0.00     0.160 HD
BRANCH   9  11
HETATM   11  C2  UNL     1     -35.911  53.059  10.236  1.00  0.00     0.116 C 
HETATM   12  C1  UNL     1     -34.595  52.391   9.973  1.00  0.00     0.026 C 
ENDBRANCH   9  11
ENDBRANCH   7   9
ENDBRANCH   6   7
ENDBRANCH   5   6
ENDBRANCH   1   5
BRANCH   1  13
HETATM   13  C6  UNL     1     -38.511  58.103   5.687  1.00  0.00     0.029 A 
HETATM   14  C7  UNL     1     -39.584  57.930   4.833  1.00  0.00     0.066 A 
HETATM   15  S3  UNL     1     -39.144  58.832   3.464  1.00  0.00    -0.110 SA
HETATM   16  C8  UNL     1     -37.647  59.405   3.968  1.00  0.00     0.087 A 
HETATM   17  C9  UNL     1     -37.497  58.866   5.253  1.00  0.00     0.085 A 
BRANCH  17  18
HETATM   18  O1  UNL     1     -36.297  59.208   5.900  1.00  0.00    -0.359 OA
ATOM     19  H1  UNL     1     -35.540  59.672   5.562  1.00  0.00     0.217 HD
ENDBRANCH  17  18
ENDBRANCH   1  13
TORSDOF 7
ENDMDL
MODEL 4
REMARK VINA RESULT: -6.562085840      3.082      6.263
REMARK  7 active torsions:
REMARK  status: ('A' for Active; 'I' for Inactive)
REMARK    1  A    between atoms: C2_2  and  N1_3 
REMARK    2  A    between atoms: N1_3  and  C3_5 
REMARK    3  A    between atoms: C3_5  and  S2_7 
REMARK    4  A    between atoms: S2_7  and  C4_8 
REMARK    5  A    between atoms: C4_8  and  C5_9 
REMARK    6  A    between atoms: C5_9  and  C6_13 
REMARK    7  A    between atoms: C9_17  and  O1_18 
ROOT
HETATM    1  C5  UNL     1     -38.634  56.871   8.164  1.00  0.00     0.060 C 
HETATM    2  N2  UNL     1     -38.344  57.440   9.275  1.00  0.00    -0.227 N 
ATOM      3  H2  UNL     1     -38.030  58.410   9.229  1.00  0.00     0.199 HD
HETATM    4  F1  UNL     1     -38.413  56.891  10.481  1.00  0.00    -0.101 F 
ENDROOT
BRANCH   1   5
HETATM    5  C4  UNL     1     -39.084  55.472   8.232  1.00  0.00     0.142 C 
BRANCH   5   6
HETATM    6  S2  UNL     1     -37.919  54.240   7.672  1.00  0.00    -0.095 SA
BRANCH   6   7
HETATM    7  C3  UNL     1     -37.149  53.302   8.958  1.00  0.00     0.134 C 
HETATM    8  S1  UNL     1     -36.138  53.977  10.038  1.00  0.00    -0.053 SA
BRANCH   7   9
HETATM    9  N1  UNL     1     -37.387  51.894   9.100  1.00  0.00    -0.376 N 
ATOM     10  H1  UNL     1     -38.234  51.489   8.700  1.00  0.00     0.160 HD
BRANCH   9  11
HETATM   11  C2  UNL     1     -36.455  51.036   9.797  1.00  0.00     0.116 C 
HETATM   12  C1  UNL     1     -35.229  50.837   8.959  1.00  0.00     0.026 C 
ENDBRANCH   9  11
ENDBRANCH   7   9
ENDBRANCH   6   7
ENDBRANCH   5   6
ENDBRANCH   1   5
BRANCH   1  13
HETATM   13  C6  UNL     1     -38.539  57.593   6.857  1.00  0.00     0.029 A 
HETATM   14  C7  UNL     1     -37.306  58.051   6.431  1.00  0.00     0.066 A 
HETATM   15  S3  UNL     1     -37.647  58.744   4.919  1.00  0.00    -0.110 SA
HETATM   16  C8  UNL     1     -39.301  58.457   4.839  1.00  0.00     0.087 A 
HETATM   17  C9  UNL     1     -39.585  57.796   6.042  1.00  0.00     0.085 A 
BRANCH  17  18
HETATM   18  O1  UNL     1     -40.934  57.442   6.216  1.00  0.00    -0.359 OA
ATOM     19  H1  UNL     1     -41.311  56.733   6.725  1.00  0.00     0.217 HD
ENDBRANCH  17  18
ENDBRANCH   1  13
TORSDOF 7
ENDMDL
MODEL 5
REMARK VINA RESULT: -6.516060269      2.582      3.472
REMARK  7 active torsions:
REMARK  status: ('A' for Active; 'I' for Inactive)
REMARK    1  A    between atoms: C2_2  and  N1_3 
REMARK    2  A    between atoms: N1_3  and  C3_5 
REMARK    3  A    between atoms: C3_5  and  S2_7 
REMARK    4  A    between atoms: S2_7  and  C4_8 
REMARK    5  A    between atoms: C4_8  and  C5_9 
REMARK    6  A    between atoms: C5_9  and  C6_13 
REMARK    7  A    between atoms: C9_17  and  O1_18 
ROOT
HETATM    1  C5  UNL     1     -37.660  55.001   8.799  1.00  0.00     0.060 C 
HETATM    2  N2  UNL     1     -37.831  55.854   9.741  1.00  0.00    -0.227 N 
ATOM      3  H2  UNL     1     -37.410  55.633  10.644  1.00  0.00     0.199 HD
HETATM    4  F1  UNL     1     -38.500  56.996   9.656  1.00  0.00    -0.101 F 
ENDROOT
BRANCH   1   5
HETATM    5  C4  UNL     1     -38.270  55.319   7.498  1.00  0.00     0.142 C 
BRANCH   5   6
HETATM    6  S2  UNL     1     -37.280  56.301   6.383  1.00  0.00    -0.095 SA
BRANCH   6   7
HETATM    7  C3  UNL     1     -37.758  57.999   6.258  1.00  0.00     0.134 C 
HETATM    8  S1  UNL     1     -39.203  58.533   6.780  1.00  0.00    -0.053 SA
BRANCH   7   9
HETATM    9  N1  UNL     1     -36.883  58.982   5.687  1.00  0.00    -0.376 N 
ATOM     10  H1  UNL     1     -36.518  59.728   6.279  1.00  0.00     0.160 HD
BRANCH   9  11
HETATM   11  C2  UNL     1     -36.507  58.940   4.291  1.00  0.00     0.116 C 
HETATM   12  C1  UNL     1     -37.625  59.478   3.451  1.00  0.00     0.026 C 
ENDBRANCH   9  11
ENDBRANCH   7   9
ENDBRANCH   6   7
ENDBRANCH   5   6
ENDBRANCH   1   5
BRANCH   1  13
HETATM   13  C6  UNL     1     -36.867  53.749   8.999  1.00  0.00     0.029 A 
HETATM   14  C7  UNL     1     -35.577  53.841   9.488  1.00  0.00     0.066 A 
HETATM   15  S3  UNL     1     -35.085  52.220   9.603  1.00  0.00    -0.110 SA
HETATM   16  C8  UNL     1     -36.477  51.459   9.048  1.00  0.00     0.087 A 
HETATM   17  C9  UNL     1     -37.349  52.519   8.766  1.00  0.00     0.085 A 
BRANCH  17  18
HETATM   18  O1  UNL     1     -38.608  52.132   8.275  1.00  0.00    -0.359 OA
ATOM     19  H1  UNL     1     -39.421  52.623   8.245  1.00  0.00     0.217 HD
ENDBRANCH  17  18
ENDBRANCH   1  13
TORSDOF 7
ENDMDL
