MODEL 1
REMARK VINA RESULT: -9.171303971      0.000      0.000
REMARK  6 active torsions:
REMARK  status: ('A' for Active; 'I' for Inactive)
REMARK    1  A    between atoms: N1_2  and  C3_4 
REMARK    2  A    between atoms: C5_6  and  O1_7 
REMARK    3  A    between atoms: N2_9  and  C6_10 
REMARK    4  A    between atoms: C6_10  and  C7_11 
REMARK    5  A    between atoms: C7_11  and  C8_12 
REMARK    6  A    between atoms: C14_19  and  O2_20 
ROOT
HETATM    1  C3  UNL     1     -38.589  57.933   5.156  1.00  0.00     0.085 A 
HETATM    2  C4  UNL     1     -39.815  57.844   5.796  1.00  0.00     0.089 A 
HETATM    3  C5  UNL     1     -39.622  56.977   6.848  1.00  0.00     0.146 A 
HETATM    4  N2  UNL     1     -38.345  56.546   6.867  1.00  0.00    -0.307 N 
HETATM    5  C14 UNL     1     -37.694  57.119   5.840  1.00  0.00     0.171 A 
ENDROOT
BRANCH   4   6
HETATM    6  C6  UNL     1     -37.766  55.610   7.845  1.00  0.00     0.133 C 
BRANCH   6   7
HETATM    7  C7  UNL     1     -37.775  54.265   7.205  1.00  0.00     0.025 C 
BRANCH   7   8
HETATM    8  C8  UNL     1     -36.892  53.253   7.868  1.00  0.00    -0.010 C 
HETATM    9  C9  UNL     1     -35.861  53.914   8.756  1.00  0.00     0.005 C 
HETATM   10  C10 UNL     1     -36.139  53.706  10.223  1.00  0.00     0.003 C 
HETATM   11  C11 UNL     1     -36.151  52.230  10.567  1.00  0.00     0.037 C 
HETATM   12  C12 UNL     1     -36.694  51.374   9.466  1.00  0.00     0.170 C 
HETATM   13  F1  UNL     1     -35.707  50.802   8.691  1.00  0.00    -0.249 F 
HETATM   14  C13 UNL     1     -37.646  52.190   8.617  1.00  0.00     0.042 C 
ENDBRANCH   7   8
ENDBRANCH   6   7
ENDBRANCH   4   6
BRANCH   3  15
HETATM   15  O1  UNL     1     -40.595  56.589   7.771  1.00  0.00    -0.346 OA
ATOM     16  H1  UNL     1     -41.176  55.842   7.682  1.00  0.00     0.219 HD
ENDBRANCH   3  15
BRANCH   5  17
HETATM   17  O2  UNL     1     -36.343  56.918   5.527  1.00  0.00    -0.344 OA
ATOM     18  H2  UNL     1     -35.886  56.086   5.502  1.00  0.00     0.219 HD
ENDBRANCH   5  17
BRANCH   1  19
HETATM   19  N1  UNL     1     -38.303  58.715   4.013  1.00  0.00    -0.386 N 
HETATM   20  C1  UNL     1     -37.079  59.478   3.956  1.00  0.00     0.149 C 
HETATM   21  C2  UNL     1     -39.243  58.739   2.919  1.00  0.00     0.149 C 
ENDBRANCH   1  19
TORSDOF 6
ENDMDL
MODEL 2
REMARK VINA RESULT: -8.787393651      1.219      1.698
REMARK  6 active torsions:
REMARK  status: ('A' for Active; 'I' for Inactive)
REMARK    1  A    between atoms: N1_2  and  C3_4 
REMARK    2  A    between atoms: C5_6  and  O1_7 
REMARK    3  A    between atoms: N2_9  and  C6_10 
REMARK    4  A    between atoms: C6_10  and  C7_11 
REMARK    5  A    between atoms: C7_11  and  C8_12 
REMARK    6  A    between atoms: C14_19  and  O2_20 
ROOT
HETATM    1  C3  UNL     1     -38.258  57.872   4.608  1.00  0.00     0.085 A 
HETATM    2  C4  UNL     1     -39.583  57.879   5.009  1.00  0.00     0.089 A 
HETATM    3  C5  UNL     1     -39.598  57.290   6.254  1.00  0.00     0.146 A 
HETATM    4  N2  UNL     1     -38.348  56.932   6.613  1.00  0.00    -0.307 N 
HETATM    5  C14 UNL     1     -37.512  57.279   5.620  1.00  0.00     0.171 A 
ENDROOT
BRANCH   4   6
HETATM    6  C6  UNL     1     -37.970  56.275   7.875  1.00  0.00     0.133 C 
BRANCH   6   7
HETATM    7  C7  UNL     1     -37.677  54.853   7.545  1.00  0.00     0.025 C 
BRANCH   7   8
HETATM    8  C8  UNL     1     -37.327  53.998   8.724  1.00  0.00    -0.010 C 
HETATM    9  C9  UNL     1     -37.870  52.595   8.571  1.00  0.00     0.005 C 
HETATM   10  C10 UNL     1     -36.787  51.579   8.308  1.00  0.00     0.003 C 
HETATM   11  C11 UNL     1     -35.783  51.553   9.443  1.00  0.00     0.037 C 
HETATM   12  C12 UNL     1     -35.560  52.897  10.061  1.00  0.00     0.170 C 
HETATM   13  F1  UNL     1     -36.293  53.090  11.212  1.00  0.00    -0.249 F 
HETATM   14  C13 UNL     1     -35.858  53.976   9.041  1.00  0.00     0.042 C 
ENDBRANCH   7   8
ENDBRANCH   6   7
ENDBRANCH   4   6
BRANCH   3  15
HETATM   15  O1  UNL     1     -40.731  57.083   7.043  1.00  0.00    -0.346 OA
ATOM     16  H1  UNL     1     -40.804  56.456   7.753  1.00  0.00     0.219 HD
ENDBRANCH   3  15
BRANCH   5  17
HETATM   17  O2  UNL     1     -36.126  57.071   5.622  1.00  0.00    -0.344 OA
ATOM     18  H2  UNL     1     -35.675  56.262   5.409  1.00  0.00     0.219 HD
ENDBRANCH   5  17
BRANCH   1  19
HETATM   19  N1  UNL     1     -37.756  58.378   3.386  1.00  0.00    -0.386 N 
HETATM   20  C1  UNL     1     -37.274  57.466   2.377  1.00  0.00     0.149 C 
HETATM   21  C2  UNL     1     -37.732  59.803   3.168  1.00  0.00     0.149 C 
ENDBRANCH   1  19
TORSDOF 6
ENDMDL
MODEL 3
REMARK VINA RESULT: -8.241375093      3.126      6.457
REMARK  6 active torsions:
REMARK  status: ('A' for Active; 'I' for Inactive)
REMARK    1  A    between atoms: N1_2  and  C3_4 
REMARK    2  A    between atoms: C5_6  and  O1_7 
REMARK    3  A    between atoms: N2_9  and  C6_10 
REMARK    4  A    between atoms: C6_10  and  C7_11 
REMARK    5  A    between atoms: C7_11  and  C8_12 
REMARK    6  A    between atoms: C14_19  and  O2_20 
ROOT
HETATM    1  C3  UNL     1     -36.980  54.150   8.963  1.00  0.00     0.085 A 
HETATM    2  C4  UNL     1     -37.302  54.873  10.099  1.00  0.00     0.089 A 
HETATM    3  C5  UNL     1     -38.119  55.895   9.669  1.00  0.00     0.146 A 
HETATM    4  N2  UNL     1     -38.299  55.817   8.336  1.00  0.00    -0.307 N 
HETATM    5  C14 UNL     1     -37.610  54.756   7.882  1.00  0.00     0.171 A 
ENDROOT
BRANCH   4   6
HETATM    6  C6  UNL     1     -39.110  56.737   7.521  1.00  0.00     0.133 C 
BRANCH   6   7
HETATM    7  C7  UNL     1     -38.399  58.045   7.520  1.00  0.00     0.025 C 
BRANCH   7   8
HETATM    8  C8  UNL     1     -38.082  58.583   6.158  1.00  0.00    -0.010 C 
HETATM    9  C9  UNL     1     -36.600  58.502   5.862  1.00  0.00     0.005 C 
HETATM   10  C10 UNL     1     -36.271  57.449   4.835  1.00  0.00     0.003 C 
HETATM   11  C11 UNL     1     -36.978  57.732   3.525  1.00  0.00     0.037 C 
HETATM   12  C12 UNL     1     -38.327  58.353   3.707  1.00  0.00     0.170 C 
HETATM   13  F1  UNL     1     -38.313  59.725   3.564  1.00  0.00    -0.249 F 
HETATM   14  C13 UNL     1     -38.887  57.954   5.056  1.00  0.00     0.042 C 
ENDBRANCH   7   8
ENDBRANCH   6   7
ENDBRANCH   4   6
BRANCH   3  15
HETATM   15  O1  UNL     1     -38.688  56.879  10.482  1.00  0.00    -0.346 OA
ATOM     16  H1  UNL     1     -39.105  57.676  10.176  1.00  0.00     0.219 HD
ENDBRANCH   3  15
BRANCH   5  17
HETATM   17  O2  UNL     1     -37.550  54.345   6.544  1.00  0.00    -0.344 OA
ATOM     18  H2  UNL     1     -36.765  54.241   6.019  1.00  0.00     0.219 HD
ENDBRANCH   5  17
BRANCH   1  19
HETATM   19  N1  UNL     1     -36.157  53.001   8.914  1.00  0.00    -0.386 N 
HETATM   20  C1  UNL     1     -36.735  51.721   8.582  1.00  0.00     0.149 C 
HETATM   21  C2  UNL     1     -34.749  53.126   9.199  1.00  0.00     0.149 C 
ENDBRANCH   1  19
TORSDOF 6
ENDMDL
MODEL 4
REMARK VINA RESULT: -8.228115373      2.912      6.952
REMARK  6 active torsions:
REMARK  status: ('A' for Active; 'I' for Inactive)
REMARK    1  A    between atoms: N1_2  and  C3_4 
REMARK    2  A    between atoms: C5_6  and  O1_7 
REMARK    3  A    between atoms: N2_9  and  C6_10 
REMARK    4  A    between atoms: C6_10  and  C7_11 
REMARK    5  A    between atoms: C7_11  and  C8_12 
REMARK    6  A    between atoms: C14_19  and  O2_20 
ROOT
HETATM    1  C3  UNL     1     -37.869  56.003   7.427  1.00  0.00     0.085 A 
HETATM    2  C4  UNL     1     -38.794  56.839   8.030  1.00  0.00     0.089 A 
HETATM    3  C5  UNL     1     -38.760  58.012   7.309  1.00  0.00     0.146 A 
HETATM    4  N2  UNL     1     -37.863  57.916   6.308  1.00  0.00    -0.307 N 
HETATM    5  C14 UNL     1     -37.304  56.695   6.361  1.00  0.00     0.171 A 
ENDROOT
BRANCH   4   6
HETATM    6  C6  UNL     1     -37.550  58.970   5.328  1.00  0.00     0.133 C 
BRANCH   6   7
HETATM    7  C7  UNL     1     -38.615  58.917   4.289  1.00  0.00     0.025 C 
BRANCH   7   8
HETATM    8  C8  UNL     1     -38.156  58.433   2.948  1.00  0.00    -0.010 C 
HETATM    9  C9  UNL     1     -38.918  59.104   1.827  1.00  0.00     0.005 C 
HETATM   10  C10 UNL     1     -38.073  60.091   1.061  1.00  0.00     0.003 C 
HETATM   11  C11 UNL     1     -36.870  59.407   0.443  1.00  0.00     0.037 C 
HETATM   12  C12 UNL     1     -36.330  58.294   1.285  1.00  0.00     0.170 C 
HETATM   13  F1  UNL     1     -36.773  57.051   0.884  1.00  0.00    -0.249 F 
HETATM   14  C13 UNL     1     -36.673  58.549   2.737  1.00  0.00     0.042 C 
ENDBRANCH   7   8
ENDBRANCH   6   7
ENDBRANCH   4   6
BRANCH   3  15
HETATM   15  O1  UNL     1     -39.535  59.146   7.563  1.00  0.00    -0.346 OA
ATOM     16  H1  UNL     1     -40.309  59.175   8.113  1.00  0.00     0.219 HD
ENDBRANCH   3  15
BRANCH   5  17
HETATM   17  O2  UNL     1     -36.323  56.217   5.483  1.00  0.00    -0.344 OA
ATOM     18  H2  UNL     1     -36.445  55.575   4.793  1.00  0.00     0.219 HD
ENDBRANCH   5  17
BRANCH   1  19
HETATM   19  N1  UNL     1     -37.557  54.682   7.826  1.00  0.00    -0.386 N 
HETATM   20  C1  UNL     1     -36.994  54.444   9.133  1.00  0.00     0.149 C 
HETATM   21  C2  UNL     1     -37.806  53.591   6.917  1.00  0.00     0.149 C 
ENDBRANCH   1  19
TORSDOF 6
ENDMDL
MODEL 5
REMARK VINA RESULT: -8.162152323      2.987      6.983
REMARK  6 active torsions:
REMARK  status: ('A' for Active; 'I' for Inactive)
REMARK    1  A    between atoms: N1_2  and  C3_4 
REMARK    2  A    between atoms: C5_6  and  O1_7 
REMARK    3  A    between atoms: N2_9  and  C6_10 
REMARK    4  A    between atoms: C6_10  and  C7_11 
REMARK    5  A    between atoms: C7_11  and  C8_12 
REMARK    6  A    between atoms: C14_19  and  O2_20 
ROOT
HETATM    1  C3  UNL     1     -37.297  54.675   8.077  1.00  0.00     0.085 A 
HETATM    2  C4  UNL     1     -37.809  55.642   8.927  1.00  0.00     0.089 A 
HETATM    3  C5  UNL     1     -38.192  56.686   8.113  1.00  0.00     0.146 A 
HETATM    4  N2  UNL     1     -37.935  56.388   6.824  1.00  0.00    -0.307 N 
HETATM    5  C14 UNL     1     -37.386  55.162   6.778  1.00  0.00     0.171 A 
ENDROOT
BRANCH   4   6
HETATM    6  C6  UNL     1     -38.208  57.259   5.669  1.00  0.00     0.133 C 
BRANCH   6   7
HETATM    7  C7  UNL     1     -36.925  57.397   4.925  1.00  0.00     0.025 C 
BRANCH   7   8
HETATM    8  C8  UNL     1     -37.076  57.575   3.446  1.00  0.00    -0.010 C 
HETATM    9  C9  UNL     1     -38.464  58.057   3.086  1.00  0.00     0.005 C 
HETATM   10  C10 UNL     1     -38.478  59.494   2.626  1.00  0.00     0.003 C 
HETATM   11  C11 UNL     1     -37.605  59.678   1.401  1.00  0.00     0.037 C 
HETATM   12  C12 UNL     1     -36.397  58.795   1.403  1.00  0.00     0.170 C 
HETATM   13  F1  UNL     1     -36.564  57.651   0.650  1.00  0.00    -0.249 F 
HETATM   14  C13 UNL     1     -36.024  58.454   2.830  1.00  0.00     0.042 C 
ENDBRANCH   7   8
ENDBRANCH   6   7
ENDBRANCH   4   6
BRANCH   3  15
HETATM   15  O1  UNL     1     -38.765  57.885   8.543  1.00  0.00    -0.346 OA
ATOM     16  H1  UNL     1     -38.468  58.407   9.279  1.00  0.00     0.219 HD
ENDBRANCH   3  15
BRANCH   5  17
HETATM   17  O2  UNL     1     -36.981  54.502   5.610  1.00  0.00    -0.344 OA
ATOM     18  H2  UNL     1     -37.291  54.672   4.729  1.00  0.00     0.219 HD
ENDBRANCH   5  17
BRANCH   1  19
HETATM   19  N1  UNL     1     -36.779  53.418   8.465  1.00  0.00    -0.386 N 
HETATM   20  C1  UNL     1     -37.557  52.223   8.241  1.00  0.00     0.149 C 
HETATM   21  C2  UNL     1     -35.478  53.349   9.082  1.00  0.00     0.149 C 
ENDBRANCH   1  19
TORSDOF 6
ENDMDL
