MODEL 1
REMARK VINA RESULT: -8.178110032      0.000      0.000
REMARK  9 active torsions:
REMARK  status: ('A' for Active; 'I' for Inactive)
REMARK    1  A    between atoms: C2_2  and  C3_3 
REMARK    2  A    between atoms: C3_3  and  C4_4 
REMARK    3  A    between atoms: C4_4  and  C6_6 
REMARK    4  A    between atoms: C4_4  and  C7_9 
REMARK    5  A    between atoms: C8_10  and  O3_11 
REMARK    6  A    between atoms: C15_19  and  C16_20 
REMARK    7  A    between atoms: C16_20  and  O4_21 
REMARK    8  A    between atoms: O4_21  and  C17_22 
REMARK    9  A    between atoms: C19_24  and  O5_25 
ROOT
HETATM    1  C7  UNL     1     -24.737 -55.562 -12.381  1.00  0.00     0.042 C 
HETATM    2  C8  UNL     1     -25.358 -56.516 -13.382  1.00  0.00     0.124 C 
HETATM    3  C9  UNL     1     -24.659 -56.262 -14.748  1.00  0.00     0.038 C 
HETATM    4  C10 UNL     1     -23.976 -55.027 -14.463  1.00  0.00     0.006 C 
HETATM    5  C11 UNL     1     -23.473 -55.209 -13.033  1.00  0.00    -0.032 C 
HETATM    6  C12 UNL     1     -22.658 -56.528 -12.882  1.00  0.00     0.016 C 
HETATM    7  C13 UNL     1     -22.595 -54.194 -12.475  1.00  0.00     0.011 C 
HETATM    8  C14 UNL     1     -21.379 -53.777 -13.265  1.00  0.00     0.013 C 
HETATM    9  C15 UNL     1     -21.574 -52.705 -14.308  1.00  0.00    -0.008 C 
HETATM   10  C21 UNL     1     -23.052 -52.938 -14.542  1.00  0.00     0.023 C 
HETATM   11  C22 UNL     1     -23.096 -54.257 -15.280  1.00  0.00    -0.021 C 
HETATM   12  C23 UNL     1     -21.879 -55.015 -15.640  1.00  0.00     0.012 C 
HETATM   13  C24 UNL     1     -20.611 -54.263 -15.839  1.00  0.00     0.014 C 
HETATM   14  C25 UNL     1     -21.118 -52.819 -15.670  1.00  0.00     0.067 C 
HETATM   15  C26 UNL     1     -22.163 -52.865 -16.795  1.00  0.00     0.140 C 
HETATM   16  O6  UNL     1     -22.023 -52.284 -17.822  1.00  0.00    -0.297 OA
HETATM   17  C27 UNL     1     -23.452 -53.688 -16.621  1.00  0.00     0.021 C 
HETATM   18  C28 UNL     1     -23.675 -54.627 -17.737  1.00  0.00     0.024 C 
HETATM   19  C29 UNL     1     -24.665 -52.774 -16.596  1.00  0.00     0.024 C 
ENDROOT
BRANCH   9  20
HETATM   20  C16 UNL     1     -21.497 -51.342 -13.684  1.00  0.00     0.180 C 
BRANCH  20  21
HETATM   21  O4  UNL     1     -21.790 -51.031 -12.452  1.00  0.00    -0.358 OA
BRANCH  21  22
HETATM   22  C17 UNL     1     -20.827 -50.803 -11.516  1.00  0.00     0.323 C 
HETATM   23  C18 UNL     1     -19.427 -50.720 -12.008  1.00  0.00     0.094 C 
HETATM   24  C19 UNL     1     -18.946 -49.328 -11.833  1.00  0.00     0.148 C 
HETATM   25  C20 UNL     1     -20.247 -48.562 -11.681  1.00  0.00     0.267 C 
HETATM   26  N1  UNL     1     -21.118 -49.455 -10.937  1.00  0.00    -0.046 N 
ATOM     27  H12 UNL     1     -22.103 -49.194 -10.955  1.00  0.00     0.280 HD
ATOM     28  H11 UNL     1     -21.010 -49.401  -9.924  1.00  0.00     0.280 HD
BRANCH  24  29
HETATM   29  O5  UNL     1     -18.134 -49.186 -10.703  1.00  0.00    -0.394 OA
ATOM     30  H5  UNL     1     -17.210 -49.231 -10.916  1.00  0.00     0.210 HD
ENDBRANCH  24  29
ENDBRANCH  21  22
ENDBRANCH  20  21
ENDBRANCH   9  20
BRANCH   1  31
HETATM   31  C4  UNL     1     -25.697 -54.754 -11.712  1.00  0.00     0.054 C 
HETATM   32  C5  UNL     1     -25.972 -54.973 -10.239  1.00  0.00     0.027 C 
BRANCH  31  33
HETATM   33  C3  UNL     1     -27.096 -55.089 -12.328  1.00  0.00     0.047 C 
BRANCH  33  34
HETATM   34  C2  UNL     1     -28.184 -54.790 -11.359  1.00  0.00    -0.036 C 
HETATM   35  C1  UNL     1     -29.395 -54.371 -11.655  1.00  0.00     0.007 C 
ENDBRANCH  33  34
ENDBRANCH  31  33
BRANCH  31  36
HETATM   36  C6  UNL     1     -25.723 -53.265 -11.851  1.00  0.00     0.182 C 
HETATM   37  O1  UNL     1     -25.938 -52.649 -12.926  1.00  0.00    -0.647 OA
HETATM   38  O2  UNL     1     -25.499 -52.454 -10.748  1.00  0.00    -0.647 OA
ENDBRANCH  31  36
ENDBRANCH   1  31
BRANCH   2  39
HETATM   39  O3  UNL     1     -25.200 -57.866 -13.056  1.00  0.00    -0.395 OA
ATOM     40  H3  UNL     1     -25.677 -58.135 -12.279  1.00  0.00     0.210 HD
ENDBRANCH   2  39
TORSDOF 9
ENDMDL
MODEL 2
REMARK VINA RESULT: -8.014213666      2.201      4.962
REMARK  9 active torsions:
REMARK  status: ('A' for Active; 'I' for Inactive)
REMARK    1  A    between atoms: C2_2  and  C3_3 
REMARK    2  A    between atoms: C3_3  and  C4_4 
REMARK    3  A    between atoms: C4_4  and  C6_6 
REMARK    4  A    between atoms: C4_4  and  C7_9 
REMARK    5  A    between atoms: C8_10  and  O3_11 
REMARK    6  A    between atoms: C15_19  and  C16_20 
REMARK    7  A    between atoms: C16_20  and  O4_21 
REMARK    8  A    between atoms: O4_21  and  C17_22 
REMARK    9  A    between atoms: C19_24  and  O5_25 
ROOT
HETATM    1  C7  UNL     1     -19.746 -55.300 -15.284  1.00  0.00     0.042 C 
HETATM    2  C8  UNL     1     -20.376 -56.459 -16.031  1.00  0.00     0.124 C 
HETATM    3  C9  UNL     1     -21.905 -56.183 -16.097  1.00  0.00     0.038 C 
HETATM    4  C10 UNL     1     -22.015 -55.109 -15.144  1.00  0.00     0.006 C 
HETATM    5  C11 UNL     1     -20.772 -54.261 -15.406  1.00  0.00    -0.032 C 
HETATM    6  C12 UNL     1     -20.657 -53.873 -16.910  1.00  0.00     0.016 C 
HETATM    7  C13 UNL     1     -20.645 -52.990 -14.711  1.00  0.00     0.011 C 
HETATM    8  C14 UNL     1     -21.798 -52.019 -14.764  1.00  0.00     0.013 C 
HETATM    9  C15 UNL     1     -22.896 -52.202 -13.745  1.00  0.00    -0.008 C 
HETATM   10  C21 UNL     1     -22.668 -53.677 -13.487  1.00  0.00     0.023 C 
HETATM   11  C22 UNL     1     -23.153 -54.343 -14.754  1.00  0.00    -0.021 C 
HETATM   12  C23 UNL     1     -23.720 -53.587 -15.891  1.00  0.00     0.012 C 
HETATM   13  C24 UNL     1     -24.379 -52.283 -15.614  1.00  0.00     0.014 C 
HETATM   14  C25 UNL     1     -24.297 -52.254 -14.076  1.00  0.00     0.067 C 
HETATM   15  C26 UNL     1     -25.063 -53.564 -13.833  1.00  0.00     0.140 C 
HETATM   16  O6  UNL     1     -26.164 -53.587 -13.388  1.00  0.00    -0.297 OA
HETATM   17  C27 UNL     1     -24.411 -54.916 -14.172  1.00  0.00     0.021 C 
HETATM   18  C28 UNL     1     -25.262 -55.748 -15.042  1.00  0.00     0.024 C 
HETATM   19  C29 UNL     1     -24.186 -55.727 -12.907  1.00  0.00     0.024 C 
ENDROOT
BRANCH   9  20
HETATM   20  C16 UNL     1     -22.534 -51.528 -12.453  1.00  0.00     0.180 C 
BRANCH  20  21
HETATM   21  O4  UNL     1     -21.860 -50.420 -12.314  1.00  0.00    -0.358 OA
BRANCH  21  22
HETATM   22  C17 UNL     1     -20.874 -50.287 -11.385  1.00  0.00     0.323 C 
HETATM   23  C18 UNL     1     -19.481 -50.501 -11.856  1.00  0.00     0.094 C 
HETATM   24  C19 UNL     1     -18.757 -49.208 -11.794  1.00  0.00     0.148 C 
HETATM   25  C20 UNL     1     -19.899 -48.210 -11.732  1.00  0.00     0.267 C 
HETATM   26  N1  UNL     1     -20.918 -48.863 -10.930  1.00  0.00    -0.046 N 
ATOM     27  H12 UNL     1     -21.840 -48.431 -10.989  1.00  0.00     0.280 HD
ATOM     28  H11 UNL     1     -20.805 -48.740  -9.923  1.00  0.00     0.280 HD
BRANCH  24  29
HETATM   29  O5  UNL     1     -17.935 -49.115 -10.665  1.00  0.00    -0.394 OA
ATOM     30  H5  UNL     1     -17.046 -48.867 -10.887  1.00  0.00     0.210 HD
ENDBRANCH  24  29
ENDBRANCH  21  22
ENDBRANCH  20  21
ENDBRANCH   9  20
BRANCH   1  31
HETATM   31  C4  UNL     1     -18.966 -55.712 -14.169  1.00  0.00     0.054 C 
HETATM   32  C5  UNL     1     -18.391 -57.111 -14.127  1.00  0.00     0.027 C 
BRANCH  31  33
HETATM   33  C3  UNL     1     -19.917 -55.744 -12.926  1.00  0.00     0.047 C 
BRANCH  33  34
HETATM   34  C2  UNL     1     -20.184 -57.145 -12.504  1.00  0.00    -0.036 C 
HETATM   35  C1  UNL     1     -21.339 -57.771 -12.573  1.00  0.00     0.007 C 
ENDBRANCH  33  34
ENDBRANCH  31  33
BRANCH  31  36
HETATM   36  C6  UNL     1     -17.867 -54.867 -13.608  1.00  0.00     0.182 C 
HETATM   37  O1  UNL     1     -18.021 -53.970 -12.741  1.00  0.00    -0.647 OA
HETATM   38  O2  UNL     1     -16.560 -55.042 -14.041  1.00  0.00    -0.647 OA
ENDBRANCH  31  36
ENDBRANCH   1  31
BRANCH   2  39
HETATM   39  O3  UNL     1     -19.905 -56.619 -17.337  1.00  0.00    -0.395 OA
ATOM     40  H3  UNL     1     -20.511 -57.067 -17.915  1.00  0.00     0.210 HD
ENDBRANCH   2  39
TORSDOF 9
ENDMDL
MODEL 3
REMARK VINA RESULT: -7.832833243      1.304      1.550
REMARK  9 active torsions:
REMARK  status: ('A' for Active; 'I' for Inactive)
REMARK    1  A    between atoms: C2_2  and  C3_3 
REMARK    2  A    between atoms: C3_3  and  C4_4 
REMARK    3  A    between atoms: C4_4  and  C6_6 
REMARK    4  A    between atoms: C4_4  and  C7_9 
REMARK    5  A    between atoms: C8_10  and  O3_11 
REMARK    6  A    between atoms: C15_19  and  C16_20 
REMARK    7  A    between atoms: C16_20  and  O4_21 
REMARK    8  A    between atoms: O4_21  and  C17_22 
REMARK    9  A    between atoms: C19_24  and  O5_25 
ROOT
HETATM    1  C7  UNL     1     -25.625 -55.464 -12.805  1.00  0.00     0.042 C 
HETATM    2  C8  UNL     1     -26.677 -55.732 -13.863  1.00  0.00     0.124 C 
HETATM    3  C9  UNL     1     -25.997 -55.520 -15.246  1.00  0.00     0.038 C 
HETATM    4  C10 UNL     1     -24.779 -54.869 -14.838  1.00  0.00     0.006 C 
HETATM    5  C11 UNL     1     -24.380 -55.609 -13.563  1.00  0.00    -0.032 C 
HETATM    6  C12 UNL     1     -24.325 -57.148 -13.794  1.00  0.00     0.016 C 
HETATM    7  C13 UNL     1     -23.091 -55.304 -12.963  1.00  0.00     0.011 C 
HETATM    8  C14 UNL     1     -21.861 -55.340 -13.836  1.00  0.00     0.013 C 
HETATM    9  C15 UNL     1     -21.535 -54.088 -14.612  1.00  0.00    -0.008 C 
HETATM   10  C21 UNL     1     -22.940 -53.525 -14.657  1.00  0.00     0.023 C 
HETATM   11  C22 UNL     1     -23.665 -54.439 -15.618  1.00  0.00    -0.021 C 
HETATM   12  C23 UNL     1     -23.003 -55.572 -16.299  1.00  0.00     0.012 C 
HETATM   13  C24 UNL     1     -21.538 -55.493 -16.542  1.00  0.00     0.014 C 
HETATM   14  C25 UNL     1     -21.250 -54.071 -16.024  1.00  0.00     0.067 C 
HETATM   15  C26 UNL     1     -22.221 -53.340 -16.964  1.00  0.00     0.140 C 
HETATM   16  O6  UNL     1     -21.850 -52.668 -17.869  1.00  0.00    -0.297 OA
HETATM   17  C27 UNL     1     -23.741 -53.464 -16.754  1.00  0.00     0.021 C 
HETATM   18  C28 UNL     1     -24.445 -53.882 -17.981  1.00  0.00     0.024 C 
HETATM   19  C29 UNL     1     -24.334 -52.120 -16.369  1.00  0.00     0.024 C 
ENDROOT
BRANCH   9  20
HETATM   20  C16 UNL     1     -20.764 -53.123 -13.758  1.00  0.00     0.180 C 
BRANCH  20  21
HETATM   21  O4  UNL     1     -21.063 -51.873 -13.531  1.00  0.00    -0.358 OA
BRANCH  21  22
HETATM   22  C17 UNL     1     -21.144 -51.369 -12.269  1.00  0.00     0.323 C 
HETATM   23  C18 UNL     1     -20.654 -49.980 -12.075  1.00  0.00     0.094 C 
HETATM   24  C19 UNL     1     -21.812 -49.111 -11.749  1.00  0.00     0.148 C 
HETATM   25  C20 UNL     1     -22.980 -49.951 -12.229  1.00  0.00     0.267 C 
HETATM   26  N1  UNL     1     -22.600 -51.320 -11.932  1.00  0.00    -0.046 N 
ATOM     27  H12 UNL     1     -23.165 -52.026 -12.404  1.00  0.00     0.280 HD
ATOM     28  H11 UNL     1     -22.822 -51.622 -10.983  1.00  0.00     0.280 HD
BRANCH  24  29
HETATM   29  O5  UNL     1     -21.904 -48.844 -10.378  1.00  0.00    -0.394 OA
ATOM     30  H5  UNL     1     -22.607 -48.238 -10.176  1.00  0.00     0.210 HD
ENDBRANCH  24  29
ENDBRANCH  21  22
ENDBRANCH  20  21
ENDBRANCH   9  20
BRANCH   1  31
HETATM   31  C4  UNL     1     -26.027 -54.485 -11.854  1.00  0.00     0.054 C 
HETATM   32  C5  UNL     1     -25.918 -54.783 -10.374  1.00  0.00     0.027 C 
BRANCH  31  33
HETATM   33  C3  UNL     1     -27.573 -54.299 -12.007  1.00  0.00     0.047 C 
BRANCH  33  34
HETATM   34  C2  UNL     1     -28.285 -54.797 -10.799  1.00  0.00    -0.036 C 
HETATM   35  C1  UNL     1     -29.330 -55.595 -10.787  1.00  0.00     0.007 C 
ENDBRANCH  33  34
ENDBRANCH  31  33
BRANCH  31  36
HETATM   36  C6  UNL     1     -25.602 -53.055 -11.953  1.00  0.00     0.182 C 
HETATM   37  O1  UNL     1     -25.538 -52.397 -13.023  1.00  0.00    -0.647 OA
HETATM   38  O2  UNL     1     -25.240 -52.352 -10.813  1.00  0.00    -0.647 OA
ENDBRANCH  31  36
ENDBRANCH   1  31
BRANCH   2  39
HETATM   39  O3  UNL     1     -27.201 -57.027 -13.829  1.00  0.00    -0.395 OA
ATOM     40  H3  UNL     1     -28.089 -57.077 -13.494  1.00  0.00     0.210 HD
ENDBRANCH   2  39
TORSDOF 9
ENDMDL
MODEL 4
REMARK VINA RESULT: -7.783743923      2.902      5.614
REMARK  9 active torsions:
REMARK  status: ('A' for Active; 'I' for Inactive)
REMARK    1  A    between atoms: C2_2  and  C3_3 
REMARK    2  A    between atoms: C3_3  and  C4_4 
REMARK    3  A    between atoms: C4_4  and  C6_6 
REMARK    4  A    between atoms: C4_4  and  C7_9 
REMARK    5  A    between atoms: C8_10  and  O3_11 
REMARK    6  A    between atoms: C15_19  and  C16_20 
REMARK    7  A    between atoms: C16_20  and  O4_21 
REMARK    8  A    between atoms: O4_21  and  C17_22 
REMARK    9  A    between atoms: C19_24  and  O5_25 
ROOT
HETATM    1  C7  UNL     1     -24.587 -52.652 -12.208  1.00  0.00     0.042 C 
HETATM    2  C8  UNL     1     -23.746 -52.147 -11.053  1.00  0.00     0.124 C 
HETATM    3  C9  UNL     1     -22.260 -52.218 -11.505  1.00  0.00     0.038 C 
HETATM    4  C10 UNL     1     -22.389 -53.022 -12.693  1.00  0.00     0.006 C 
HETATM    5  C11 UNL     1     -23.671 -52.508 -13.343  1.00  0.00    -0.032 C 
HETATM    6  C12 UNL     1     -23.634 -50.962 -13.527  1.00  0.00     0.016 C 
HETATM    7  C13 UNL     1     -24.022 -53.005 -14.664  1.00  0.00     0.011 C 
HETATM    8  C14 UNL     1     -22.984 -52.951 -15.756  1.00  0.00     0.013 C 
HETATM    9  C15 UNL     1     -22.013 -54.103 -15.835  1.00  0.00    -0.008 C 
HETATM   10  C21 UNL     1     -22.112 -54.531 -14.386  1.00  0.00     0.023 C 
HETATM   11  C22 UNL     1     -21.399 -53.430 -13.635  1.00  0.00    -0.021 C 
HETATM   12  C23 UNL     1     -20.775 -52.273 -14.311  1.00  0.00     0.012 C 
HETATM   13  C24 UNL     1     -20.302 -52.443 -15.711  1.00  0.00     0.014 C 
HETATM   14  C25 UNL     1     -20.583 -53.943 -15.916  1.00  0.00     0.067 C 
HETATM   15  C26 UNL     1     -19.718 -54.447 -14.751  1.00  0.00     0.140 C 
HETATM   16  O6  UNL     1     -18.688 -55.013 -14.918  1.00  0.00    -0.297 OA
HETATM   17  C27 UNL     1     -20.172 -54.224 -13.297  1.00  0.00     0.021 C 
HETATM   18  C28 UNL     1     -19.131 -53.577 -12.476  1.00  0.00     0.024 C 
HETATM   19  C29 UNL     1     -20.469 -55.554 -12.625  1.00  0.00     0.024 C 
ENDROOT
BRANCH   9  20
HETATM   20  C16 UNL     1     -22.607 -55.242 -16.612  1.00  0.00     0.180 C 
BRANCH  20  21
HETATM   21  O4  UNL     1     -23.073 -55.196 -17.829  1.00  0.00    -0.358 OA
BRANCH  21  22
HETATM   22  C17 UNL     1     -24.354 -55.549 -18.126  1.00  0.00     0.323 C 
HETATM   23  C18 UNL     1     -25.330 -55.515 -17.007  1.00  0.00     0.094 C 
HETATM   24  C19 UNL     1     -26.307 -54.428 -17.265  1.00  0.00     0.148 C 
HETATM   25  C20 UNL     1     -25.573 -53.582 -18.287  1.00  0.00     0.267 C 
HETATM   26  N1  UNL     1     -24.849 -54.536 -19.108  1.00  0.00    -0.046 N 
ATOM     27  H12 UNL     1     -24.121 -54.123 -19.690  1.00  0.00     0.280 HD
ATOM     28  H11 UNL     1     -25.394 -54.928 -19.877  1.00  0.00     0.280 HD
BRANCH  24  29
HETATM   29  O5  UNL     1     -27.516 -54.913 -17.775  1.00  0.00    -0.394 OA
ATOM     30  H5  UNL     1     -28.211 -54.898 -17.128  1.00  0.00     0.210 HD
ENDBRANCH  24  29
ENDBRANCH  21  22
ENDBRANCH  20  21
ENDBRANCH   9  20
BRANCH   1  31
HETATM   31  C4  UNL     1     -25.455 -53.718 -11.843  1.00  0.00     0.054 C 
HETATM   32  C5  UNL     1     -24.968 -55.149 -11.924  1.00  0.00     0.027 C 
BRANCH  31  33
HETATM   33  C3  UNL     1     -26.622 -53.742 -12.884  1.00  0.00     0.047 C 
BRANCH  33  34
HETATM   34  C2  UNL     1     -26.854 -55.124 -13.384  1.00  0.00    -0.036 C 
HETATM   35  C1  UNL     1     -27.893 -55.536 -14.077  1.00  0.00     0.007 C 
ENDBRANCH  33  34
ENDBRANCH  31  33
BRANCH  31  36
HETATM   36  C6  UNL     1     -26.258 -53.696 -10.581  1.00  0.00     0.182 C 
HETATM   37  O1  UNL     1     -26.266 -54.612  -9.720  1.00  0.00    -0.647 OA
HETATM   38  O2  UNL     1     -27.071 -52.611 -10.288  1.00  0.00    -0.647 OA
ENDBRANCH  31  36
ENDBRANCH   1  31
BRANCH   2  39
HETATM   39  O3  UNL     1     -24.025 -50.829 -10.679  1.00  0.00    -0.395 OA
ATOM     40  H3  UNL     1     -23.273 -50.250 -10.711  1.00  0.00     0.210 HD
ENDBRANCH   2  39
TORSDOF 9
ENDMDL
MODEL 5
REMARK VINA RESULT: -7.743784041      2.455      4.049
REMARK  9 active torsions:
REMARK  status: ('A' for Active; 'I' for Inactive)
REMARK    1  A    between atoms: C2_2  and  C3_3 
REMARK    2  A    between atoms: C3_3  and  C4_4 
REMARK    3  A    between atoms: C4_4  and  C6_6 
REMARK    4  A    between atoms: C4_4  and  C7_9 
REMARK    5  A    between atoms: C8_10  and  O3_11 
REMARK    6  A    between atoms: C15_19  and  C16_20 
REMARK    7  A    between atoms: C16_20  and  O4_21 
REMARK    8  A    between atoms: O4_21  and  C17_22 
REMARK    9  A    between atoms: C19_24  and  O5_25 
ROOT
HETATM    1  C7  UNL     1     -23.534 -54.945 -14.804  1.00  0.00     0.042 C 
HETATM    2  C8  UNL     1     -23.487 -55.861 -16.011  1.00  0.00     0.124 C 
HETATM    3  C9  UNL     1     -22.006 -56.298 -16.196  1.00  0.00     0.038 C 
HETATM    4  C10 UNL     1     -21.351 -55.370 -15.311  1.00  0.00     0.006 C 
HETATM    5  C11 UNL     1     -22.290 -55.287 -14.110  1.00  0.00    -0.032 C 
HETATM    6  C12 UNL     1     -22.617 -56.701 -13.546  1.00  0.00     0.016 C 
HETATM    7  C13 UNL     1     -21.850 -54.543 -12.941  1.00  0.00     0.011 C 
HETATM    8  C14 UNL     1     -20.495 -54.852 -12.354  1.00  0.00     0.013 C 
HETATM    9  C15 UNL     1     -19.308 -54.146 -12.963  1.00  0.00    -0.008 C 
HETATM   10  C21 UNL     1     -19.922 -53.885 -14.322  1.00  0.00     0.023 C 
HETATM   11  C22 UNL     1     -19.972 -55.253 -14.963  1.00  0.00    -0.021 C 
HETATM   12  C23 UNL     1     -19.471 -56.471 -14.292  1.00  0.00     0.012 C 
HETATM   13  C24 UNL     1     -18.392 -56.327 -13.279  1.00  0.00     0.014 C 
HETATM   14  C25 UNL     1     -18.108 -54.817 -13.392  1.00  0.00     0.067 C 
HETATM   15  C26 UNL     1     -17.757 -54.815 -14.888  1.00  0.00     0.140 C 
HETATM   16  O6  UNL     1     -16.648 -54.659 -15.284  1.00  0.00    -0.297 OA
HETATM   17  C27 UNL     1     -18.860 -55.021 -15.942  1.00  0.00     0.021 C 
HETATM   18  C28 UNL     1     -18.534 -56.102 -16.891  1.00  0.00     0.024 C 
HETATM   19  C29 UNL     1     -19.033 -53.767 -16.780  1.00  0.00     0.024 C 
ENDROOT
BRANCH   9  20
HETATM   20  C16 UNL     1     -19.136 -52.784 -12.354  1.00  0.00     0.180 C 
BRANCH  20  21
HETATM   21  O4  UNL     1     -19.931 -51.760 -12.498  1.00  0.00    -0.358 OA
BRANCH  21  22
HETATM   22  C17 UNL     1     -20.637 -51.242 -11.456  1.00  0.00     0.323 C 
HETATM   23  C18 UNL     1     -20.289 -49.860 -11.036  1.00  0.00     0.094 C 
HETATM   24  C19 UNL     1     -21.433 -48.969 -11.348  1.00  0.00     0.148 C 
HETATM   25  C20 UNL     1     -22.207 -49.793 -12.360  1.00  0.00     0.267 C 
HETATM   26  N1  UNL     1     -22.059 -51.166 -11.911  1.00  0.00    -0.046 N 
ATOM     27  H12 UNL     1     -22.316 -51.866 -12.607  1.00  0.00     0.280 HD
ATOM     28  H11 UNL     1     -22.741 -51.455 -11.210  1.00  0.00     0.280 HD
BRANCH  24  29
HETATM   29  O5  UNL     1     -22.209 -48.688 -10.218  1.00  0.00    -0.394 OA
ATOM     30  H5  UNL     1     -21.990 -47.849  -9.831  1.00  0.00     0.210 HD
ENDBRANCH  24  29
ENDBRANCH  21  22
ENDBRANCH  20  21
ENDBRANCH   9  20
BRANCH   1  31
HETATM   31  C4  UNL     1     -24.128 -53.683 -15.083  1.00  0.00     0.054 C 
HETATM   32  C5  UNL     1     -25.071 -53.537 -16.258  1.00  0.00     0.027 C 
BRANCH  31  33
HETATM   33  C3  UNL     1     -22.975 -52.712 -15.506  1.00  0.00     0.047 C 
BRANCH  33  34
HETATM   34  C2  UNL     1     -23.047 -52.410 -16.960  1.00  0.00    -0.036 C 
HETATM   35  C1  UNL     1     -22.152 -52.736 -17.868  1.00  0.00     0.007 C 
ENDBRANCH  33  34
ENDBRANCH  31  33
BRANCH  31  36
HETATM   36  C6  UNL     1     -24.767 -52.849 -14.019  1.00  0.00     0.182 C 
HETATM   37  O1  UNL     1     -24.445 -51.665 -13.745  1.00  0.00    -0.647 OA
HETATM   38  O2  UNL     1     -25.795 -53.369 -13.246  1.00  0.00    -0.647 OA
ENDBRANCH  31  36
ENDBRANCH   1  31
BRANCH   2  39
HETATM   39  O3  UNL     1     -24.269 -57.012 -15.883  1.00  0.00    -0.395 OA
ATOM     40  H3  UNL     1     -23.773 -57.822 -15.915  1.00  0.00     0.210 HD
ENDBRANCH   2  39
TORSDOF 9
ENDMDL
