MODEL 1
REMARK VINA RESULT: -6.936331491      0.000      0.000
REMARK  7 active torsions:
REMARK  status: ('A' for Active; 'I' for Inactive)
REMARK    1  A    between atoms: C5_9  and  C6_10 
REMARK    2  A    between atoms: C6_10  and  N3_11 
REMARK    3  A    between atoms: N3_11  and  C7_13 
REMARK    4  A    between atoms: C7_13  and  C8_14 
REMARK    5  A    between atoms: N4_17  and  C11_18 
REMARK    6  A    between atoms: C12_21  and  N6_22 
REMARK    7  A    between atoms: C14_29  and  N8_30 
ROOT
HETATM    1  C8  UNL     1      -5.879  49.601 -12.475  1.00  0.00     0.118 C 
HETATM    2  C9  UNL     1      -4.566  49.037 -13.161  1.00  0.00     0.040 C 
HETATM    3  C10 UNL     1      -3.704  49.170 -11.917  1.00  0.00     0.135 C 
HETATM    4  N4  UNL     1      -4.595  48.590 -10.866  1.00  0.00    -0.301 N 
HETATM    5  C20 UNL     1      -5.921  48.595 -11.389  1.00  0.00     0.234 C 
HETATM    6  O2  UNL     1      -6.849  47.898 -10.991  1.00  0.00    -0.272 OA
ENDROOT
BRANCH   4   7
HETATM    7  C11 UNL     1      -4.033  48.236  -9.618  1.00  0.00     0.158 A 
HETATM    8  N5  UNL     1      -3.929  49.229  -8.654  1.00  0.00    -0.174 N 
HETATM    9  C12 UNL     1      -3.352  49.053  -7.481  1.00  0.00     0.680 A 
ATOM     10  H5  UNL     1      -4.322  50.147  -8.865  1.00  0.00     0.186 HD
HETATM   11  N7  UNL     1      -2.837  47.878  -7.179  1.00  0.00    -0.154 N 
HETATM   12  C13 UNL     1      -2.908  46.880  -8.071  1.00  0.00     0.290 A 
ATOM     13  H7  UNL     1      -2.388  47.729  -6.275  1.00  0.00     0.187 HD
HETATM   14  O1  UNL     1      -2.410  45.784  -7.772  1.00  0.00    -0.265 OA
HETATM   15  C14 UNL     1      -3.520  47.030  -9.336  1.00  0.00     0.145 A 
BRANCH   9  16
HETATM   16  N6  UNL     1      -3.335  50.077  -6.676  1.00  0.00    -0.234 N 
ATOM     17  H62 UNL     1      -3.622  50.033  -5.698  1.00  0.00     0.174 HD
ATOM     18  H61 UNL     1      -3.017  50.963  -7.069  1.00  0.00     0.174 HD
ENDBRANCH   9  16
BRANCH  15  19
HETATM   19  N8  UNL     1      -3.615  45.883 -10.136  1.00  0.00    -0.370 N 
HETATM   20  C15 UNL     1      -2.442  45.586 -10.993  1.00  0.00     0.153 C 
HETATM   21  C16 UNL     1      -2.817  44.854 -12.235  1.00  0.00     0.291 C 
HETATM   22  N9  UNL     1      -4.163  45.023 -12.675  1.00  0.00     0.087 N 
HETATM   23  C17 UNL     1      -4.438  44.075 -13.754  1.00  0.00     0.310 C 
HETATM   24  C18 UNL     1      -5.186  44.820 -11.695  1.00  0.00     0.291 C 
HETATM   25  C19 UNL     1      -4.683  44.941 -10.276  1.00  0.00     0.153 C 
ENDBRANCH  15  19
ENDBRANCH   4   7
BRANCH   1  26
HETATM   26  C7  UNL     1      -6.932  49.695 -13.454  1.00  0.00     0.070 C 
BRANCH  26  27
HETATM   27  N3  UNL     1      -7.507  50.916 -13.738  1.00  0.00    -0.397 N 
ATOM     28  H3  UNL     1      -8.400  51.185 -13.324  1.00  0.00     0.158 HD
BRANCH  27  29
HETATM   29  C6  UNL     1      -6.803  51.806 -14.643  1.00  0.00     0.161 C 
BRANCH  29  30
HETATM   30  C5  UNL     1      -6.361  53.020 -13.949  1.00  0.00     0.007 A 
HETATM   31  C2  UNL     1      -7.052  54.071 -13.444  1.00  0.00     0.032 A 
HETATM   32  C1  UNL     1      -8.506  54.290 -13.578  1.00  0.00     0.070 C 
HETATM   33  N1  UNL     1      -6.190  54.938 -12.822  1.00  0.00    -0.304 N 
HETATM   34  N2  UNL     1      -4.995  54.439 -12.936  1.00  0.00    -0.304 N 
ATOM     35  H1  UNL     1      -6.441  55.811 -12.357  1.00  0.00     0.186 HD
HETATM   36  C3  UNL     1      -5.033  53.258 -13.620  1.00  0.00     0.032 A 
ATOM     37  H2  UNL     1      -4.147  54.870 -12.567  1.00  0.00     0.186 HD
HETATM   38  C4  UNL     1      -3.823  52.457 -13.835  1.00  0.00     0.070 C 
ENDBRANCH  29  30
ENDBRANCH  27  29
ENDBRANCH  26  27
ENDBRANCH   1  26
TORSDOF 7
ENDMDL
MODEL 2
REMARK VINA RESULT: -6.922770181      1.211      1.956
REMARK  7 active torsions:
REMARK  status: ('A' for Active; 'I' for Inactive)
REMARK    1  A    between atoms: C5_9  and  C6_10 
REMARK    2  A    between atoms: C6_10  and  N3_11 
REMARK    3  A    between atoms: N3_11  and  C7_13 
REMARK    4  A    between atoms: C7_13  and  C8_14 
REMARK    5  A    between atoms: N4_17  and  C11_18 
REMARK    6  A    between atoms: C12_21  and  N6_22 
REMARK    7  A    between atoms: C14_29  and  N8_30 
ROOT
HETATM    1  C8  UNL     1      -5.501  48.525 -12.943  1.00  0.00     0.118 C 
HETATM    2  C9  UNL     1      -6.762  48.898 -12.056  1.00  0.00     0.040 C 
HETATM    3  C10 UNL     1      -6.297  48.119 -10.838  1.00  0.00     0.135 C 
HETATM    4  N4  UNL     1      -4.865  48.534 -10.739  1.00  0.00    -0.301 N 
HETATM    5  C20 UNL     1      -4.495  49.075 -12.005  1.00  0.00     0.234 C 
HETATM    6  O2  UNL     1      -3.548  49.826 -12.212  1.00  0.00    -0.272 OA
ENDROOT
BRANCH   4   7
HETATM    7  C11 UNL     1      -4.163  48.275  -9.540  1.00  0.00     0.158 A 
HETATM    8  N5  UNL     1      -4.110  49.287  -8.592  1.00  0.00    -0.174 N 
HETATM    9  C12 UNL     1      -3.422  49.203  -7.469  1.00  0.00     0.680 A 
ATOM     10  H5  UNL     1      -4.633  50.144  -8.775  1.00  0.00     0.186 HD
HETATM   11  N7  UNL     1      -2.738  48.108  -7.205  1.00  0.00    -0.154 N 
HETATM   12  C13 UNL     1      -2.752  47.096  -8.084  1.00  0.00     0.290 A 
ATOM     13  H7  UNL     1      -2.202  48.032  -6.341  1.00  0.00     0.187 HD
HETATM   14  O1  UNL     1      -2.096  46.078  -7.822  1.00  0.00    -0.265 OA
HETATM   15  C14 UNL     1      -3.479  47.148  -9.295  1.00  0.00     0.145 A 
BRANCH   9  16
HETATM   16  N6  UNL     1      -3.471  50.234  -6.674  1.00  0.00    -0.234 N 
ATOM     17  H62 UNL     1      -2.724  50.924  -6.595  1.00  0.00     0.174 HD
ATOM     18  H61 UNL     1      -4.311  50.334  -6.104  1.00  0.00     0.174 HD
ENDBRANCH   9  16
BRANCH  15  19
HETATM   19  N8  UNL     1      -3.490  45.986 -10.079  1.00  0.00    -0.370 N 
HETATM   20  C15 UNL     1      -2.378  45.843 -11.050  1.00  0.00     0.153 C 
HETATM   21  C16 UNL     1      -2.769  45.046 -12.246  1.00  0.00     0.291 C 
HETATM   22  N9  UNL     1      -4.162  45.017 -12.548  1.00  0.00     0.087 N 
HETATM   23  C17 UNL     1      -4.406  44.023 -13.592  1.00  0.00     0.310 C 
HETATM   24  C18 UNL     1      -5.043  44.688 -11.469  1.00  0.00     0.291 C 
HETATM   25  C19 UNL     1      -4.422  44.902 -10.109  1.00  0.00     0.153 C 
ENDBRANCH  15  19
ENDBRANCH   4   7
BRANCH   1  26
HETATM   26  C7  UNL     1      -5.667  49.064 -14.268  1.00  0.00     0.070 C 
BRANCH  26  27
HETATM   27  N3  UNL     1      -4.746  49.958 -14.773  1.00  0.00    -0.397 N 
ATOM     28  H3  UNL     1      -3.746  49.764 -14.728  1.00  0.00     0.158 HD
BRANCH  27  29
HETATM   29  C6  UNL     1      -5.244  51.184 -15.372  1.00  0.00     0.161 C 
BRANCH  29  30
HETATM   30  C5  UNL     1      -5.311  52.263 -14.382  1.00  0.00     0.007 A 
HETATM   31  C2  UNL     1      -4.366  53.114 -13.912  1.00  0.00     0.032 A 
HETATM   32  C1  UNL     1      -2.928  53.073 -14.245  1.00  0.00     0.070 C 
HETATM   33  N1  UNL     1      -4.934  54.001 -13.033  1.00  0.00    -0.304 N 
HETATM   34  N2  UNL     1      -6.200  53.711 -12.960  1.00  0.00    -0.304 N 
ATOM     35  H1  UNL     1      -4.453  54.748 -12.532  1.00  0.00     0.186 HD
HETATM   36  C3  UNL     1      -6.494  52.650 -13.768  1.00  0.00     0.032 A 
ATOM     37  H2  UNL     1      -6.878  54.206 -12.380  1.00  0.00     0.186 HD
HETATM   38  C4  UNL     1      -7.869  52.158 -13.915  1.00  0.00     0.070 C 
ENDBRANCH  29  30
ENDBRANCH  27  29
ENDBRANCH  26  27
ENDBRANCH   1  26
TORSDOF 7
ENDMDL
MODEL 3
REMARK VINA RESULT: -6.913742476      0.048      1.433
REMARK  7 active torsions:
REMARK  status: ('A' for Active; 'I' for Inactive)
REMARK    1  A    between atoms: C5_9  and  C6_10 
REMARK    2  A    between atoms: C6_10  and  N3_11 
REMARK    3  A    between atoms: N3_11  and  C7_13 
REMARK    4  A    between atoms: C7_13  and  C8_14 
REMARK    5  A    between atoms: N4_17  and  C11_18 
REMARK    6  A    between atoms: C12_21  and  N6_22 
REMARK    7  A    between atoms: C14_29  and  N8_30 
ROOT
HETATM    1  C8  UNL     1      -5.893  49.609 -12.486  1.00  0.00     0.118 C 
HETATM    2  C9  UNL     1      -4.573  49.056 -13.168  1.00  0.00     0.040 C 
HETATM    3  C10 UNL     1      -3.718  49.189 -11.920  1.00  0.00     0.135 C 
HETATM    4  N4  UNL     1      -4.609  48.599 -10.875  1.00  0.00    -0.301 N 
HETATM    5  C20 UNL     1      -5.933  48.599 -11.404  1.00  0.00     0.234 C 
HETATM    6  O2  UNL     1      -6.858  47.894 -11.013  1.00  0.00    -0.272 OA
ENDROOT
BRANCH   4   7
HETATM    7  C11 UNL     1      -4.051  48.244  -9.626  1.00  0.00     0.158 A 
HETATM    8  N5  UNL     1      -3.938  49.238  -8.666  1.00  0.00    -0.174 N 
HETATM    9  C12 UNL     1      -3.362  49.060  -7.491  1.00  0.00     0.680 A 
ATOM     10  H5  UNL     1      -4.322  50.159  -8.879  1.00  0.00     0.186 HD
HETATM   11  N7  UNL     1      -2.858  47.881  -7.186  1.00  0.00    -0.154 N 
HETATM   12  C13 UNL     1      -2.939  46.881  -8.075  1.00  0.00     0.290 A 
ATOM     13  H7  UNL     1      -2.411  47.731  -6.282  1.00  0.00     0.187 HD
HETATM   14  O1  UNL     1      -2.451  45.782  -7.773  1.00  0.00    -0.265 OA
HETATM   15  C14 UNL     1      -3.549  47.033  -9.341  1.00  0.00     0.145 A 
BRANCH   9  16
HETATM   16  N6  UNL     1      -3.335  50.086  -6.690  1.00  0.00    -0.234 N 
ATOM     17  H62 UNL     1      -4.120  50.725  -6.563  1.00  0.00     0.174 HD
ATOM     18  H61 UNL     1      -2.470  50.243  -6.174  1.00  0.00     0.174 HD
ENDBRANCH   9  16
BRANCH  15  19
HETATM   19  N8  UNL     1      -3.655  45.885 -10.137  1.00  0.00    -0.370 N 
HETATM   20  C15 UNL     1      -2.495  45.589 -11.011  1.00  0.00     0.153 C 
HETATM   21  C16 UNL     1      -2.888  44.854 -12.247  1.00  0.00     0.291 C 
HETATM   22  N9  UNL     1      -4.241  45.021 -12.667  1.00  0.00     0.087 N 
HETATM   23  C17 UNL     1      -4.530  44.071 -13.740  1.00  0.00     0.310 C 
HETATM   24  C18 UNL     1      -5.248  44.818 -11.671  1.00  0.00     0.291 C 
HETATM   25  C19 UNL     1      -4.724  44.942 -10.260  1.00  0.00     0.153 C 
ENDBRANCH  15  19
ENDBRANCH   4   7
BRANCH   1  26
HETATM   26  C7  UNL     1      -6.942  49.701 -13.469  1.00  0.00     0.070 C 
BRANCH  26  27
HETATM   27  N3  UNL     1      -7.530  50.918 -13.743  1.00  0.00    -0.397 N 
ATOM     28  H3  UNL     1      -8.426  51.174 -13.330  1.00  0.00     0.158 HD
BRANCH  27  29
HETATM   29  C6  UNL     1      -6.833  51.823 -14.640  1.00  0.00     0.161 C 
BRANCH  29  30
HETATM   30  C5  UNL     1      -6.281  52.968 -13.907  1.00  0.00     0.007 A 
HETATM   31  C2  UNL     1      -5.008  53.303 -13.586  1.00  0.00     0.032 A 
HETATM   32  C1  UNL     1      -3.811  52.476 -13.836  1.00  0.00     0.070 C 
HETATM   33  N1  UNL     1      -4.994  54.515 -12.945  1.00  0.00    -0.304 N 
HETATM   34  N2  UNL     1      -6.226  54.924 -12.870  1.00  0.00    -0.304 N 
ATOM     35  H1  UNL     1      -4.171  55.004 -12.592  1.00  0.00     0.186 HD
HETATM   36  C3  UNL     1      -7.067  54.016 -13.446  1.00  0.00     0.032 A 
ATOM     37  H2  UNL     1      -6.523  55.801 -12.441  1.00  0.00     0.186 HD
HETATM   38  C4  UNL     1      -8.509  54.264 -13.549  1.00  0.00     0.070 C 
ENDBRANCH  29  30
ENDBRANCH  27  29
ENDBRANCH  26  27
ENDBRANCH   1  26
TORSDOF 7
ENDMDL
MODEL 4
REMARK VINA RESULT: -6.814961482      1.450      1.730
REMARK  7 active torsions:
REMARK  status: ('A' for Active; 'I' for Inactive)
REMARK    1  A    between atoms: C5_9  and  C6_10 
REMARK    2  A    between atoms: C6_10  and  N3_11 
REMARK    3  A    between atoms: N3_11  and  C7_13 
REMARK    4  A    between atoms: C7_13  and  C8_14 
REMARK    5  A    between atoms: N4_17  and  C11_18 
REMARK    6  A    between atoms: C12_21  and  N6_22 
REMARK    7  A    between atoms: C14_29  and  N8_30 
ROOT
HETATM    1  C8  UNL     1      -5.477  48.434 -12.874  1.00  0.00     0.118 C 
HETATM    2  C9  UNL     1      -6.727  48.613 -11.915  1.00  0.00     0.040 C 
HETATM    3  C10 UNL     1      -6.085  47.909 -10.733  1.00  0.00     0.135 C 
HETATM    4  N4  UNL     1      -4.726  48.532 -10.708  1.00  0.00    -0.301 N 
HETATM    5  C20 UNL     1      -4.512  49.125 -11.987  1.00  0.00     0.234 C 
HETATM    6  O2  UNL     1      -3.700  50.009 -12.237  1.00  0.00    -0.272 OA
ENDROOT
BRANCH   4   7
HETATM    7  C11 UNL     1      -3.928  48.377  -9.552  1.00  0.00     0.158 A 
HETATM    8  N5  UNL     1      -4.205  49.192  -8.464  1.00  0.00    -0.174 N 
HETATM    9  C12 UNL     1      -3.486  49.204  -7.357  1.00  0.00     0.680 A 
ATOM     10  H5  UNL     1      -5.010  49.816  -8.523  1.00  0.00     0.186 HD
HETATM   11  N7  UNL     1      -2.441  48.408  -7.250  1.00  0.00    -0.154 N 
HETATM   12  C13 UNL     1      -2.126  47.597  -8.270  1.00  0.00     0.290 A 
ATOM     13  H7  UNL     1      -1.878  48.409  -6.400  1.00  0.00     0.187 HD
HETATM   14  O1  UNL     1      -1.134  46.862  -8.154  1.00  0.00    -0.265 OA
HETATM   15  C14 UNL     1      -2.872  47.554  -9.469  1.00  0.00     0.145 A 
BRANCH   9  16
HETATM   16  N6  UNL     1      -3.871  50.020  -6.418  1.00  0.00    -0.234 N 
ATOM     17  H62 UNL     1      -3.506  50.966  -6.305  1.00  0.00     0.174 HD
ATOM     18  H61 UNL     1      -4.574  49.672  -5.766  1.00  0.00     0.174 HD
ENDBRANCH   9  16
BRANCH  15  19
HETATM   19  N8  UNL     1      -2.496  46.594 -10.418  1.00  0.00    -0.370 N 
HETATM   20  C15 UNL     1      -1.482  47.021 -11.412  1.00  0.00     0.153 C 
HETATM   21  C16 UNL     1      -1.621  46.302 -12.709  1.00  0.00     0.291 C 
HETATM   22  N9  UNL     1      -2.917  45.779 -12.996  1.00  0.00     0.087 N 
HETATM   23  C17 UNL     1      -2.836  44.916 -14.174  1.00  0.00     0.310 C 
HETATM   24  C18 UNL     1      -3.531  44.995 -11.968  1.00  0.00     0.291 C 
HETATM   25  C19 UNL     1      -2.947  45.248 -10.598  1.00  0.00     0.153 C 
ENDBRANCH  15  19
ENDBRANCH   4   7
BRANCH   1  26
HETATM   26  C7  UNL     1      -5.795  48.945 -14.182  1.00  0.00     0.070 C 
BRANCH  26  27
HETATM   27  N3  UNL     1      -4.942  49.831 -14.806  1.00  0.00    -0.397 N 
ATOM     28  H3  UNL     1      -3.933  49.677 -14.808  1.00  0.00     0.158 HD
BRANCH  27  29
HETATM   29  C6  UNL     1      -5.523  50.990 -15.461  1.00  0.00     0.161 C 
BRANCH  29  30
HETATM   30  C5  UNL     1      -5.891  52.017 -14.482  1.00  0.00     0.007 A 
HETATM   31  C2  UNL     1      -7.072  52.310 -13.885  1.00  0.00     0.032 A 
HETATM   32  C1  UNL     1      -8.371  51.675 -14.186  1.00  0.00     0.070 C 
HETATM   33  N1  UNL     1      -6.897  53.328 -12.983  1.00  0.00    -0.304 N 
HETATM   34  N2  UNL     1      -5.640  53.659 -13.015  1.00  0.00    -0.304 N 
ATOM     35  H1  UNL     1      -7.619  53.747 -12.395  1.00  0.00     0.186 HD
HETATM   36  C3  UNL     1      -4.967  52.887 -13.918  1.00  0.00     0.032 A 
ATOM     37  H2  UNL     1      -5.216  54.391 -12.446  1.00  0.00     0.186 HD
HETATM   38  C4  UNL     1      -3.518  53.016 -14.108  1.00  0.00     0.070 C 
ENDBRANCH  29  30
ENDBRANCH  27  29
ENDBRANCH  26  27
ENDBRANCH   1  26
TORSDOF 7
ENDMDL
MODEL 5
REMARK VINA RESULT: -6.765440493      1.504      2.390
REMARK  7 active torsions:
REMARK  status: ('A' for Active; 'I' for Inactive)
REMARK    1  A    between atoms: C5_9  and  C6_10 
REMARK    2  A    between atoms: C6_10  and  N3_11 
REMARK    3  A    between atoms: N3_11  and  C7_13 
REMARK    4  A    between atoms: C7_13  and  C8_14 
REMARK    5  A    between atoms: N4_17  and  C11_18 
REMARK    6  A    between atoms: C12_21  and  N6_22 
REMARK    7  A    between atoms: C14_29  and  N8_30 
ROOT
HETATM    1  C8  UNL     1      -5.709  49.023 -13.187  1.00  0.00     0.118 C 
HETATM    2  C9  UNL     1      -6.912  49.208 -12.171  1.00  0.00     0.040 C 
HETATM    3  C10 UNL     1      -6.281  48.372 -11.071  1.00  0.00     0.135 C 
HETATM    4  N4  UNL     1      -4.883  48.900 -11.050  1.00  0.00    -0.301 N 
HETATM    5  C20 UNL     1      -4.671  49.577 -12.286  1.00  0.00     0.234 C 
HETATM    6  O2  UNL     1      -3.808  50.423 -12.498  1.00  0.00    -0.272 OA
ENDROOT
BRANCH   4   7
HETATM    7  C11 UNL     1      -4.060  48.602  -9.940  1.00  0.00     0.158 A 
HETATM    8  N5  UNL     1      -4.213  49.376  -8.798  1.00  0.00    -0.174 N 
HETATM    9  C12 UNL     1      -3.454  49.254  -7.725  1.00  0.00     0.680 A 
ATOM     10  H5  UNL     1      -4.953  50.078  -8.788  1.00  0.00     0.186 HD
HETATM   11  N7  UNL     1      -2.490  48.356  -7.707  1.00  0.00    -0.154 N 
HETATM   12  C13 UNL     1      -2.297  47.578  -8.782  1.00  0.00     0.290 A 
ATOM     13  H7  UNL     1      -1.898  48.253  -6.884  1.00  0.00     0.187 HD
HETATM   14  O1  UNL     1      -1.380  46.744  -8.750  1.00  0.00    -0.265 OA
HETATM   15  C14 UNL     1      -3.090  47.677  -9.948  1.00  0.00     0.145 A 
BRANCH   9  16
HETATM   16  N6  UNL     1      -3.720  50.048  -6.727  1.00  0.00    -0.234 N 
ATOM     17  H62 UNL     1      -3.628  51.063  -6.772  1.00  0.00     0.174 HD
ATOM     18  H61 UNL     1      -4.032  49.609  -5.861  1.00  0.00     0.174 HD
ENDBRANCH   9  16
BRANCH  15  19
HETATM   19  N8  UNL     1      -2.847  46.741 -10.962  1.00  0.00    -0.370 N 
HETATM   20  C15 UNL     1      -3.659  45.501 -10.914  1.00  0.00     0.153 C 
HETATM   21  C16 UNL     1      -2.950  44.334 -11.510  1.00  0.00     0.291 C 
HETATM   22  N9  UNL     1      -1.525  44.411 -11.522  1.00  0.00     0.087 N 
HETATM   23  C17 UNL     1      -0.993  43.318 -12.334  1.00  0.00     0.310 C 
HETATM   24  C18 UNL     1      -0.955  45.614 -12.048  1.00  0.00     0.291 C 
HETATM   25  C19 UNL     1      -1.917  46.778 -12.049  1.00  0.00     0.153 C 
ENDBRANCH  15  19
ENDBRANCH   4   7
BRANCH   1  26
HETATM   26  C7  UNL     1      -6.033  49.657 -14.439  1.00  0.00     0.070 C 
BRANCH  26  27
HETATM   27  N3  UNL     1      -5.142  50.531 -15.025  1.00  0.00    -0.397 N 
ATOM     28  H3  UNL     1      -4.159  50.282 -15.138  1.00  0.00     0.158 HD
BRANCH  27  29
HETATM   29  C6  UNL     1      -5.646  51.816 -15.476  1.00  0.00     0.161 C 
BRANCH  29  30
HETATM   30  C5  UNL     1      -5.590  52.810 -14.399  1.00  0.00     0.007 A 
HETATM   31  C2  UNL     1      -4.570  53.559 -13.916  1.00  0.00     0.032 A 
HETATM   32  C1  UNL     1      -3.156  53.461 -14.333  1.00  0.00     0.070 C 
HETATM   33  N1  UNL     1      -5.033  54.400 -12.937  1.00  0.00    -0.304 N 
HETATM   34  N2  UNL     1      -6.309  54.182 -12.815  1.00  0.00    -0.304 N 
ATOM     35  H1  UNL     1      -4.479  55.072 -12.404  1.00  0.00     0.186 HD
HETATM   36  C3  UNL     1      -6.713  53.214 -13.689  1.00  0.00     0.032 A 
ATOM     37  H2  UNL     1      -6.922  54.666 -12.159  1.00  0.00     0.186 HD
HETATM   38  C4  UNL     1      -8.122  52.819 -13.797  1.00  0.00     0.070 C 
ENDBRANCH  29  30
ENDBRANCH  27  29
ENDBRANCH  26  27
ENDBRANCH   1  26
TORSDOF 7
ENDMDL
