MODEL 1
REMARK VINA RESULT: -5.857335859      0.000      0.000
REMARK  7 active torsions:
REMARK  status: ('A' for Active; 'I' for Inactive)
REMARK    1  A    between atoms: C2_2  and  C3_3 
REMARK    2  A    between atoms: C3_3  and  N1_5 
REMARK    3  A    between atoms: N1_5  and  C5_7 
REMARK    4  A    between atoms: C7_13  and  N4_14 
REMARK    5  A    between atoms: N4_14  and  C8_16 
REMARK    6  A    between atoms: C11_21  and  N6_22 
REMARK    7  A    between atoms: C14_25  and  N7_26 
ROOT
HETATM    1  C5  UNL     1      -2.993   9.348   9.661  1.00  0.00     0.681 A 
HETATM    2  N2  UNL     1      -3.461   8.126  10.000  1.00  0.00    -0.175 N 
ATOM      3  H2  UNL     1      -2.892   7.304   9.804  1.00  0.00     0.186 HD
HETATM    4  C6  UNL     1      -4.649   7.969  10.584  1.00  0.00     0.153 A 
HETATM    5  N3  UNL     1      -5.114   6.745  10.904  1.00  0.00    -0.175 N 
ATOM      6  H3  UNL     1      -4.545   5.922  10.706  1.00  0.00     0.186 HD
HETATM    7  C7  UNL     1      -6.314   6.597  11.478  1.00  0.00     0.681 A 
HETATM    8  N5  UNL     1      -7.065   7.668  11.741  1.00  0.00    -0.176 N 
ATOM      9  H5  UNL     1      -7.976   7.529  12.178  1.00  0.00     0.186 HD
HETATM   10  C11 UNL     1      -6.656   8.976  11.441  1.00  0.00     0.136 A 
HETATM   11  C17 UNL     1      -5.434   9.105  10.854  1.00  0.00     0.093 A 
HETATM   12  C18 UNL     1      -4.943  10.335  10.500  1.00  0.00     0.137 A 
HETATM   13 CL1  UNL     1      -5.873  11.791  10.726  1.00  0.00    -0.063 Cl
HETATM   14  N8  UNL     1      -3.723  10.429   9.908  1.00  0.00    -0.180 N 
ATOM     15  H8  UNL     1      -3.361  11.347   9.649  1.00  0.00     0.185 HD
ENDROOT
BRANCH  10  16
HETATM   16  N6  UNL     1      -7.556   9.963  11.881  1.00  0.00    -0.364 N 
HETATM   17  C12 UNL     1      -7.725  10.453  13.217  1.00  0.00     0.126 C 
HETATM   18  C13 UNL     1      -9.235  10.840  13.261  1.00  0.00     0.054 C 
HETATM   19  C14 UNL     1      -9.355  11.464  11.902  1.00  0.00     0.204 C 
HETATM   20  C16 UNL     1      -8.576  10.528  11.032  1.00  0.00     0.157 C 
BRANCH  19  21
HETATM   21  N7  UNL     1     -10.727  11.641  11.484  1.00  0.00    -0.073 N 
HETATM   22  C15 UNL     1     -11.438  10.427  11.790  1.00  0.00     0.267 C 
ATOM     23  H72 UNL     1     -11.163  12.468  11.892  1.00  0.00     0.277 HD
ATOM     24  H71 UNL     1     -10.811  11.913  10.504  1.00  0.00     0.277 HD
ENDBRANCH  19  21
ENDBRANCH  10  16
BRANCH   7  25
HETATM   25  N4  UNL     1      -6.764   5.459  11.779  1.00  0.00    -0.222 N 
ATOM     26  H4  UNL     1      -6.289   4.694  11.299  1.00  0.00     0.178 HD
BRANCH  25  27
HETATM   27  C8  UNL     1      -7.790   5.032  12.643  1.00  0.00     0.091 C 
HETATM   28  C9  UNL     1      -7.334   4.127  13.782  1.00  0.00     0.032 C 
HETATM   29  C10 UNL     1      -8.998   4.415  11.983  1.00  0.00     0.032 C 
ENDBRANCH  25  27
ENDBRANCH   7  25
BRANCH   1  30
HETATM   30  N1  UNL     1      -1.853   9.452   9.110  1.00  0.00    -0.222 N 
ATOM     31  H1  UNL     1      -1.359  10.342   9.189  1.00  0.00     0.178 HD
BRANCH  30  32
HETATM   32  C3  UNL     1      -1.221   8.388   8.382  1.00  0.00     0.095 C 
HETATM   33  C4  UNL     1      -1.919   8.302   7.029  1.00  0.00     0.032 C 
BRANCH  32  34
HETATM   34  C2  UNL     1       0.265   8.616   8.194  1.00  0.00     0.021 C 
HETATM   35  C1  UNL     1       1.075   7.784   9.154  1.00  0.00     0.007 C 
ENDBRANCH  32  34
ENDBRANCH  30  32
ENDBRANCH   1  30
TORSDOF 7
ENDMDL
MODEL 2
REMARK VINA RESULT: -5.824392202      0.895      1.413
REMARK  7 active torsions:
REMARK  status: ('A' for Active; 'I' for Inactive)
REMARK    1  A    between atoms: C2_2  and  C3_3 
REMARK    2  A    between atoms: C3_3  and  N1_5 
REMARK    3  A    between atoms: N1_5  and  C5_7 
REMARK    4  A    between atoms: C7_13  and  N4_14 
REMARK    5  A    between atoms: N4_14  and  C8_16 
REMARK    6  A    between atoms: C11_21  and  N6_22 
REMARK    7  A    between atoms: C14_25  and  N7_26 
ROOT
HETATM    1  C5  UNL     1      -2.679   8.073  10.288  1.00  0.00     0.681 A 
HETATM    2  N2  UNL     1      -3.436   6.988  10.568  1.00  0.00    -0.175 N 
ATOM      3  H2  UNL     1      -3.037   6.058  10.442  1.00  0.00     0.186 HD
HETATM    4  C6  UNL     1      -4.690   7.102  11.004  1.00  0.00     0.153 A 
HETATM    5  N3  UNL     1      -5.442   6.014  11.266  1.00  0.00    -0.175 N 
ATOM      6  H3  UNL     1      -5.043   5.084  11.138  1.00  0.00     0.186 HD
HETATM    7  C7  UNL     1      -6.704   6.140  11.691  1.00  0.00     0.681 A 
HETATM    8  N5  UNL     1      -7.234   7.352  11.861  1.00  0.00    -0.176 N 
ATOM      9  H5  UNL     1      -8.198   7.422  12.186  1.00  0.00     0.186 HD
HETATM   10  C11 UNL     1      -6.520   8.535  11.614  1.00  0.00     0.136 A 
HETATM   11  C17 UNL     1      -5.240   8.386  11.178  1.00  0.00     0.093 A 
HETATM   12  C18 UNL     1      -4.458   9.473  10.886  1.00  0.00     0.137 A 
HETATM   13 CL1  UNL     1      -5.074  11.099  10.999  1.00  0.00    -0.063 Cl
HETATM   14  N8  UNL     1      -3.184   9.290  10.446  1.00  0.00    -0.180 N 
ATOM     15  H8  UNL     1      -2.606  10.103  10.232  1.00  0.00     0.185 HD
ENDROOT
BRANCH  10  16
HETATM   16  N6  UNL     1      -7.234   9.702  11.942  1.00  0.00    -0.364 N 
HETATM   17  C12 UNL     1      -7.285  10.362  13.213  1.00  0.00     0.126 C 
HETATM   18  C13 UNL     1      -8.708  10.999  13.222  1.00  0.00     0.054 C 
HETATM   19  C14 UNL     1      -8.758  11.476  11.800  1.00  0.00     0.204 C 
HETATM   20  C16 UNL     1      -8.168  10.330  11.040  1.00  0.00     0.157 C 
BRANCH  19  21
HETATM   21  N7  UNL     1     -10.093  11.831  11.373  1.00  0.00    -0.073 N 
HETATM   22  C15 UNL     1     -10.962  10.729  11.691  1.00  0.00     0.267 C 
ATOM     23  H72 UNL     1     -10.413  12.715  11.768  1.00  0.00     0.277 HD
ATOM     24  H71 UNL     1     -10.136  12.099  10.389  1.00  0.00     0.277 HD
ENDBRANCH  19  21
ENDBRANCH  10  16
BRANCH   7  25
HETATM   25  N4  UNL     1      -7.420   5.132  11.935  1.00  0.00    -0.222 N 
ATOM     26  H4  UNL     1      -7.040   4.262  11.560  1.00  0.00     0.178 HD
BRANCH  25  27
HETATM   27  C8  UNL     1      -8.638   4.965  12.621  1.00  0.00     0.091 C 
HETATM   28  C9  UNL     1      -8.501   4.669  14.110  1.00  0.00     0.032 C 
HETATM   29  C10 UNL     1      -9.609   3.982  12.015  1.00  0.00     0.032 C 
ENDBRANCH  25  27
ENDBRANCH   7  25
BRANCH   1  30
HETATM   30  N1  UNL     1      -1.487   7.917   9.878  1.00  0.00    -0.222 N 
ATOM     31  H1  UNL     1      -0.840   7.391  10.467  1.00  0.00     0.178 HD
BRANCH  30  32
HETATM   32  C3  UNL     1      -0.999   8.441   8.634  1.00  0.00     0.095 C 
HETATM   33  C4  UNL     1       0.513   8.246   8.633  1.00  0.00     0.032 C 
BRANCH  32  34
HETATM   34  C2  UNL     1      -1.619   7.755   7.434  1.00  0.00     0.021 C 
HETATM   35  C1  UNL     1      -2.787   8.540   6.893  1.00  0.00     0.007 C 
ENDBRANCH  32  34
ENDBRANCH  30  32
ENDBRANCH   1  30
TORSDOF 7
ENDMDL
MODEL 3
REMARK VINA RESULT: -5.571373875      1.838      4.445
REMARK  7 active torsions:
REMARK  status: ('A' for Active; 'I' for Inactive)
REMARK    1  A    between atoms: C2_2  and  C3_3 
REMARK    2  A    between atoms: C3_3  and  N1_5 
REMARK    3  A    between atoms: N1_5  and  C5_7 
REMARK    4  A    between atoms: C7_13  and  N4_14 
REMARK    5  A    between atoms: N4_14  and  C8_16 
REMARK    6  A    between atoms: C11_21  and  N6_22 
REMARK    7  A    between atoms: C14_25  and  N7_26 
ROOT
HETATM    1  C5  UNL     1      -3.229   9.036   9.801  1.00  0.00     0.681 A 
HETATM    2  N2  UNL     1      -4.280   9.884   9.737  1.00  0.00    -0.175 N 
ATOM      3  H2  UNL     1      -4.194  10.742   9.193  1.00  0.00     0.186 HD
HETATM    4  C6  UNL     1      -5.425   9.628  10.369  1.00  0.00     0.153 A 
HETATM    5  N3  UNL     1      -6.462  10.487  10.313  1.00  0.00    -0.175 N 
ATOM      6  H3  UNL     1      -6.376  11.346   9.769  1.00  0.00     0.186 HD
HETATM    7  C7  UNL     1      -7.603  10.226  10.961  1.00  0.00     0.681 A 
HETATM    8  N5  UNL     1      -7.725   9.106  11.674  1.00  0.00    -0.176 N 
ATOM      9  H5  UNL     1      -8.604   8.930  12.160  1.00  0.00     0.186 HD
HETATM   10  C11 UNL     1      -6.695   8.158  11.784  1.00  0.00     0.136 A 
HETATM   11  C17 UNL     1      -5.542   8.444  11.120  1.00  0.00     0.093 A 
HETATM   12  C18 UNL     1      -4.464   7.599  11.174  1.00  0.00     0.137 A 
HETATM   13 CL1  UNL     1      -4.487   6.147  12.138  1.00  0.00    -0.063 Cl
HETATM   14  N8  UNL     1      -3.323   7.916  10.506  1.00  0.00    -0.180 N 
ATOM     15  H8  UNL     1      -2.525   7.283  10.549  1.00  0.00     0.185 HD
ENDROOT
BRANCH  10  16
HETATM   16  N6  UNL     1      -7.062   7.009  12.508  1.00  0.00    -0.364 N 
HETATM   17  C12 UNL     1      -7.634   5.801  11.991  1.00  0.00     0.126 C 
HETATM   18  C13 UNL     1      -8.514   5.295  13.175  1.00  0.00     0.054 C 
HETATM   19  C14 UNL     1      -7.578   5.600  14.308  1.00  0.00     0.204 C 
HETATM   20  C16 UNL     1      -7.047   6.952  13.949  1.00  0.00     0.157 C 
BRANCH  19  21
HETATM   21  N7  UNL     1      -8.224   5.553  15.599  1.00  0.00    -0.073 N 
HETATM   22  C15 UNL     1      -9.481   6.246  15.485  1.00  0.00     0.267 C 
ATOM     23  H72 UNL     1      -8.327   4.603  15.956  1.00  0.00     0.277 HD
ATOM     24  H71 UNL     1      -7.637   5.917  16.350  1.00  0.00     0.277 HD
ENDBRANCH  19  21
ENDBRANCH  10  16
BRANCH   7  25
HETATM   25  N4  UNL     1      -8.580  11.022  10.921  1.00  0.00    -0.222 N 
ATOM     26  H4  UNL     1      -8.634  11.557  10.054  1.00  0.00     0.178 HD
BRANCH  25  27
HETATM   27  C8  UNL     1      -9.611  11.321  11.833  1.00  0.00     0.091 C 
HETATM   28  C9  UNL     1     -11.008  10.922  11.374  1.00  0.00     0.032 C 
HETATM   29  C10 UNL     1      -9.650  12.740  12.344  1.00  0.00     0.032 C 
ENDBRANCH  25  27
ENDBRANCH   7  25
BRANCH   1  30
HETATM   30  N1  UNL     1      -2.157   9.318   9.179  1.00  0.00    -0.222 N 
ATOM     31  H1  UNL     1      -1.880  10.298   9.118  1.00  0.00     0.178 HD
BRANCH  30  32
HETATM   32  C3  UNL     1      -1.315   8.335   8.559  1.00  0.00     0.095 C 
HETATM   33  C4  UNL     1      -1.892   8.065   7.175  1.00  0.00     0.032 C 
BRANCH  32  34
HETATM   34  C2  UNL     1       0.126   8.791   8.450  1.00  0.00     0.021 C 
HETATM   35  C1  UNL     1       1.072   7.776   9.037  1.00  0.00     0.007 C 
ENDBRANCH  32  34
ENDBRANCH  30  32
ENDBRANCH   1  30
TORSDOF 7
ENDMDL
MODEL 4
REMARK VINA RESULT: -5.385443891      1.454      6.964
REMARK  7 active torsions:
REMARK  status: ('A' for Active; 'I' for Inactive)
REMARK    1  A    between atoms: C2_2  and  C3_3 
REMARK    2  A    between atoms: C3_3  and  N1_5 
REMARK    3  A    between atoms: N1_5  and  C5_7 
REMARK    4  A    between atoms: C7_13  and  N4_14 
REMARK    5  A    between atoms: N4_14  and  C8_16 
REMARK    6  A    between atoms: C11_21  and  N6_22 
REMARK    7  A    between atoms: C14_25  and  N7_26 
ROOT
HETATM    1  C5  UNL     1      -8.301  10.080  11.504  1.00  0.00     0.681 A 
HETATM    2  N2  UNL     1      -8.178   8.789  11.884  1.00  0.00    -0.175 N 
ATOM      3  H2  UNL     1      -8.936   8.350  12.406  1.00  0.00     0.186 HD
HETATM    4  C6  UNL     1      -7.090   8.075  11.594  1.00  0.00     0.153 A 
HETATM    5  N3  UNL     1      -6.970   6.792  11.991  1.00  0.00    -0.175 N 
ATOM      6  H3  UNL     1      -7.727   6.353  12.514  1.00  0.00     0.186 HD
HETATM    7  C7  UNL     1      -5.868   6.088  11.706  1.00  0.00     0.681 A 
HETATM    8  N5  UNL     1      -4.873   6.653  11.022  1.00  0.00    -0.176 N 
ATOM      9  H5  UNL     1      -4.043   6.096  10.818  1.00  0.00     0.186 HD
HETATM   10  C11 UNL     1      -4.918   7.981  10.570  1.00  0.00     0.136 A 
HETATM   11  C17 UNL     1      -6.045   8.682  10.874  1.00  0.00     0.093 A 
HETATM   12  C18 UNL     1      -6.188   9.993  10.500  1.00  0.00     0.137 A 
HETATM   13 CL1  UNL     1      -4.918  10.851   9.672  1.00  0.00    -0.063 Cl
HETATM   14  N8  UNL     1      -7.323  10.667  10.825  1.00  0.00    -0.180 N 
ATOM     15  H8  UNL     1      -7.425  11.642  10.543  1.00  0.00     0.185 HD
ENDROOT
BRANCH  10  16
HETATM   16  N6  UNL     1      -3.805   8.350   9.793  1.00  0.00    -0.364 N 
HETATM   17  C12 UNL     1      -3.602   8.109   8.396  1.00  0.00     0.126 C 
HETATM   18  C13 UNL     1      -2.052   7.975   8.284  1.00  0.00     0.054 C 
HETATM   19  C14 UNL     1      -1.655   9.082   9.216  1.00  0.00     0.204 C 
HETATM   20  C16 UNL     1      -2.605   8.914  10.360  1.00  0.00     0.157 C 
BRANCH  19  21
HETATM   21  N7  UNL     1      -0.263   9.019   9.601  1.00  0.00    -0.073 N 
HETATM   22  C15 UNL     1       0.427   8.223   8.621  1.00  0.00     0.267 C 
ATOM     23  H72 UNL     1       0.154   9.941   9.728  1.00  0.00     0.277 HD
ATOM     24  H71 UNL     1      -0.131   8.679  10.554  1.00  0.00     0.277 HD
ENDBRANCH  19  21
ENDBRANCH  10  16
BRANCH   7  25
HETATM   25  N4  UNL     1      -5.740   4.889  12.074  1.00  0.00    -0.222 N 
ATOM     26  H4  UNL     1      -5.939   4.213  11.336  1.00  0.00     0.178 HD
BRANCH  25  27
HETATM   27  C8  UNL     1      -5.376   4.296  13.298  1.00  0.00     0.091 C 
HETATM   28  C9  UNL     1      -3.946   4.572  13.745  1.00  0.00     0.032 C 
HETATM   29  C10 UNL     1      -5.652   2.818  13.425  1.00  0.00     0.032 C 
ENDBRANCH  25  27
ENDBRANCH   7  25
BRANCH   1  30
HETATM   30  N1  UNL     1      -9.357  10.722  11.798  1.00  0.00    -0.222 N 
ATOM     31  H1  UNL     1      -9.580  11.557  11.255  1.00  0.00     0.178 HD
BRANCH  30  32
HETATM   32  C3  UNL     1     -10.254  10.339  12.851  1.00  0.00     0.095 C 
HETATM   33  C4  UNL     1     -10.533  11.591  13.675  1.00  0.00     0.032 C 
BRANCH  32  34
HETATM   34  C2  UNL     1     -11.550   9.755  12.326  1.00  0.00     0.021 C 
HETATM   35  C1  UNL     1     -11.738   8.331  12.782  1.00  0.00     0.007 C 
ENDBRANCH  32  34
ENDBRANCH  30  32
ENDBRANCH   1  30
TORSDOF 7
ENDMDL
MODEL 5
REMARK VINA RESULT: -5.361795449      1.245      1.371
REMARK  7 active torsions:
REMARK  status: ('A' for Active; 'I' for Inactive)
REMARK    1  A    between atoms: C2_2  and  C3_3 
REMARK    2  A    between atoms: C3_3  and  N1_5 
REMARK    3  A    between atoms: N1_5  and  C5_7 
REMARK    4  A    between atoms: C7_13  and  N4_14 
REMARK    5  A    between atoms: N4_14  and  C8_16 
REMARK    6  A    between atoms: C11_21  and  N6_22 
REMARK    7  A    between atoms: C14_25  and  N7_26 
ROOT
HETATM    1  C5  UNL     1      -3.963   8.881   9.617  1.00  0.00     0.681 A 
HETATM    2  N2  UNL     1      -4.293   7.621   9.979  1.00  0.00    -0.175 N 
ATOM      3  H2  UNL     1      -3.727   6.843   9.642  1.00  0.00     0.186 HD
HETATM    4  C6  UNL     1      -5.339   7.370  10.766  1.00  0.00     0.153 A 
HETATM    5  N3  UNL     1      -5.669   6.109  11.110  1.00  0.00    -0.175 N 
ATOM      6  H3  UNL     1      -5.104   5.330  10.771  1.00  0.00     0.186 HD
HETATM    7  C7  UNL     1      -6.729   5.867  11.890  1.00  0.00     0.681 A 
HETATM    8  N5  UNL     1      -7.473   6.879  12.338  1.00  0.00    -0.176 N 
ATOM      9  H5  UNL     1      -8.276   6.668  12.931  1.00  0.00     0.186 HD
HETATM   10  C11 UNL     1      -7.199   8.220  12.030  1.00  0.00     0.136 A 
HETATM   11  C17 UNL     1      -6.119   8.445  11.232  1.00  0.00     0.093 A 
HETATM   12  C18 UNL     1      -5.770   9.714  10.851  1.00  0.00     0.137 A 
HETATM   13 CL1  UNL     1      -6.718  11.101  11.315  1.00  0.00    -0.063 Cl
HETATM   14  N8  UNL     1      -4.690   9.905  10.046  1.00  0.00    -0.180 N 
ATOM     15  H8  UNL     1      -4.434  10.853   9.768  1.00  0.00     0.185 HD
ENDROOT
BRANCH  10  16
HETATM   16  N6  UNL     1      -8.052   9.133  12.676  1.00  0.00    -0.364 N 
HETATM   17  C12 UNL     1      -7.861   9.743  13.958  1.00  0.00     0.126 C 
HETATM   18  C13 UNL     1      -9.319   9.947  14.471  1.00  0.00     0.054 C 
HETATM   19  C14 UNL     1      -9.956  10.398  13.188  1.00  0.00     0.204 C 
HETATM   20  C16 UNL     1      -9.360   9.473  12.174  1.00  0.00     0.157 C 
BRANCH  19  21
HETATM   21  N7  UNL     1     -11.400  10.360  13.234  1.00  0.00    -0.073 N 
HETATM   22  C15 UNL     1     -11.824   9.122  12.635  1.00  0.00     0.267 C 
ATOM     23  H72 UNL     1     -11.770  10.492  14.175  1.00  0.00     0.277 HD
ATOM     24  H71 UNL     1     -11.832  11.178  12.803  1.00  0.00     0.277 HD
ENDBRANCH  19  21
ENDBRANCH  10  16
BRANCH   7  25
HETATM   25  N4  UNL     1      -7.052   4.693  12.216  1.00  0.00    -0.222 N 
ATOM     26  H4  UNL     1      -7.610   4.213  11.509  1.00  0.00     0.178 HD
BRANCH  25  27
HETATM   27  C8  UNL     1      -6.798   3.911  13.359  1.00  0.00     0.091 C 
HETATM   28  C9  UNL     1      -5.446   3.207  13.367  1.00  0.00     0.032 C 
HETATM   29  C10 UNL     1      -7.869   2.916  13.731  1.00  0.00     0.032 C 
ENDBRANCH  25  27
ENDBRANCH   7  25
BRANCH   1  30
HETATM   30  N1  UNL     1      -2.955   9.075   8.868  1.00  0.00    -0.222 N 
ATOM     31  H1  UNL     1      -2.910   9.946   8.339  1.00  0.00     0.178 HD
BRANCH  30  32
HETATM   32  C3  UNL     1      -1.878   8.137   8.726  1.00  0.00     0.095 C 
HETATM   33  C4  UNL     1      -1.570   8.037   7.237  1.00  0.00     0.032 C 
BRANCH  32  34
HETATM   34  C2  UNL     1      -0.640   8.557   9.492  1.00  0.00     0.021 C 
HETATM   35  C1  UNL     1       0.619   8.124   8.785  1.00  0.00     0.007 C 
ENDBRANCH  32  34
ENDBRANCH  30  32
ENDBRANCH   1  30
TORSDOF 7
ENDMDL
