MODEL 1
REMARK VINA RESULT: -6.734374054      0.000      0.000
REMARK  7 active torsions:
REMARK  status: ('A' for Active; 'I' for Inactive)
REMARK    1  A    between atoms: C2_2  and  O2_4 
REMARK    2  A    between atoms: O2_4  and  C3_5 
REMARK    3  A    between atoms: C5_7  and  O3_8 
REMARK    4  A    between atoms: C11_16  and  O4_17 
REMARK    5  A    between atoms: C12_19  and  N1_20 
REMARK    6  A    between atoms: N1_20  and  N2_22 
REMARK    7  A    between atoms: N2_22  and  N3_23 
ROOT
HETATM    1  C3  UNL     1       4.467   9.698  23.481  1.00  0.00     0.151 C 
HETATM    2  C4  UNL     1       3.343   9.355  24.046  1.00  0.00    -0.024 C 
HETATM    3  C5  UNL     1       2.660   8.099  23.689  1.00  0.00     0.150 C 
HETATM    4  C6  UNL     1       1.177   8.129  23.772  1.00  0.00     0.044 C 
HETATM    5  C7  UNL     1       0.595   9.171  24.661  1.00  0.00     0.031 C 
HETATM    6  C8  UNL     1       1.536   9.652  25.735  1.00  0.00     0.072 C 
HETATM    7 BR1  UNL     1       1.920   8.347  27.067  1.00  0.00    -0.090 Br
HETATM    8  C9  UNL     1       2.734  10.235  25.068  1.00  0.00     0.036 C 
HETATM    9  C10 UNL     1       2.309  11.520  24.420  1.00  0.00     0.044 C 
HETATM   10  C11 UNL     1       0.893  11.597  24.027  1.00  0.00     0.144 C 
HETATM   11  C12 UNL     1       0.130  10.354  23.881  1.00  0.00     0.148 C 
ENDROOT
BRANCH  11  12
HETATM   12  N1  UNL     1      -1.279  10.623  24.217  1.00  0.00    -0.245 N 
ATOM     13  H1  UNL     1      -1.711  10.190  25.034  1.00  0.00     0.197 HD
BRANCH  12  14
HETATM   14  N2  UNL     1      -1.927  11.384  23.487  1.00  0.00    -0.248 NA
BRANCH  14  15
HETATM   15  N3  UNL     1      -2.363  12.258  22.740  1.00  0.00    -0.261 N 
ATOM     16  H32 UNL     1      -2.515  12.866  23.545  1.00  0.00     0.193 HD
ATOM     17  H31 UNL     1      -2.689  12.850  21.976  1.00  0.00     0.193 HD
ENDBRANCH  14  15
ENDBRANCH  12  14
ENDBRANCH  11  12
BRANCH  10  18
HETATM   18  O4  UNL     1       0.215  12.443  24.938  1.00  0.00    -0.393 OA
ATOM     19  H4  UNL     1      -0.617  12.697  24.555  1.00  0.00     0.210 HD
ENDBRANCH  10  18
BRANCH   3  20
HETATM   20  O3  UNL     1       3.209   7.020  24.421  1.00  0.00    -0.391 OA
ATOM     21  H3  UNL     1       3.184   6.224  23.902  1.00  0.00     0.210 HD
ENDBRANCH   3  20
BRANCH   1  22
HETATM   22  O2  UNL     1       5.033   8.877  22.532  1.00  0.00    -0.291 OA
BRANCH  22  23
HETATM   23  C2  UNL     1       5.568   9.396  21.355  1.00  0.00     0.259 C 
HETATM   24  C1  UNL     1       6.814  10.182  21.299  1.00  0.00     0.126 C 
HETATM   25  O1  UNL     1       4.913   9.154  20.299  1.00  0.00    -0.265 OA
ENDBRANCH  22  23
ENDBRANCH   1  22
TORSDOF 7
ENDMDL
MODEL 2
REMARK VINA RESULT: -6.645631148      4.484      5.923
REMARK  7 active torsions:
REMARK  status: ('A' for Active; 'I' for Inactive)
REMARK    1  A    between atoms: C2_2  and  O2_4 
REMARK    2  A    between atoms: O2_4  and  C3_5 
REMARK    3  A    between atoms: C5_7  and  O3_8 
REMARK    4  A    between atoms: C11_16  and  O4_17 
REMARK    5  A    between atoms: C12_19  and  N1_20 
REMARK    6  A    between atoms: N1_20  and  N2_22 
REMARK    7  A    between atoms: N2_22  and  N3_23 
ROOT
HETATM    1  C3  UNL     1       6.099  12.554  24.292  1.00  0.00     0.151 C 
HETATM    2  C4  UNL     1       6.290  11.323  23.905  1.00  0.00    -0.024 C 
HETATM    3  C5  UNL     1       7.458  10.953  23.087  1.00  0.00     0.150 C 
HETATM    4  C6  UNL     1       7.245   9.835  22.132  1.00  0.00     0.044 C 
HETATM    5  C7  UNL     1       6.123   8.910  22.452  1.00  0.00     0.031 C 
HETATM    6  C8  UNL     1       5.743   8.893  23.910  1.00  0.00     0.072 C 
HETATM    7 BR1  UNL     1       7.062   8.118  25.043  1.00  0.00    -0.090 Br
HETATM    8  C9  UNL     1       5.324  10.271  24.290  1.00  0.00     0.036 C 
HETATM    9  C10 UNL     1       4.007  10.543  23.623  1.00  0.00     0.044 C 
HETATM   10  C11 UNL     1       3.764   9.807  22.373  1.00  0.00     0.144 C 
HETATM   11  C12 UNL     1       4.905   9.234  21.654  1.00  0.00     0.148 C 
ENDROOT
BRANCH  11  12
HETATM   12  N1  UNL     1       4.459   8.019  20.951  1.00  0.00    -0.245 N 
ATOM     13  H1  UNL     1       4.042   8.078  20.021  1.00  0.00     0.197 HD
BRANCH  12  14
HETATM   14  N2  UNL     1       4.602   6.925  21.512  1.00  0.00    -0.248 NA
BRANCH  14  15
HETATM   15  N3  UNL     1       4.858   5.776  21.868  1.00  0.00    -0.261 N 
ATOM     16  H32 UNL     1       5.376   5.626  21.002  1.00  0.00     0.193 HD
ATOM     17  H31 UNL     1       4.966   4.870  22.325  1.00  0.00     0.193 HD
ENDBRANCH  14  15
ENDBRANCH  12  14
ENDBRANCH  11  12
BRANCH  10  18
HETATM   18  O4  UNL     1       2.825   8.778  22.629  1.00  0.00    -0.393 OA
ATOM     19  H4  UNL     1       2.078   8.899  22.055  1.00  0.00     0.210 HD
ENDBRANCH  10  18
BRANCH   3  20
HETATM   20  O3  UNL     1       8.584  10.732  23.915  1.00  0.00    -0.391 OA
ATOM     21  H3  UNL     1       8.417  10.011  24.512  1.00  0.00     0.210 HD
ENDBRANCH   3  20
BRANCH   1  22
HETATM   22  O2  UNL     1       6.999  13.531  23.933  1.00  0.00    -0.291 OA
BRANCH  22  23
HETATM   23  C2  UNL     1       7.125  14.704  24.672  1.00  0.00     0.259 C 
HETATM   24  C1  UNL     1       5.981  15.446  25.231  1.00  0.00     0.126 C 
HETATM   25  O1  UNL     1       8.308  15.119  24.850  1.00  0.00    -0.265 OA
ENDBRANCH  22  23
ENDBRANCH   1  22
TORSDOF 7
ENDMDL
MODEL 3
REMARK VINA RESULT: -6.246700666      0.828      1.063
REMARK  7 active torsions:
REMARK  status: ('A' for Active; 'I' for Inactive)
REMARK    1  A    between atoms: C2_2  and  O2_4 
REMARK    2  A    between atoms: O2_4  and  C3_5 
REMARK    3  A    between atoms: C5_7  and  O3_8 
REMARK    4  A    between atoms: C11_16  and  O4_17 
REMARK    5  A    between atoms: C12_19  and  N1_20 
REMARK    6  A    between atoms: N1_20  and  N2_22 
REMARK    7  A    between atoms: N2_22  and  N3_23 
ROOT
HETATM    1  C3  UNL     1       4.490   9.184  23.132  1.00  0.00     0.151 C 
HETATM    2  C4  UNL     1       3.414   9.028  23.852  1.00  0.00    -0.024 C 
HETATM    3  C5  UNL     1       2.621   7.788  23.783  1.00  0.00     0.150 C 
HETATM    4  C6  UNL     1       1.160   7.946  23.999  1.00  0.00     0.044 C 
HETATM    5  C7  UNL     1       0.740   9.164  24.746  1.00  0.00     0.031 C 
HETATM    6  C8  UNL     1       1.818   9.740  25.628  1.00  0.00     0.072 C 
HETATM    7 BR1  UNL     1       2.261   8.646  27.122  1.00  0.00    -0.090 Br
HETATM    8  C9  UNL     1       2.972  10.109  24.760  1.00  0.00     0.036 C 
HETATM    9  C10 UNL     1       2.560  11.300  23.944  1.00  0.00     0.044 C 
HETATM   10  C11 UNL     1       1.117  11.421  23.679  1.00  0.00     0.144 C 
HETATM   11  C12 UNL     1       0.268  10.235  23.822  1.00  0.00     0.148 C 
ENDROOT
BRANCH  11  12
HETATM   12  N1  UNL     1      -1.077  10.664  24.239  1.00  0.00    -0.245 N 
ATOM     13  H1  UNL     1      -1.449  10.400  25.152  1.00  0.00     0.197 HD
BRANCH  12  14
HETATM   14  N2  UNL     1      -1.747  11.353  23.458  1.00  0.00    -0.248 NA
BRANCH  14  15
HETATM   15  N3  UNL     1      -2.288  12.221  22.775  1.00  0.00    -0.261 N 
ATOM     16  H32 UNL     1      -3.124  11.640  22.705  1.00  0.00     0.193 HD
ATOM     17  H31 UNL     1      -2.566  13.039  22.232  1.00  0.00     0.193 HD
ENDBRANCH  14  15
ENDBRANCH  12  14
ENDBRANCH  11  12
BRANCH  10  18
HETATM   18  O4  UNL     1       0.594  12.456  24.491  1.00  0.00    -0.393 OA
ATOM     19  H4  UNL     1      -0.146  12.848  24.043  1.00  0.00     0.210 HD
ENDBRANCH  10  18
BRANCH   3  20
HETATM   20  O3  UNL     1       3.177   6.804  24.634  1.00  0.00    -0.391 OA
ATOM     21  H3  UNL     1       2.536   6.526  25.277  1.00  0.00     0.210 HD
ENDBRANCH   3  20
BRANCH   1  22
HETATM   22  O2  UNL     1       4.900   8.176  22.290  1.00  0.00    -0.291 OA
BRANCH  22  23
HETATM   23  C2  UNL     1       4.698   8.258  20.914  1.00  0.00     0.259 C 
HETATM   24  C1  UNL     1       4.247   7.127  20.084  1.00  0.00     0.126 C 
HETATM   25  O1  UNL     1       4.926   9.388  20.390  1.00  0.00    -0.265 OA
ENDBRANCH  22  23
ENDBRANCH   1  22
TORSDOF 7
ENDMDL
MODEL 4
REMARK VINA RESULT: -6.214676231      0.998      1.066
REMARK  7 active torsions:
REMARK  status: ('A' for Active; 'I' for Inactive)
REMARK    1  A    between atoms: C2_2  and  O2_4 
REMARK    2  A    between atoms: O2_4  and  C3_5 
REMARK    3  A    between atoms: C5_7  and  O3_8 
REMARK    4  A    between atoms: C11_16  and  O4_17 
REMARK    5  A    between atoms: C12_19  and  N1_20 
REMARK    6  A    between atoms: N1_20  and  N2_22 
REMARK    7  A    between atoms: N2_22  and  N3_23 
ROOT
HETATM    1  C3  UNL     1       4.210   8.840  23.942  1.00  0.00     0.151 C 
HETATM    2  C4  UNL     1       3.042   8.756  24.517  1.00  0.00    -0.024 C 
HETATM    3  C5  UNL     1       2.195   7.561  24.354  1.00  0.00     0.150 C 
HETATM    4  C6  UNL     1       0.730   7.804  24.377  1.00  0.00     0.044 C 
HETATM    5  C7  UNL     1       0.287   9.055  25.053  1.00  0.00     0.031 C 
HETATM    6  C8  UNL     1       1.273   9.583  26.063  1.00  0.00     0.072 C 
HETATM    7 BR1  UNL     1       1.454   8.491  27.611  1.00  0.00    -0.090 Br
HETATM    8  C9  UNL     1       2.548   9.874  25.350  1.00  0.00     0.036 C 
HETATM    9  C10 UNL     1       2.315  11.073  24.477  1.00  0.00     0.044 C 
HETATM   10  C11 UNL     1       0.928  11.270  24.025  1.00  0.00     0.144 C 
HETATM   11  C12 UNL     1       0.002  10.136  24.066  1.00  0.00     0.148 C 
ENDROOT
BRANCH  11  12
HETATM   12  N1  UNL     1      -1.360  10.646  24.300  1.00  0.00    -0.245 N 
ATOM     13  H1  UNL     1      -1.873  10.394  25.146  1.00  0.00     0.197 HD
BRANCH  12  14
HETATM   14  N2  UNL     1      -1.869  11.388  23.449  1.00  0.00    -0.248 NA
BRANCH  14  15
HETATM   15  N3  UNL     1      -2.226  12.291  22.694  1.00  0.00    -0.261 N 
ATOM     16  H32 UNL     1      -1.603  12.937  23.178  1.00  0.00     0.193 HD
ATOM     17  H31 UNL     1      -2.637  12.899  21.986  1.00  0.00     0.193 HD
ENDBRANCH  14  15
ENDBRANCH  12  14
ENDBRANCH  11  12
BRANCH  10  18
HETATM   18  O4  UNL     1       0.364  12.345  24.753  1.00  0.00    -0.393 OA
ATOM     19  H4  UNL     1      -0.543  12.448  24.489  1.00  0.00     0.210 HD
ENDBRANCH  10  18
BRANCH   3  20
HETATM   20  O3  UNL     1       2.579   6.561  25.280  1.00  0.00    -0.391 OA
ATOM     21  H3  UNL     1       1.986   6.556  26.022  1.00  0.00     0.210 HD
ENDBRANCH   3  20
BRANCH   1  22
HETATM   22  O2  UNL     1       4.667   7.798  23.169  1.00  0.00    -0.291 OA
BRANCH  22  23
HETATM   23  C2  UNL     1       4.644   7.867  21.778  1.00  0.00     0.259 C 
HETATM   24  C1  UNL     1       4.993   9.077  21.012  1.00  0.00     0.126 C 
HETATM   25  O1  UNL     1       4.297   6.806  21.179  1.00  0.00    -0.265 OA
ENDBRANCH  22  23
ENDBRANCH   1  22
TORSDOF 7
ENDMDL
MODEL 5
REMARK VINA RESULT: -6.165575085      2.727      3.663
REMARK  7 active torsions:
REMARK  status: ('A' for Active; 'I' for Inactive)
REMARK    1  A    between atoms: C2_2  and  O2_4 
REMARK    2  A    between atoms: O2_4  and  C3_5 
REMARK    3  A    between atoms: C5_7  and  O3_8 
REMARK    4  A    between atoms: C11_16  and  O4_17 
REMARK    5  A    between atoms: C12_19  and  N1_20 
REMARK    6  A    between atoms: N1_20  and  N2_22 
REMARK    7  A    between atoms: N2_22  and  N3_23 
ROOT
HETATM    1  C3  UNL     1       3.662   8.152  22.573  1.00  0.00     0.151 C 
HETATM    2  C4  UNL     1       2.906   8.677  23.498  1.00  0.00    -0.024 C 
HETATM    3  C5  UNL     1       3.442   9.665  24.451  1.00  0.00     0.150 C 
HETATM    4  C6  UNL     1       2.831   9.648  25.805  1.00  0.00     0.044 C 
HETATM    5  C7  UNL     1       1.470   9.051  25.898  1.00  0.00     0.031 C 
HETATM    6  C8  UNL     1       0.706   9.068  24.600  1.00  0.00     0.072 C 
HETATM    7 BR1  UNL     1       0.197  10.810  24.025  1.00  0.00    -0.090 Br
HETATM    8  C9  UNL     1       1.484   8.282  23.600  1.00  0.00     0.036 C 
HETATM    9  C10 UNL     1       1.402   6.838  23.998  1.00  0.00     0.044 C 
HETATM   10  C11 UNL     1       1.204   6.584  25.434  1.00  0.00     0.144 C 
HETATM   11  C12 UNL     1       1.525   7.644  26.392  1.00  0.00     0.148 C 
ENDROOT
BRANCH  11  12
HETATM   12  N1  UNL     1       0.634   7.514  27.557  1.00  0.00    -0.245 N 
ATOM     13  H1  UNL     1       0.511   6.614  28.022  1.00  0.00     0.197 HD
BRANCH  12  14
HETATM   14  N2  UNL     1       0.037   8.521  27.961  1.00  0.00    -0.248 NA
BRANCH  14  15
HETATM   15  N3  UNL     1      -0.754   9.392  28.320  1.00  0.00    -0.261 N 
ATOM     16  H32 UNL     1      -0.793   8.970  29.247  1.00  0.00     0.193 HD
ATOM     17  H31 UNL     1      -1.389  10.182  28.431  1.00  0.00     0.193 HD
ENDBRANCH  14  15
ENDBRANCH  12  14
ENDBRANCH  11  12
BRANCH  10  18
HETATM   18  O4  UNL     1      -0.135   6.174  25.640  1.00  0.00    -0.393 OA
ATOM     19  H4  UNL     1      -0.430   6.510  26.479  1.00  0.00     0.210 HD
ENDBRANCH  10  18
BRANCH   3  20
HETATM   20  O3  UNL     1       3.419  10.959  23.878  1.00  0.00    -0.391 OA
ATOM     21  H3  UNL     1       4.093  11.503  24.268  1.00  0.00     0.210 HD
ENDBRANCH   3  20
BRANCH   1  22
HETATM   22  O2  UNL     1       4.984   8.521  22.479  1.00  0.00    -0.291 OA
BRANCH  22  23
HETATM   23  C2  UNL     1       5.442   9.301  21.420  1.00  0.00     0.259 C 
HETATM   24  C1  UNL     1       6.611  10.194  21.506  1.00  0.00     0.126 C 
HETATM   25  O1  UNL     1       4.786   9.205  20.341  1.00  0.00    -0.265 OA
ENDBRANCH  22  23
ENDBRANCH   1  22
TORSDOF 7
ENDMDL
