MODEL 1
REMARK VINA RESULT: -8.210633650      0.000      0.000
REMARK  8 active torsions:
REMARK  status: ('A' for Active; 'I' for Inactive)
REMARK    1  A    between atoms: C2_2  and  C3_3 
REMARK    2  A    between atoms: C2_2  and  C6_8 
REMARK    3  A    between atoms: C3_3  and  C4_4 
REMARK    4  A    between atoms: C4_4  and  C5_5 
REMARK    5  A    between atoms: C8_10  and  O3_11 
REMARK    6  A    between atoms: C10_15  and  C11_16 
REMARK    7  A    between atoms: C11_16  and  O5_18 
REMARK    8  A    between atoms: C11_16  and  O6_20 
ROOT
HETATM    1  C6  UNL     1       5.767  10.135  23.622  1.00  0.00    -0.006 C 
HETATM    2  C7  UNL     1       4.752   9.909  22.552  1.00  0.00     0.040 C 
HETATM    3  C8  UNL     1       3.494   9.385  23.249  1.00  0.00     0.157 C 
HETATM    4  C9  UNL     1       3.722   8.121  24.018  1.00  0.00     0.130 C 
HETATM    5  O4  UNL     1       3.109   8.063  25.235  1.00  0.00    -0.363 OA
HETATM    6  C10 UNL     1       1.763   8.022  25.271  1.00  0.00     0.184 C 
HETATM    7  C13 UNL     1       1.067   7.075  24.352  1.00  0.00     0.039 C 
HETATM    8  C14 UNL     1       1.763   6.977  22.984  1.00  0.00     0.025 C 
HETATM    9  C15 UNL     1       3.192   6.892  23.256  1.00  0.00     0.081 C 
HETATM   10  C16 UNL     1       3.459   5.662  24.104  1.00  0.00     0.029 C 
HETATM   11  C17 UNL     1       4.135   6.868  22.142  1.00  0.00     0.271 C 
HETATM   12  O7  UNL     1       3.879   6.662  20.944  1.00  0.00    -0.264 OA
HETATM   13  O8  UNL     1       5.389   7.129  22.742  1.00  0.00    -0.312 OA
HETATM   14  C18 UNL     1       5.178   7.734  24.030  1.00  0.00     0.170 C 
HETATM   15  C19 UNL     1       6.133   8.848  24.289  1.00  0.00     0.041 C 
ENDROOT
BRANCH   1  16
HETATM   16  C2  UNL     1       6.970  10.937  23.149  1.00  0.00    -0.014 C 
HETATM   17  C1  UNL     1       8.230  10.102  23.183  1.00  0.00     0.010 C 
BRANCH  16  18
HETATM   18  C3  UNL     1       7.149  12.089  24.068  1.00  0.00     0.015 C 
BRANCH  18  19
HETATM   19  C4  UNL     1       5.978  12.989  24.241  1.00  0.00     0.113 C 
BRANCH  19  20
HETATM   20  C5  UNL     1       6.337  14.359  24.606  1.00  0.00     0.172 C 
HETATM   21  O1  UNL     1       5.530  15.240  24.967  1.00  0.00    -0.648 OA
HETATM   22  O2  UNL     1       7.697  14.716  24.544  1.00  0.00    -0.648 OA
ENDBRANCH  19  20
ENDBRANCH  18  19
ENDBRANCH  16  18
ENDBRANCH   1  16
BRANCH   3  23
HETATM   23  O3  UNL     1       3.134  10.454  24.108  1.00  0.00    -0.392 OA
ATOM     24  H3  UNL     1       2.649  11.036  23.536  1.00  0.00     0.210 HD
ENDBRANCH   3  23
BRANCH   6  25
HETATM   25  C11 UNL     1       1.317   7.784  26.694  1.00  0.00     0.182 C 
HETATM   26  C12 UNL     1       0.702   9.019  27.316  1.00  0.00     0.081 C 
BRANCH  25  27
HETATM   27  O5  UNL     1       0.367   6.771  26.810  1.00  0.00    -0.364 OA
ATOM     28  H5  UNL     1      -0.422   7.048  27.261  1.00  0.00     0.213 HD
ENDBRANCH  25  27
BRANCH  25  29
HETATM   29  O6  UNL     1       2.388   7.418  27.519  1.00  0.00    -0.364 OA
ATOM     30  H6  UNL     1       2.095   6.934  28.283  1.00  0.00     0.213 HD
ENDBRANCH  25  29
ENDBRANCH   6  25
TORSDOF 8
ENDMDL
MODEL 2
REMARK VINA RESULT: -8.122365632      1.851      4.097
REMARK  8 active torsions:
REMARK  status: ('A' for Active; 'I' for Inactive)
REMARK    1  A    between atoms: C2_2  and  C3_3 
REMARK    2  A    between atoms: C2_2  and  C6_8 
REMARK    3  A    between atoms: C3_3  and  C4_4 
REMARK    4  A    between atoms: C4_4  and  C5_5 
REMARK    5  A    between atoms: C8_10  and  O3_11 
REMARK    6  A    between atoms: C10_15  and  C11_16 
REMARK    7  A    between atoms: C11_16  and  O5_18 
REMARK    8  A    between atoms: C11_16  and  O6_20 
ROOT
HETATM    1  C6  UNL     1       5.138  11.087  23.401  1.00  0.00    -0.006 C 
HETATM    2  C7  UNL     1       5.931  10.069  24.151  1.00  0.00     0.040 C 
HETATM    3  C8  UNL     1       5.698   8.731  23.446  1.00  0.00     0.157 C 
HETATM    4  C9  UNL     1       4.257   8.327  23.396  1.00  0.00     0.130 C 
HETATM    5  O4  UNL     1       3.846   7.790  22.212  1.00  0.00    -0.363 OA
HETATM    6  C10 UNL     1       4.350   6.597  21.842  1.00  0.00     0.184 C 
HETATM    7  C13 UNL     1       4.390   5.508  22.861  1.00  0.00     0.039 C 
HETATM    8  C14 UNL     1       4.726   6.038  24.265  1.00  0.00     0.025 C 
HETATM    9  C15 UNL     1       3.935   7.248  24.447  1.00  0.00     0.081 C 
HETATM   10  C16 UNL     1       2.464   6.897  24.325  1.00  0.00     0.029 C 
HETATM   11  C17 UNL     1       4.097   8.036  25.666  1.00  0.00     0.271 C 
HETATM   12  O7  UNL     1       4.657   7.687  26.718  1.00  0.00    -0.264 OA
HETATM   13  O8  UNL     1       3.472   9.269  25.368  1.00  0.00    -0.312 OA
HETATM   14  C18 UNL     1       3.360   9.408  23.940  1.00  0.00     0.170 C 
HETATM   15  C19 UNL     1       3.676  10.791  23.485  1.00  0.00     0.041 C 
ENDROOT
BRANCH   1  16
HETATM   16  C2  UNL     1       5.491  12.519  23.777  1.00  0.00    -0.014 C 
HETATM   17  C1  UNL     1       6.920  12.619  24.263  1.00  0.00     0.010 C 
BRANCH  16  18
HETATM   18  C3  UNL     1       4.592  12.943  24.879  1.00  0.00     0.015 C 
BRANCH  18  19
HETATM   19  C4  UNL     1       3.966  14.286  24.746  1.00  0.00     0.113 C 
BRANCH  19  20
HETATM   20  C5  UNL     1       4.709  15.351  25.420  1.00  0.00     0.172 C 
HETATM   21  O1  UNL     1       5.835  15.766  25.077  1.00  0.00    -0.648 OA
HETATM   22  O2  UNL     1       4.111  15.954  26.541  1.00  0.00    -0.648 OA
ENDBRANCH  19  20
ENDBRANCH  18  19
ENDBRANCH  16  18
ENDBRANCH   1  16
BRANCH   3  23
HETATM   23  O3  UNL     1       6.215   8.958  22.146  1.00  0.00    -0.392 OA
ATOM     24  H3  UNL     1       6.835   9.665  22.281  1.00  0.00     0.210 HD
ENDBRANCH   3  23
BRANCH   6  25
HETATM   25  C11 UNL     1       3.628   6.122  20.604  1.00  0.00     0.182 C 
HETATM   26  C12 UNL     1       3.889   4.660  20.314  1.00  0.00     0.081 C 
BRANCH  25  27
HETATM   27  O5  UNL     1       2.245   6.266  20.684  1.00  0.00    -0.364 OA
ATOM     28  H5  UNL     1       1.853   6.574  19.875  1.00  0.00     0.213 HD
ENDBRANCH  25  27
BRANCH  25  29
HETATM   29  O6  UNL     1       4.034   6.828  19.464  1.00  0.00    -0.364 OA
ATOM     30  H6  UNL     1       4.970   6.753  19.317  1.00  0.00     0.213 HD
ENDBRANCH  25  29
ENDBRANCH   6  25
TORSDOF 8
ENDMDL
MODEL 3
REMARK VINA RESULT: -7.902779062      3.004      5.693
REMARK  8 active torsions:
REMARK  status: ('A' for Active; 'I' for Inactive)
REMARK    1  A    between atoms: C2_2  and  C3_3 
REMARK    2  A    between atoms: C2_2  and  C6_8 
REMARK    3  A    between atoms: C3_3  and  C4_4 
REMARK    4  A    between atoms: C4_4  and  C5_5 
REMARK    5  A    between atoms: C8_10  and  O3_11 
REMARK    6  A    between atoms: C10_15  and  C11_16 
REMARK    7  A    between atoms: C11_16  and  O5_18 
REMARK    8  A    between atoms: C11_16  and  O6_20 
ROOT
HETATM    1  C6  UNL     1       1.490  10.725  24.449  1.00  0.00    -0.006 C 
HETATM    2  C7  UNL     1       2.877  10.595  24.983  1.00  0.00     0.040 C 
HETATM    3  C8  UNL     1       3.582   9.551  24.114  1.00  0.00     0.157 C 
HETATM    4  C9  UNL     1       2.901   8.217  24.117  1.00  0.00     0.130 C 
HETATM    5  O4  UNL     1       2.830   7.599  22.903  1.00  0.00    -0.363 OA
HETATM    6  C10 UNL     1       3.975   7.184  22.329  1.00  0.00     0.184 C 
HETATM    7  C13 UNL     1       4.952   6.439  23.176  1.00  0.00     0.039 C 
HETATM    8  C14 UNL     1       5.013   6.987  24.611  1.00  0.00     0.025 C 
HETATM    9  C15 UNL     1       3.633   7.210  25.024  1.00  0.00     0.081 C 
HETATM   10  C16 UNL     1       2.883   5.892  24.966  1.00  0.00     0.029 C 
HETATM   11  C17 UNL     1       3.361   7.810  26.327  1.00  0.00     0.271 C 
HETATM   12  O7  UNL     1       4.155   7.946  27.273  1.00  0.00    -0.264 OA
HETATM   13  O8  UNL     1       2.001   8.191  26.257  1.00  0.00    -0.312 OA
HETATM   14  C18 UNL     1       1.601   8.259  24.877  1.00  0.00     0.170 C 
HETATM   15  C19 UNL     1       0.738   9.442  24.601  1.00  0.00     0.041 C 
ENDROOT
BRANCH   1  16
HETATM   16  C2  UNL     1       0.746  11.933  24.998  1.00  0.00    -0.014 C 
HETATM   17  C1  UNL     1      -0.458  11.510  25.811  1.00  0.00     0.010 C 
BRANCH  16  18
HETATM   18  C3  UNL     1       0.272  12.747  23.851  1.00  0.00     0.015 C 
BRANCH  18  19
HETATM   19  C4  UNL     1      -1.145  12.553  23.440  1.00  0.00     0.113 C 
BRANCH  19  20
HETATM   20  C5  UNL     1      -1.464  13.135  22.136  1.00  0.00     0.172 C 
HETATM   21  O1  UNL     1      -2.584  13.570  21.802  1.00  0.00    -0.648 OA
HETATM   22  O2  UNL     1      -0.431  13.209  21.184  1.00  0.00    -0.648 OA
ENDBRANCH  19  20
ENDBRANCH  18  19
ENDBRANCH  16  18
ENDBRANCH   1  16
BRANCH   3  23
HETATM   23  O3  UNL     1       3.559  10.138  22.824  1.00  0.00    -0.392 OA
ATOM     24  H3  UNL     1       2.652  10.400  22.723  1.00  0.00     0.210 HD
ENDBRANCH   3  23
BRANCH   6  25
HETATM   25  C11 UNL     1       3.642   6.381  21.094  1.00  0.00     0.182 C 
HETATM   26  C12 UNL     1       4.174   4.967  21.169  1.00  0.00     0.081 C 
BRANCH  25  27
HETATM   27  O5  UNL     1       2.273   6.274  20.860  1.00  0.00    -0.364 OA
ATOM     28  H5  UNL     1       2.065   5.786  20.072  1.00  0.00     0.213 HD
ENDBRANCH  25  27
BRANCH  25  29
HETATM   29  O6  UNL     1       4.196   6.951  19.940  1.00  0.00    -0.364 OA
ATOM     30  H6  UNL     1       4.637   6.302  19.403  1.00  0.00     0.213 HD
ENDBRANCH  25  29
ENDBRANCH   6  25
TORSDOF 8
ENDMDL
MODEL 4
REMARK VINA RESULT: -7.832736938      1.765      2.512
REMARK  8 active torsions:
REMARK  status: ('A' for Active; 'I' for Inactive)
REMARK    1  A    between atoms: C2_2  and  C3_3 
REMARK    2  A    between atoms: C2_2  and  C6_8 
REMARK    3  A    between atoms: C3_3  and  C4_4 
REMARK    4  A    between atoms: C4_4  and  C5_5 
REMARK    5  A    between atoms: C8_10  and  O3_11 
REMARK    6  A    between atoms: C10_15  and  C11_16 
REMARK    7  A    between atoms: C11_16  and  O5_18 
REMARK    8  A    between atoms: C11_16  and  O6_20 
ROOT
HETATM    1  C6  UNL     1       4.721  11.637  24.090  1.00  0.00    -0.006 C 
HETATM    2  C7  UNL     1       3.831  11.265  22.951  1.00  0.00     0.040 C 
HETATM    3  C8  UNL     1       3.251   9.888  23.285  1.00  0.00     0.157 C 
HETATM    4  C9  UNL     1       4.296   8.835  23.487  1.00  0.00     0.130 C 
HETATM    5  O4  UNL     1       4.069   7.985  24.529  1.00  0.00    -0.363 OA
HETATM    6  C10 UNL     1       3.020   7.144  24.451  1.00  0.00     0.184 C 
HETATM    7  C13 UNL     1       2.821   6.388  23.180  1.00  0.00     0.039 C 
HETATM    8  C14 UNL     1       3.175   7.231  21.943  1.00  0.00     0.025 C 
HETATM    9  C15 UNL     1       4.421   7.918  22.257  1.00  0.00     0.081 C 
HETATM   10  C16 UNL     1       5.494   6.884  22.547  1.00  0.00     0.029 C 
HETATM   11  C17 UNL     1       4.979   8.868  21.298  1.00  0.00     0.271 C 
HETATM   12  O7  UNL     1       4.661   9.006  20.105  1.00  0.00    -0.264 OA
HETATM   13  O8  UNL     1       5.951   9.579  22.039  1.00  0.00    -0.312 OA
HETATM   14  C18 UNL     1       5.685   9.417  23.443  1.00  0.00     0.170 C 
HETATM   15  C19 UNL     1       5.870  10.687  24.200  1.00  0.00     0.041 C 
ENDROOT
BRANCH   1  16
HETATM   16  C2  UNL     1       5.142  13.099  24.069  1.00  0.00    -0.014 C 
HETATM   17  C1  UNL     1       6.637  13.240  24.253  1.00  0.00     0.010 C 
BRANCH  16  18
HETATM   18  C3  UNL     1       4.467  13.791  25.195  1.00  0.00     0.015 C 
BRANCH  18  19
HETATM   19  C4  UNL     1       4.240  15.253  25.036  1.00  0.00     0.113 C 
BRANCH  19  20
HETATM   20  C5  UNL     1       4.896  16.066  26.060  1.00  0.00     0.172 C 
HETATM   21  O1  UNL     1       4.306  16.806  26.873  1.00  0.00    -0.648 OA
HETATM   22  O2  UNL     1       6.299  16.012  26.135  1.00  0.00    -0.648 OA
ENDBRANCH  19  20
ENDBRANCH  18  19
ENDBRANCH  16  18
ENDBRANCH   1  16
BRANCH   3  23
HETATM   23  O3  UNL     1       2.522  10.127  24.477  1.00  0.00    -0.392 OA
ATOM     24  H3  UNL     1       3.037  10.794  24.914  1.00  0.00     0.210 HD
ENDBRANCH   3  23
BRANCH   6  25
HETATM   25  C11 UNL     1       3.068   6.188  25.619  1.00  0.00     0.182 C 
HETATM   26  C12 UNL     1       4.482   5.781  25.969  1.00  0.00     0.081 C 
BRANCH  25  27
HETATM   27  O5  UNL     1       2.511   6.714  26.783  1.00  0.00    -0.364 OA
ATOM     28  H5  UNL     1       2.206   6.047  27.387  1.00  0.00     0.213 HD
ENDBRANCH  25  27
BRANCH  25  29
HETATM   29  O6  UNL     1       2.371   5.003  25.349  1.00  0.00    -0.364 OA
ATOM     30  H6  UNL     1       2.088   4.571  26.146  1.00  0.00     0.213 HD
ENDBRANCH  25  29
ENDBRANCH   6  25
TORSDOF 8
ENDMDL
MODEL 5
REMARK VINA RESULT: -7.805742507      2.877      5.384
REMARK  8 active torsions:
REMARK  status: ('A' for Active; 'I' for Inactive)
REMARK    1  A    between atoms: C2_2  and  C3_3 
REMARK    2  A    between atoms: C2_2  and  C6_8 
REMARK    3  A    between atoms: C3_3  and  C4_4 
REMARK    4  A    between atoms: C4_4  and  C5_5 
REMARK    5  A    between atoms: C8_10  and  O3_11 
REMARK    6  A    between atoms: C10_15  and  C11_16 
REMARK    7  A    between atoms: C11_16  and  O5_18 
REMARK    8  A    between atoms: C11_16  and  O6_20 
ROOT
HETATM    1  C6  UNL     1       1.292  10.253  24.880  1.00  0.00    -0.006 C 
HETATM    2  C7  UNL     1       2.729  10.267  25.283  1.00  0.00     0.040 C 
HETATM    3  C8  UNL     1       3.465   9.358  24.296  1.00  0.00     0.157 C 
HETATM    4  C9  UNL     1       2.948   7.953  24.282  1.00  0.00     0.130 C 
HETATM    5  O4  UNL     1       2.836   7.389  23.046  1.00  0.00    -0.363 OA
HETATM    6  C10 UNL     1       3.963   7.142  22.351  1.00  0.00     0.184 C 
HETATM    7  C13 UNL     1       5.095   6.483  23.064  1.00  0.00     0.039 C 
HETATM    8  C14 UNL     1       5.226   6.966  24.518  1.00  0.00     0.025 C 
HETATM    9  C15 UNL     1       3.874   7.001  25.062  1.00  0.00     0.081 C 
HETATM   10  C16 UNL     1       3.280   5.606  24.993  1.00  0.00     0.029 C 
HETATM   11  C17 UNL     1       3.657   7.502  26.416  1.00  0.00     0.271 C 
HETATM   12  O7  UNL     1       4.514   7.689  27.295  1.00  0.00    -0.264 OA
HETATM   13  O8  UNL     1       2.261   7.718  26.487  1.00  0.00    -0.312 OA
HETATM   14  C18 UNL     1       1.729   7.802  25.154  1.00  0.00     0.170 C 
HETATM   15  C19 UNL     1       0.712   8.883  25.023  1.00  0.00     0.041 C 
ENDROOT
BRANCH   1  16
HETATM   16  C2  UNL     1       0.467  11.336  25.560  1.00  0.00    -0.014 C 
HETATM   17  C1  UNL     1      -0.387  10.757  26.667  1.00  0.00     0.010 C 
BRANCH  16  18
HETATM   18  C3  UNL     1      -0.433  11.940  24.546  1.00  0.00     0.015 C 
BRANCH  18  19
HETATM   19  C4  UNL     1       0.018  13.222  23.939  1.00  0.00     0.113 C 
BRANCH  19  20
HETATM   20  C5  UNL     1       0.788  13.050  22.707  1.00  0.00     0.172 C 
HETATM   21  O1  UNL     1       1.970  12.655  22.651  1.00  0.00    -0.648 OA
HETATM   22  O2  UNL     1       0.150  13.354  21.490  1.00  0.00    -0.648 OA
ENDBRANCH  19  20
ENDBRANCH  18  19
ENDBRANCH  16  18
ENDBRANCH   1  16
BRANCH   3  23
HETATM   23  O3  UNL     1       3.254   9.998  23.049  1.00  0.00    -0.392 OA
ATOM     24  H3  UNL     1       2.785   9.343  22.548  1.00  0.00     0.210 HD
ENDBRANCH   3  23
BRANCH   6  25
HETATM   25  C11 UNL     1       3.612   6.364  21.105  1.00  0.00     0.182 C 
HETATM   26  C12 UNL     1       4.118   4.939  21.158  1.00  0.00     0.081 C 
BRANCH  25  27
HETATM   27  O5  UNL     1       2.241   6.286  20.874  1.00  0.00    -0.364 OA
ATOM     28  H5  UNL     1       2.025   5.998  19.995  1.00  0.00     0.213 HD
ENDBRANCH  25  27
BRANCH  25  29
HETATM   29  O6  UNL     1       4.174   6.940  19.958  1.00  0.00    -0.364 OA
ATOM     30  H6  UNL     1       3.555   7.503  19.507  1.00  0.00     0.213 HD
ENDBRANCH  25  29
ENDBRANCH   6  25
TORSDOF 8
ENDMDL
