MODEL 1
REMARK VINA RESULT: -7.043720644      0.000      0.000
REMARK  7 active torsions:
REMARK  status: ('A' for Active; 'I' for Inactive)
REMARK       I    between atoms: C1_2  and  N2_4 
REMARK       I    between atoms: N2_4  and  C2_6 
REMARK    1  A    between atoms: C2_6  and  C3_8 
REMARK    2  A    between atoms: C3_8  and  N3_9 
REMARK    3  A    between atoms: C3_8  and  C5_14 
REMARK    4  A    between atoms: C5_14  and  O3_15 
REMARK    5  A    between atoms: C5_14  and  C6_17 
REMARK    6  A    between atoms: C6_17  and  O4_18 
REMARK    7  A    between atoms: C6_17  and  N6_20 
ROOT
HETATM    1  C5  UNL     1       3.550 -11.386   6.002  1.00  0.00     0.199 C 
ENDROOT
BRANCH   1   2
HETATM    2  C3  UNL     1       4.188 -12.560   6.664  1.00  0.00     0.209 C 
BRANCH   2   3
HETATM    3  C2  UNL     1       3.426 -12.814   7.917  1.00  0.00     0.250 C 
HETATM    4  N2  UNL     1       2.181 -13.455   7.991  1.00  0.00    -0.280 N 
HETATM    5  C1  UNL     1       1.539 -13.648   9.231  1.00  0.00     0.335 C 
ATOM      6  H2  UNL     1       1.734 -13.786   7.137  1.00  0.00     0.173 HD
HETATM    7  N1  UNL     1       0.279 -14.291   9.369  1.00  0.00    -0.040 NA
HETATM    8  O1  UNL     1       2.088 -13.240  10.300  1.00  0.00    -0.251 OA
HETATM    9  O2  UNL     1       3.960 -12.414   8.979  1.00  0.00    -0.271 OA
ENDBRANCH   2   3
BRANCH   2  10
HETATM   10  N3  UNL     1       5.549 -12.329   7.071  1.00  0.00    -0.351 N 
HETATM   11  C4  UNL     1       6.597 -12.765   6.550  1.00  0.00     0.197 C 
HETATM   12  N4  UNL     1       7.853 -12.431   7.093  1.00  0.00    -0.067 NA
HETATM   13  N5  UNL     1       6.555 -13.595   5.414  1.00  0.00    -0.067 NA
ATOM     14  H3  UNL     1       5.674 -11.734   7.890  1.00  0.00     0.162 HD
ENDBRANCH   2  10
ENDBRANCH   1   2
BRANCH   1  15
HETATM   15  O3  UNL     1       2.525 -10.926   6.830  1.00  0.00    -0.389 OA
ATOM     16  H3  UNL     1       2.484  -9.980   6.751  1.00  0.00     0.210 HD
ENDBRANCH   1  15
BRANCH   1  17
HETATM   17  C6  UNL     1       2.940 -11.691   4.660  1.00  0.00     0.260 C 
BRANCH  17  18
HETATM   18  O4  UNL     1       2.239 -10.598   4.159  1.00  0.00    -0.373 OA
ATOM     19  H4  UNL     1       1.539 -10.336   4.744  1.00  0.00     0.212 HD
ENDBRANCH  17  18
BRANCH  17  20
HETATM   20  N6  UNL     1       4.021 -11.984   3.752  1.00  0.00    -0.280 N 
HETATM   21  C7  UNL     1       4.864 -10.999   3.412  1.00  0.00     0.104 A 
HETATM   22  C8  UNL     1       5.931 -11.231   2.532  1.00  0.00     0.092 A 
HETATM   23  C9  UNL     1       6.051 -12.511   2.053  1.00  0.00     0.250 A 
HETATM   24  O5  UNL     1       6.998 -12.762   1.259  1.00  0.00    -0.268 OA
HETATM   25  N7  UNL     1       5.206 -13.504   2.393  1.00  0.00    -0.275 N 
HETATM   26  C10 UNL     1       4.185 -13.216   3.254  1.00  0.00     0.331 A 
ATOM     27  H7  UNL     1       5.325 -14.445   2.018  1.00  0.00     0.173 HD
HETATM   28  O6  UNL     1       3.390 -14.144   3.576  1.00  0.00    -0.246 OA
ENDBRANCH  17  20
ENDBRANCH   1  17
TORSDOF 7
ENDMDL
MODEL 2
REMARK VINA RESULT: -6.871283467      1.189      1.235
REMARK  7 active torsions:
REMARK  status: ('A' for Active; 'I' for Inactive)
REMARK       I    between atoms: C1_2  and  N2_4 
REMARK       I    between atoms: N2_4  and  C2_6 
REMARK    1  A    between atoms: C2_6  and  C3_8 
REMARK    2  A    between atoms: C3_8  and  N3_9 
REMARK    3  A    between atoms: C3_8  and  C5_14 
REMARK    4  A    between atoms: C5_14  and  O3_15 
REMARK    5  A    between atoms: C5_14  and  C6_17 
REMARK    6  A    between atoms: C6_17  and  O4_18 
REMARK    7  A    between atoms: C6_17  and  N6_20 
ROOT
HETATM    1  C5  UNL     1       3.590 -11.404   6.073  1.00  0.00     0.199 C 
ENDROOT
BRANCH   1   2
HETATM    2  C3  UNL     1       4.285 -12.590   6.650  1.00  0.00     0.209 C 
BRANCH   2   3
HETATM    3  C2  UNL     1       3.580 -12.927   7.917  1.00  0.00     0.250 C 
HETATM    4  N2  UNL     1       3.986 -12.532   9.200  1.00  0.00    -0.280 N 
HETATM    5  C1  UNL     1       3.247 -12.904  10.340  1.00  0.00     0.335 C 
ATOM      6  H2  UNL     1       4.830 -11.969   9.309  1.00  0.00     0.173 HD
HETATM    7  N1  UNL     1       3.609 -12.535  11.664  1.00  0.00    -0.040 NA
HETATM    8  O1  UNL     1       2.196 -13.606  10.214  1.00  0.00    -0.251 OA
HETATM    9  O2  UNL     1       2.541 -13.619   7.803  1.00  0.00    -0.271 OA
ENDBRANCH   2   3
BRANCH   2  10
HETATM   10  N3  UNL     1       5.654 -12.341   7.017  1.00  0.00    -0.351 N 
HETATM   11  C4  UNL     1       6.691 -12.743   6.450  1.00  0.00     0.197 C 
HETATM   12  N4  UNL     1       7.959 -12.396   6.958  1.00  0.00    -0.067 NA
HETATM   13  N5  UNL     1       6.627 -13.546   5.295  1.00  0.00    -0.067 NA
ATOM     14  H3  UNL     1       5.795 -11.764   7.846  1.00  0.00     0.162 HD
ENDBRANCH   2  10
ENDBRANCH   1   2
BRANCH   1  15
HETATM   15  O3  UNL     1       2.599 -11.003   6.969  1.00  0.00    -0.389 OA
ATOM     16  H3  UNL     1       1.991 -10.440   6.504  1.00  0.00     0.210 HD
ENDBRANCH   1  15
BRANCH   1  17
HETATM   17  C6  UNL     1       2.922 -11.665   4.749  1.00  0.00     0.260 C 
BRANCH  17  18
HETATM   18  O4  UNL     1       2.218 -10.548   4.306  1.00  0.00    -0.373 OA
ATOM     19  H4  UNL     1       1.344 -10.781   4.015  1.00  0.00     0.212 HD
ENDBRANCH  17  18
BRANCH  17  20
HETATM   20  N6  UNL     1       3.960 -11.950   3.790  1.00  0.00    -0.280 N 
HETATM   21  C7  UNL     1       4.810 -10.971   3.449  1.00  0.00     0.104 A 
HETATM   22  C8  UNL     1       5.837 -11.196   2.521  1.00  0.00     0.092 A 
HETATM   23  C9  UNL     1       5.910 -12.462   1.996  1.00  0.00     0.250 A 
HETATM   24  O5  UNL     1       6.819 -12.706   1.157  1.00  0.00    -0.268 OA
HETATM   25  N7  UNL     1       5.056 -13.448   2.337  1.00  0.00    -0.275 N 
HETATM   26  C10 UNL     1       4.077 -13.167   3.246  1.00  0.00     0.331 A 
ATOM     27  H7  UNL     1       5.141 -14.378   1.927  1.00  0.00     0.173 HD
HETATM   28  O6  UNL     1       3.275 -14.089   3.569  1.00  0.00    -0.246 OA
ENDBRANCH  17  20
ENDBRANCH   1  17
TORSDOF 7
ENDMDL
MODEL 3
REMARK VINA RESULT: -6.676420953      1.676      1.955
REMARK  7 active torsions:
REMARK  status: ('A' for Active; 'I' for Inactive)
REMARK       I    between atoms: C1_2  and  N2_4 
REMARK       I    between atoms: N2_4  and  C2_6 
REMARK    1  A    between atoms: C2_6  and  C3_8 
REMARK    2  A    between atoms: C3_8  and  N3_9 
REMARK    3  A    between atoms: C3_8  and  C5_14 
REMARK    4  A    between atoms: C5_14  and  O3_15 
REMARK    5  A    between atoms: C5_14  and  C6_17 
REMARK    6  A    between atoms: C6_17  and  O4_18 
REMARK    7  A    between atoms: C6_17  and  N6_20 
ROOT
HETATM    1  C5  UNL     1       3.586 -11.161   6.096  1.00  0.00     0.199 C 
ENDROOT
BRANCH   1   2
HETATM    2  C3  UNL     1       4.127 -12.440   6.637  1.00  0.00     0.209 C 
BRANCH   2   3
HETATM    3  C2  UNL     1       3.384 -12.722   7.895  1.00  0.00     0.250 C 
HETATM    4  N2  UNL     1       2.163 -13.408   7.978  1.00  0.00    -0.280 N 
HETATM    5  C1  UNL     1       1.537 -13.625   9.222  1.00  0.00     0.335 C 
ATOM      6  H2  UNL     1       1.721 -13.753   7.126  1.00  0.00     0.173 HD
HETATM    7  N1  UNL     1       0.301 -14.312   9.368  1.00  0.00    -0.040 NA
HETATM    8  O1  UNL     1       2.078 -13.197  10.288  1.00  0.00    -0.251 OA
HETATM    9  O2  UNL     1       3.910 -12.305   8.954  1.00  0.00    -0.271 OA
ENDBRANCH   2   3
BRANCH   2  10
HETATM   10  N3  UNL     1       5.516 -12.375   7.007  1.00  0.00    -0.351 N 
HETATM   11  C4  UNL     1       6.495 -12.892   6.430  1.00  0.00     0.197 C 
HETATM   12  N4  UNL     1       7.795 -12.720   6.944  1.00  0.00    -0.067 NA
HETATM   13  N5  UNL     1       6.331 -13.654   5.258  1.00  0.00    -0.067 NA
ATOM     14  H3  UNL     1       5.728 -11.839   7.849  1.00  0.00     0.162 HD
ENDBRANCH   2  10
ENDBRANCH   1   2
BRANCH   1  15
HETATM   15  O3  UNL     1       2.326 -10.951   6.655  1.00  0.00    -0.389 OA
ATOM     16  H3  UNL     1       2.022 -10.093   6.385  1.00  0.00     0.210 HD
ENDBRANCH   1  15
BRANCH   1  17
HETATM   17  C6  UNL     1       3.423 -11.145   4.599  1.00  0.00     0.260 C 
BRANCH  17  18
HETATM   18  O4  UNL     1       2.208 -10.576   4.226  1.00  0.00    -0.373 OA
ATOM     19  H4  UNL     1       2.336  -9.808   3.683  1.00  0.00     0.212 HD
ENDBRANCH  17  18
BRANCH  17  20
HETATM   20  N6  UNL     1       4.483 -10.331   4.058  1.00  0.00    -0.280 N 
HETATM   21  C7  UNL     1       4.642  -9.084   4.524  1.00  0.00     0.104 A 
HETATM   22  C8  UNL     1       5.657  -8.252   4.032  1.00  0.00     0.092 A 
HETATM   23  C9  UNL     1       6.461  -8.790   3.058  1.00  0.00     0.250 A 
HETATM   24  O5  UNL     1       7.386  -8.075   2.588  1.00  0.00    -0.268 OA
HETATM   25  N7  UNL     1       6.303 -10.043   2.587  1.00  0.00    -0.275 N 
HETATM   26  C10 UNL     1       5.296 -10.806   3.106  1.00  0.00     0.331 A 
ATOM     27  H7  UNL     1       6.920 -10.412   1.863  1.00  0.00     0.173 HD
HETATM   28  O6  UNL     1       5.145 -11.981   2.668  1.00  0.00    -0.246 OA
ENDBRANCH  17  20
ENDBRANCH   1  17
TORSDOF 7
ENDMDL
MODEL 4
REMARK VINA RESULT: -6.662035961      0.944      1.358
REMARK  7 active torsions:
REMARK  status: ('A' for Active; 'I' for Inactive)
REMARK       I    between atoms: C1_2  and  N2_4 
REMARK       I    between atoms: N2_4  and  C2_6 
REMARK    1  A    between atoms: C2_6  and  C3_8 
REMARK    2  A    between atoms: C3_8  and  N3_9 
REMARK    3  A    between atoms: C3_8  and  C5_14 
REMARK    4  A    between atoms: C5_14  and  O3_15 
REMARK    5  A    between atoms: C5_14  and  C6_17 
REMARK    6  A    between atoms: C6_17  and  O4_18 
REMARK    7  A    between atoms: C6_17  and  N6_20 
ROOT
HETATM    1  C5  UNL     1       3.596 -11.463   5.995  1.00  0.00     0.199 C 
ENDROOT
BRANCH   1   2
HETATM    2  C3  UNL     1       4.264 -12.610   6.674  1.00  0.00     0.209 C 
BRANCH   2   3
HETATM    3  C2  UNL     1       3.486 -12.890   7.911  1.00  0.00     0.250 C 
HETATM    4  N2  UNL     1       2.217 -13.487   7.952  1.00  0.00    -0.280 N 
HETATM    5  C1  UNL     1       1.561 -13.710   9.179  1.00  0.00     0.335 C 
ATOM      6  H2  UNL     1       1.763 -13.763   7.081  1.00  0.00     0.173 HD
HETATM    7  N1  UNL     1       0.277 -14.310   9.282  1.00  0.00    -0.040 NA
HETATM    8  O1  UNL     1       2.117 -13.369  10.267  1.00  0.00    -0.251 OA
HETATM    9  O2  UNL     1       4.027 -12.557   8.991  1.00  0.00    -0.271 OA
ENDBRANCH   2   3
BRANCH   2  10
HETATM   10  N3  UNL     1       5.606 -12.328   7.109  1.00  0.00    -0.351 N 
HETATM   11  C4  UNL     1       6.681 -12.661   6.568  1.00  0.00     0.197 C 
HETATM   12  N4  UNL     1       7.912 -12.291   7.146  1.00  0.00    -0.067 NA
HETATM   13  N5  UNL     1       6.696 -13.408   5.375  1.00  0.00    -0.067 NA
ATOM     14  H3  UNL     1       5.690 -11.786   7.970  1.00  0.00     0.162 HD
ENDBRANCH   2  10
ENDBRANCH   1   2
BRANCH   1  15
HETATM   15  O3  UNL     1       2.654 -10.928   6.874  1.00  0.00    -0.389 OA
ATOM     16  H3  UNL     1       2.938 -11.115   7.760  1.00  0.00     0.210 HD
ENDBRANCH   1  15
BRANCH   1  17
HETATM   17  C6  UNL     1       2.871 -11.833   4.728  1.00  0.00     0.260 C 
BRANCH  17  18
HETATM   18  O4  UNL     1       2.217 -10.735   4.177  1.00  0.00    -0.373 OA
ATOM     19  H4  UNL     1       2.815 -10.012   4.031  1.00  0.00     0.212 HD
ENDBRANCH  17  18
BRANCH  17  20
HETATM   20  N6  UNL     1       3.859 -12.288   3.783  1.00  0.00    -0.280 N 
HETATM   21  C7  UNL     1       3.821 -13.563   3.370  1.00  0.00     0.104 A 
HETATM   22  C8  UNL     1       4.759 -14.054   2.452  1.00  0.00     0.092 A 
HETATM   23  C9  UNL     1       5.701 -13.159   2.013  1.00  0.00     0.250 A 
HETATM   24  O5  UNL     1       6.564 -13.561   1.186  1.00  0.00    -0.268 OA
HETATM   25  N7  UNL     1       5.743 -11.876   2.425  1.00  0.00    -0.275 N 
HETATM   26  C10 UNL     1       4.802 -11.456   3.322  1.00  0.00     0.331 A 
ATOM     27  H7  UNL     1       6.458 -11.237   2.077  1.00  0.00     0.173 HD
HETATM   28  O6  UNL     1       4.837 -10.255   3.711  1.00  0.00    -0.246 OA
ENDBRANCH  17  20
ENDBRANCH   1  17
TORSDOF 7
ENDMDL
MODEL 5
REMARK VINA RESULT: -6.468203949      2.069      2.341
REMARK  7 active torsions:
REMARK  status: ('A' for Active; 'I' for Inactive)
REMARK       I    between atoms: C1_2  and  N2_4 
REMARK       I    between atoms: N2_4  and  C2_6 
REMARK    1  A    between atoms: C2_6  and  C3_8 
REMARK    2  A    between atoms: C3_8  and  N3_9 
REMARK    3  A    between atoms: C3_8  and  C5_14 
REMARK    4  A    between atoms: C5_14  and  O3_15 
REMARK    5  A    between atoms: C5_14  and  C6_17 
REMARK    6  A    between atoms: C6_17  and  O4_18 
REMARK    7  A    between atoms: C6_17  and  N6_20 
ROOT
HETATM    1  C5  UNL     1       3.598 -11.220   6.170  1.00  0.00     0.199 C 
ENDROOT
BRANCH   1   2
HETATM    2  C3  UNL     1       4.232 -12.489   6.629  1.00  0.00     0.209 C 
BRANCH   2   3
HETATM    3  C2  UNL     1       3.556 -12.873   7.899  1.00  0.00     0.250 C 
HETATM    4  N2  UNL     1       3.957 -12.474   9.182  1.00  0.00    -0.280 N 
HETATM    5  C1  UNL     1       3.247 -12.893  10.325  1.00  0.00     0.335 C 
ATOM      6  H2  UNL     1       4.774 -11.874   9.290  1.00  0.00     0.173 HD
HETATM    7  N1  UNL     1       3.605 -12.522  11.650  1.00  0.00    -0.040 NA
HETATM    8  O1  UNL     1       2.229 -13.642  10.201  1.00  0.00    -0.251 OA
HETATM    9  O2  UNL     1       2.549 -13.611   7.787  1.00  0.00    -0.271 OA
ENDBRANCH   2   3
BRANCH   2  10
HETATM   10  N3  UNL     1       5.628 -12.360   6.951  1.00  0.00    -0.351 N 
HETATM   11  C4  UNL     1       6.608 -12.859   6.360  1.00  0.00     0.197 C 
HETATM   12  N4  UNL     1       7.916 -12.621   6.825  1.00  0.00    -0.067 NA
HETATM   13  N5  UNL     1       6.437 -13.667   5.220  1.00  0.00    -0.067 NA
ATOM     14  H3  UNL     1       5.846 -11.787   7.767  1.00  0.00     0.162 HD
ENDBRANCH   2  10
ENDBRANCH   1   2
BRANCH   1  15
HETATM   15  O3  UNL     1       2.349 -11.113   6.782  1.00  0.00    -0.389 OA
ATOM     16  H3  UNL     1       1.888 -10.384   6.385  1.00  0.00     0.210 HD
ENDBRANCH   1  15
BRANCH   1  17
HETATM   17  C6  UNL     1       3.380 -11.142   4.683  1.00  0.00     0.260 C 
BRANCH  17  18
HETATM   18  O4  UNL     1       2.150 -10.567   4.378  1.00  0.00    -0.373 OA
ATOM     19  H4  UNL     1       2.161  -9.628   4.518  1.00  0.00     0.212 HD
ENDBRANCH  17  18
BRANCH  17  20
HETATM   20  N6  UNL     1       4.415 -10.300   4.138  1.00  0.00    -0.280 N 
HETATM   21  C7  UNL     1       4.527  -9.042   4.587  1.00  0.00     0.104 A 
HETATM   22  C8  UNL     1       5.517  -8.182   4.090  1.00  0.00     0.092 A 
HETATM   23  C9  UNL     1       6.346  -8.706   3.130  1.00  0.00     0.250 A 
HETATM   24  O5  UNL     1       7.250  -7.966   2.657  1.00  0.00    -0.268 OA
HETATM   25  N7  UNL     1       6.237  -9.971   2.677  1.00  0.00    -0.275 N 
HETATM   26  C10 UNL     1       5.252 -10.761   3.200  1.00  0.00     0.331 A 
ATOM     27  H7  UNL     1       6.872 -10.328   1.963  1.00  0.00     0.173 HD
HETATM   28  O6  UNL     1       5.146 -11.946   2.778  1.00  0.00    -0.246 OA
ENDBRANCH  17  20
ENDBRANCH   1  17
TORSDOF 7
ENDMDL
