MODEL 1
REMARK VINA RESULT: -6.666463160      0.000      0.000
REMARK  5 active torsions:
REMARK  status: ('A' for Active; 'I' for Inactive)
REMARK    1  A    between atoms: C1_2  and  C2_4 
REMARK    2  A    between atoms: C2_4  and  N2_5 
REMARK    3  A    between atoms: C4_8  and  C5_9 
REMARK    4  A    between atoms: C6_10  and  C7_11 
REMARK       I    between atoms: C7_11  and  N4_13 
REMARK    5  A    between atoms: N4_13  and  N5_15 
REMARK       I    between atoms: N5_15  and  C8_16 
REMARK       I    between atoms: C8_16  and  N6_17 
REMARK       I    between atoms: C8_16  and  N7_21 
ROOT
HETATM    1  C5  UNL     1       4.044 -12.295   6.881  1.00  0.00    -0.048 C 
HETATM    2  C6  UNL     1       3.773 -12.411   8.049  1.00  0.00     0.002 C 
ENDROOT
BRANCH   1   3
HETATM    3  C4  UNL     1       4.370 -12.132   5.500  1.00  0.00     0.127 A 
HETATM    4  C3  UNL     1       5.367 -12.916   4.965  1.00  0.00     0.147 A 
HETATM    5  N2  UNL     1       5.708 -12.789   3.644  1.00  0.00    -0.278 N 
HETATM    6  N3  UNL     1       6.098 -13.883   5.706  1.00  0.00    -0.081 NA
HETATM    7  C10 UNL     1       5.062 -11.895   2.877  1.00  0.00     0.331 A 
HETATM    8  N8  UNL     1       4.071 -11.101   3.366  1.00  0.00    -0.274 N 
HETATM    9  O4  UNL     1       5.337 -11.736   1.647  1.00  0.00    -0.246 OA
HETATM   10  C9  UNL     1       3.741 -11.231   4.665  1.00  0.00     0.271 A 
ATOM     11  H8  UNL     1       3.592 -10.429   2.767  1.00  0.00     0.173 HD
HETATM   12  O3  UNL     1       2.823 -10.492   5.110  1.00  0.00    -0.266 OA
BRANCH   5  13
HETATM   13  C2  UNL     1       6.750 -13.608   3.079  1.00  0.00     0.234 C 
BRANCH  13  14
HETATM   14  C1  UNL     1       8.015 -12.849   2.928  1.00  0.00     0.249 C 
HETATM   15  N1  UNL     1       8.602 -12.618   1.658  1.00  0.00    -0.061 NA
HETATM   16  O1  UNL     1       8.589 -12.396   3.941  1.00  0.00    -0.275 OA
ENDBRANCH  13  14
ENDBRANCH   5  13
ENDBRANCH   1   3
BRANCH   2  17
HETATM   17  C7  UNL     1       3.434 -12.531   9.440  1.00  0.00     0.312 C 
HETATM   18  O2  UNL     1       3.040 -13.661   9.821  1.00  0.00    -0.257 OA
HETATM   19  N4  UNL     1       3.519 -11.476  10.366  1.00  0.00    -0.259 N 
ATOM     20  H4  UNL     1       3.838 -10.557  10.057  1.00  0.00     0.186 HD
BRANCH  19  21
HETATM   21  N5  UNL     1       3.175 -11.671  11.690  1.00  0.00    -0.077 NA
HETATM   22  C8  UNL     1       4.346 -11.693  12.545  1.00  0.00     0.490 C 
HETATM   23  N6  UNL     1       5.188 -12.792  12.106  1.00  0.00    -0.035 N 
HETATM   24  N7  UNL     1       3.993 -11.839  13.937  1.00  0.00    -0.035 N 
ATOM     25  H63 UNL     1       4.696 -13.685  12.082  1.00  0.00     0.278 HD
ATOM     26  H62 UNL     1       5.421 -12.742  11.114  1.00  0.00     0.278 HD
ATOM     27  H61 UNL     1       6.012 -12.807  12.707  1.00  0.00     0.278 HD
ATOM     28  H73 UNL     1       3.334 -11.119  14.230  1.00  0.00     0.278 HD
ATOM     29  H72 UNL     1       3.410 -12.663  14.087  1.00  0.00     0.278 HD
ATOM     30  H71 UNL     1       4.817 -11.855  14.539  1.00  0.00     0.278 HD
ENDBRANCH  19  21
ENDBRANCH   2  17
TORSDOF 5
ENDMDL
MODEL 2
REMARK VINA RESULT: -6.438189893      2.107      2.338
REMARK  5 active torsions:
REMARK  status: ('A' for Active; 'I' for Inactive)
REMARK    1  A    between atoms: C1_2  and  C2_4 
REMARK    2  A    between atoms: C2_4  and  N2_5 
REMARK    3  A    between atoms: C4_8  and  C5_9 
REMARK    4  A    between atoms: C6_10  and  C7_11 
REMARK       I    between atoms: C7_11  and  N4_13 
REMARK    5  A    between atoms: N4_13  and  N5_15 
REMARK       I    between atoms: N5_15  and  C8_16 
REMARK       I    between atoms: C8_16  and  N6_17 
REMARK       I    between atoms: C8_16  and  N7_21 
ROOT
HETATM    1  C5  UNL     1       4.194 -11.495   6.640  1.00  0.00    -0.048 C 
HETATM    2  C6  UNL     1       3.838 -11.548   7.790  1.00  0.00     0.002 C 
ENDROOT
BRANCH   1   3
HETATM    3  C4  UNL     1       4.623 -11.457   5.278  1.00  0.00     0.127 A 
HETATM    4  C3  UNL     1       5.843 -10.887   4.991  1.00  0.00     0.147 A 
HETATM    5  N2  UNL     1       6.289 -10.832   3.697  1.00  0.00    -0.278 N 
HETATM    6  N3  UNL     1       6.707 -10.331   5.971  1.00  0.00    -0.081 NA
HETATM    7  C10 UNL     1       5.527 -11.338   2.712  1.00  0.00     0.331 A 
HETATM    8  N8  UNL     1       4.315 -11.909   2.953  1.00  0.00    -0.274 N 
HETATM    9  O4  UNL     1       5.891 -11.314   1.495  1.00  0.00    -0.246 OA
HETATM   10  C9  UNL     1       3.883 -11.959   4.227  1.00  0.00     0.271 A 
ATOM     11  H8  UNL     1       3.752 -12.287   2.191  1.00  0.00     0.173 HD
HETATM   12  O3  UNL     1       2.760 -12.489   4.441  1.00  0.00    -0.266 OA
BRANCH   5  13
HETATM   13  C2  UNL     1       7.565 -10.239   3.391  1.00  0.00     0.234 C 
BRANCH  13  14
HETATM   14  C1  UNL     1       7.407  -8.922   2.729  1.00  0.00     0.249 C 
HETATM   15  N1  UNL     1       6.617  -7.889   3.296  1.00  0.00    -0.061 NA
HETATM   16  O1  UNL     1       7.980  -8.704   1.641  1.00  0.00    -0.275 OA
ENDBRANCH  13  14
ENDBRANCH   5  13
ENDBRANCH   1   3
BRANCH   2  17
HETATM   17  C7  UNL     1       3.435 -11.622   9.166  1.00  0.00     0.312 C 
HETATM   18  O2  UNL     1       2.729 -10.674   9.591  1.00  0.00    -0.257 OA
HETATM   19  N4  UNL     1       3.784 -12.671  10.035  1.00  0.00    -0.259 N 
ATOM     20  H4  UNL     1       4.358 -13.442   9.691  1.00  0.00     0.186 HD
BRANCH  19  21
HETATM   21  N5  UNL     1       3.356 -12.671  11.348  1.00  0.00    -0.077 NA
HETATM   22  C8  UNL     1       4.324 -12.037  12.222  1.00  0.00     0.490 C 
HETATM   23  N6  UNL     1       5.562 -12.792  12.124  1.00  0.00    -0.035 N 
HETATM   24  N7  UNL     1       3.862 -11.981  13.589  1.00  0.00    -0.035 N 
ATOM     25  H63 UNL     1       5.438 -13.785  12.322  1.00  0.00     0.278 HD
ATOM     26  H62 UNL     1       5.895 -12.887  11.165  1.00  0.00     0.278 HD
ATOM     27  H61 UNL     1       6.243 -12.346  12.739  1.00  0.00     0.278 HD
ATOM     28  H73 UNL     1       2.952 -11.527  13.653  1.00  0.00     0.278 HD
ATOM     29  H72 UNL     1       3.605 -12.907  13.931  1.00  0.00     0.278 HD
ATOM     30  H71 UNL     1       4.543 -11.535  14.203  1.00  0.00     0.278 HD
ENDBRANCH  19  21
ENDBRANCH   2  17
TORSDOF 5
ENDMDL
MODEL 3
REMARK VINA RESULT: -6.356714386      1.712      2.055
REMARK  5 active torsions:
REMARK  status: ('A' for Active; 'I' for Inactive)
REMARK    1  A    between atoms: C1_2  and  C2_4 
REMARK    2  A    between atoms: C2_4  and  N2_5 
REMARK    3  A    between atoms: C4_8  and  C5_9 
REMARK    4  A    between atoms: C6_10  and  C7_11 
REMARK       I    between atoms: C7_11  and  N4_13 
REMARK    5  A    between atoms: N4_13  and  N5_15 
REMARK       I    between atoms: N5_15  and  C8_16 
REMARK       I    between atoms: C8_16  and  N6_17 
REMARK       I    between atoms: C8_16  and  N7_21 
ROOT
HETATM    1  C5  UNL     1       4.081 -12.394   6.701  1.00  0.00    -0.048 C 
HETATM    2  C6  UNL     1       3.803 -12.483   7.870  1.00  0.00     0.002 C 
ENDROOT
BRANCH   1   3
HETATM    3  C4  UNL     1       4.409 -12.263   5.317  1.00  0.00     0.127 A 
HETATM    4  C3  UNL     1       4.917 -11.062   4.875  1.00  0.00     0.147 A 
HETATM    5  N2  UNL     1       5.244 -10.897   3.555  1.00  0.00    -0.278 N 
HETATM    6  N3  UNL     1       5.135  -9.937   5.716  1.00  0.00    -0.081 NA
HETATM    7  C10 UNL     1       5.065 -11.916   2.697  1.00  0.00     0.331 A 
HETATM    8  N8  UNL     1       4.567 -13.119   3.093  1.00  0.00    -0.274 N 
HETATM    9  O4  UNL     1       5.352 -11.819   1.463  1.00  0.00    -0.246 OA
HETATM   10  C9  UNL     1       4.247 -13.274   4.392  1.00  0.00     0.271 A 
ATOM     11  H8  UNL     1       4.439 -13.879   2.426  1.00  0.00     0.173 HD
HETATM   12  O3  UNL     1       3.786 -14.390   4.750  1.00  0.00    -0.266 OA
BRANCH   5  13
HETATM   13  C2  UNL     1       5.776  -9.643   3.088  1.00  0.00     0.234 C 
BRANCH  13  14
HETATM   14  C1  UNL     1       7.217  -9.754   2.758  1.00  0.00     0.249 C 
HETATM   15  N1  UNL     1       7.715  -9.451   1.465  1.00  0.00    -0.061 NA
HETATM   16  O1  UNL     1       8.026 -10.124   3.635  1.00  0.00    -0.275 OA
ENDBRANCH  13  14
ENDBRANCH   5  13
ENDBRANCH   1   3
BRANCH   2  17
HETATM   17  C7  UNL     1       3.452 -12.573   9.260  1.00  0.00     0.312 C 
HETATM   18  O2  UNL     1       3.095 -13.706   9.671  1.00  0.00    -0.257 OA
HETATM   19  N4  UNL     1       3.485 -11.489  10.154  1.00  0.00    -0.259 N 
ATOM     20  H4  UNL     1       3.773 -10.568   9.822  1.00  0.00     0.186 HD
BRANCH  19  21
HETATM   21  N5  UNL     1       3.133 -11.657  11.480  1.00  0.00    -0.077 NA
HETATM   22  C8  UNL     1       4.297 -11.641  12.345  1.00  0.00     0.490 C 
HETATM   23  N6  UNL     1       5.159 -12.737  11.939  1.00  0.00    -0.035 N 
HETATM   24  N7  UNL     1       3.934 -11.759  13.738  1.00  0.00    -0.035 N 
ATOM     25  H63 UNL     1       4.680 -13.638  11.933  1.00  0.00     0.278 HD
ATOM     26  H62 UNL     1       5.400 -12.708  10.949  1.00  0.00     0.278 HD
ATOM     27  H61 UNL     1       5.978 -12.725  12.548  1.00  0.00     0.278 HD
ATOM     28  H73 UNL     1       3.262 -11.042  14.008  1.00  0.00     0.278 HD
ATOM     29  H72 UNL     1       3.362 -12.587  13.903  1.00  0.00     0.278 HD
ATOM     30  H71 UNL     1       4.753 -11.747  14.346  1.00  0.00     0.278 HD
ENDBRANCH  19  21
ENDBRANCH   2  17
TORSDOF 5
ENDMDL
MODEL 4
REMARK VINA RESULT: -6.326653625      2.515      4.500
REMARK  5 active torsions:
REMARK  status: ('A' for Active; 'I' for Inactive)
REMARK    1  A    between atoms: C1_2  and  C2_4 
REMARK    2  A    between atoms: C2_4  and  N2_5 
REMARK    3  A    between atoms: C4_8  and  C5_9 
REMARK    4  A    between atoms: C6_10  and  C7_11 
REMARK       I    between atoms: C7_11  and  N4_13 
REMARK    5  A    between atoms: N4_13  and  N5_15 
REMARK       I    between atoms: N5_15  and  C8_16 
REMARK       I    between atoms: C8_16  and  N6_17 
REMARK       I    between atoms: C8_16  and  N7_21 
ROOT
HETATM    1  C5  UNL     1       4.396 -11.644  10.950  1.00  0.00    -0.048 C 
HETATM    2  C6  UNL     1       4.784 -11.482  12.079  1.00  0.00     0.002 C 
ENDROOT
BRANCH   1   3
HETATM    3  C4  UNL     1       3.946 -11.814   9.605  1.00  0.00     0.127 A 
HETATM    4  C3  UNL     1       4.729 -11.322   8.586  1.00  0.00     0.147 A 
HETATM    5  N2  UNL     1       4.333 -11.466   7.282  1.00  0.00    -0.278 N 
HETATM    6  N3  UNL     1       5.965 -10.651   8.790  1.00  0.00    -0.081 NA
HETATM    7  C10 UNL     1       3.174 -12.090   7.008  1.00  0.00     0.331 A 
HETATM    8  N8  UNL     1       2.371 -12.591   7.986  1.00  0.00    -0.274 N 
HETATM    9  O4  UNL     1       2.759 -12.252   5.819  1.00  0.00    -0.246 OA
HETATM   10  C9  UNL     1       2.767 -12.445   9.265  1.00  0.00     0.271 A 
ATOM     11  H8  UNL     1       1.496 -13.061   7.757  1.00  0.00     0.173 HD
HETATM   12  O3  UNL     1       2.018 -12.911  10.164  1.00  0.00    -0.266 OA
BRANCH   5  13
HETATM   13  C2  UNL     1       5.149 -10.954   6.212  1.00  0.00     0.234 C 
BRANCH  13  14
HETATM   14  C1  UNL     1       5.899 -12.039   5.535  1.00  0.00     0.249 C 
HETATM   15  N1  UNL     1       6.880 -12.808   6.213  1.00  0.00    -0.061 NA
HETATM   16  O1  UNL     1       5.671 -12.292   4.333  1.00  0.00    -0.275 OA
ENDBRANCH  13  14
ENDBRANCH   5  13
ENDBRANCH   1   3
BRANCH   2  17
HETATM   17  C7  UNL     1       5.237 -11.265  13.425  1.00  0.00     0.312 C 
HETATM   18  O2  UNL     1       6.470 -11.071  13.573  1.00  0.00    -0.257 OA
HETATM   19  N4  UNL     1       4.394 -11.261  14.550  1.00  0.00    -0.259 N 
ATOM     20  H4  UNL     1       3.393 -11.419  14.432  1.00  0.00     0.186 HD
BRANCH  19  21
HETATM   21  N5  UNL     1       4.907 -11.044  15.814  1.00  0.00    -0.077 NA
HETATM   22  C8  UNL     1       5.108 -12.291  16.527  1.00  0.00     0.490 C 
HETATM   23  N6  UNL     1       3.815 -12.943  16.643  1.00  0.00    -0.035 N 
HETATM   24  N7  UNL     1       5.696 -12.080  17.828  1.00  0.00    -0.035 N 
ATOM     25  H63 UNL     1       3.108 -12.348  17.074  1.00  0.00     0.278 HD
ATOM     26  H62 UNL     1       3.351 -13.069  15.743  1.00  0.00     0.278 HD
ATOM     27  H61 UNL     1       3.957 -13.820  17.143  1.00  0.00     0.278 HD
ATOM     28  H73 UNL     1       6.563 -11.547  17.761  1.00  0.00     0.278 HD
ATOM     29  H72 UNL     1       5.146 -11.422  18.381  1.00  0.00     0.278 HD
ATOM     30  H71 UNL     1       5.838 -12.957  18.329  1.00  0.00     0.278 HD
ENDBRANCH  19  21
ENDBRANCH   2  17
TORSDOF 5
ENDMDL
MODEL 5
REMARK VINA RESULT: -6.266089478      1.260      1.538
REMARK  5 active torsions:
REMARK  status: ('A' for Active; 'I' for Inactive)
REMARK    1  A    between atoms: C1_2  and  C2_4 
REMARK    2  A    between atoms: C2_4  and  N2_5 
REMARK    3  A    between atoms: C4_8  and  C5_9 
REMARK    4  A    between atoms: C6_10  and  C7_11 
REMARK       I    between atoms: C7_11  and  N4_13 
REMARK    5  A    between atoms: N4_13  and  N5_15 
REMARK       I    between atoms: N5_15  and  C8_16 
REMARK       I    between atoms: C8_16  and  N6_17 
REMARK       I    between atoms: C8_16  and  N7_21 
ROOT
HETATM    1  C5  UNL     1       4.029 -12.144   6.809  1.00  0.00    -0.048 C 
HETATM    2  C6  UNL     1       3.750 -12.332   7.966  1.00  0.00     0.002 C 
ENDROOT
BRANCH   1   3
HETATM    3  C4  UNL     1       4.377 -11.903   5.445  1.00  0.00     0.127 A 
HETATM    4  C3  UNL     1       5.123 -12.852   4.782  1.00  0.00     0.147 A 
HETATM    5  N2  UNL     1       5.476 -12.658   3.473  1.00  0.00    -0.278 N 
HETATM    6  N3  UNL     1       5.572 -14.062   5.375  1.00  0.00    -0.081 NA
HETATM    7  C10 UNL     1       5.089 -11.536   2.842  1.00  0.00     0.331 A 
HETATM    8  N8  UNL     1       4.351 -10.574   3.461  1.00  0.00    -0.274 N 
HETATM    9  O4  UNL     1       5.388 -11.305   1.629  1.00  0.00    -0.246 OA
HETATM   10  C9  UNL     1       4.008 -10.771   4.748  1.00  0.00     0.271 A 
ATOM     11  H8  UNL     1       4.067  -9.730   2.964  1.00  0.00     0.173 HD
HETATM   12  O3  UNL     1       3.325  -9.876   5.313  1.00  0.00    -0.266 OA
BRANCH   5  13
HETATM   13  C2  UNL     1       6.256 -13.647   2.774  1.00  0.00     0.234 C 
BRANCH  13  14
HETATM   14  C1  UNL     1       5.480 -14.276   1.679  1.00  0.00     0.249 C 
HETATM   15  N1  UNL     1       6.003 -14.398   0.366  1.00  0.00    -0.061 NA
HETATM   16  O1  UNL     1       4.332 -14.713   1.905  1.00  0.00    -0.275 OA
ENDBRANCH  13  14
ENDBRANCH   5  13
ENDBRANCH   1   3
BRANCH   2  17
HETATM   17  C7  UNL     1       3.415 -12.531   9.348  1.00  0.00     0.312 C 
HETATM   18  O2  UNL     1       3.097 -13.701   9.681  1.00  0.00    -0.257 OA
HETATM   19  N4  UNL     1       3.424 -11.513  10.317  1.00  0.00    -0.259 N 
ATOM     20  H4  UNL     1       3.681 -10.562  10.049  1.00  0.00     0.186 HD
BRANCH  19  21
HETATM   21  N5  UNL     1       3.089 -11.785  11.630  1.00  0.00    -0.077 NA
HETATM   22  C8  UNL     1       4.254 -11.751  12.493  1.00  0.00     0.490 C 
HETATM   23  N6  UNL     1       5.180 -12.764  12.018  1.00  0.00    -0.035 N 
HETATM   24  N7  UNL     1       3.907 -11.979  13.876  1.00  0.00    -0.035 N 
ATOM     25  H63 UNL     1       4.758 -13.691  11.956  1.00  0.00     0.278 HD
ATOM     26  H62 UNL     1       5.414 -12.658  11.031  1.00  0.00     0.278 HD
ATOM     27  H61 UNL     1       6.000 -12.740  12.625  1.00  0.00     0.278 HD
ATOM     28  H73 UNL     1       3.193 -11.322  14.191  1.00  0.00     0.278 HD
ATOM     29  H72 UNL     1       3.387 -12.849  13.989  1.00  0.00     0.278 HD
ATOM     30  H71 UNL     1       4.726 -11.955  14.483  1.00  0.00     0.278 HD
ENDBRANCH  19  21
ENDBRANCH   2  17
TORSDOF 5
ENDMDL
