MODEL 1
REMARK VINA RESULT: -4.149099353      0.000      0.000
REMARK  8 active torsions:
REMARK  status: ('A' for Active; 'I' for Inactive)
REMARK    1  A    between atoms: N1_1  and  C1_4 
REMARK    2  A    between atoms: C2_7  and  N3_8 
REMARK    3  A    between atoms: N3_8  and  C3_10 
REMARK    4  A    between atoms: C3_10  and  C4_11 
REMARK    5  A    between atoms: C4_11  and  N4_12 
REMARK    6  A    between atoms: N4_12  and  N5_13 
REMARK    7  A    between atoms: C6_19  and  S1_20 
REMARK    8  A    between atoms: S1_20  and  N7_21 
ROOT
HETATM    1  C1  UNL     1      45.984  19.471  33.075  1.00  0.00     0.678 A 
HETATM    2  N2  UNL     1      45.035  18.509  33.103  1.00  0.00    -0.175 N 
ATOM      3  H2  UNL     1      44.062  18.774  33.255  1.00  0.00     0.186 HD
HETATM    4  C2  UNL     1      45.342  17.210  32.934  1.00  0.00     0.146 A 
HETATM    5  C5  UNL     1      46.662  16.818  32.725  1.00  0.00     0.112 A 
HETATM    6  N6  UNL     1      46.986  15.541  32.556  1.00  0.00    -0.326 N 
ATOM      7  H6  UNL     1      46.255  14.830  32.580  1.00  0.00     0.168 HD
HETATM    8  C6  UNL     1      48.270  15.170  32.353  1.00  0.00     0.227 A 
HETATM    9  N8  UNL     1      49.213  16.121  32.326  1.00  0.00    -0.296 N 
ATOM     10  H8  UNL     1      50.183  15.846  32.173  1.00  0.00     0.171 HD
HETATM   11  C7  UNL     1      48.928  17.427  32.492  1.00  0.00     0.277 A 
HETATM   12  O3  UNL     1      49.803  18.321  32.468  1.00  0.00    -0.266 OA
HETATM   13  C8  UNL     1      47.626  17.821  32.699  1.00  0.00     0.147 A 
HETATM   14  N9  UNL     1      47.270  19.105  32.873  1.00  0.00    -0.184 N 
ATOM     15  H9  UNL     1      47.992  19.826  32.853  1.00  0.00     0.184 HD
ENDROOT
BRANCH   4  16
HETATM   16  N3  UNL     1      44.470  16.261  32.952  1.00  0.00    -0.373 N 
ATOM     17  H3  UNL     1      44.011  15.989  32.083  1.00  0.00     0.161 HD
BRANCH  16  18
HETATM   18  C3  UNL     1      44.130  15.579  34.166  1.00  0.00     0.139 C 
BRANCH  18  19
HETATM   19  C4  UNL     1      43.897  14.091  33.935  1.00  0.00     0.153 C 
BRANCH  19  20
HETATM   20  N4  UNL     1      45.125  13.453  33.488  1.00  0.00    -0.147 NA
BRANCH  20  21
HETATM   21  N5  UNL     1      44.958  12.772  32.299  1.00  0.00    -0.348 N 
ATOM     22  H52 UNL     1      45.074  11.762  32.215  1.00  0.00     0.172 HD
ATOM     23  H51 UNL     1      44.707  13.393  31.529  1.00  0.00     0.172 HD
ENDBRANCH  20  21
ENDBRANCH  19  20
ENDBRANCH  18  19
ENDBRANCH  16  18
ENDBRANCH   4  16
BRANCH   1  24
HETATM   24  N1  UNL     1      45.661  20.714  33.241  1.00  0.00    -0.234 N 
ATOM     25  H12 UNL     1      45.060  21.003  34.012  1.00  0.00     0.174 HD
ATOM     26  H11 UNL     1      46.006  21.427  32.597  1.00  0.00     0.174 HD
ENDBRANCH   1  24
BRANCH   8  27
HETATM   27  S1  UNL     1      48.668  13.483  32.134  1.00  0.00     0.289 S 
HETATM   28  O1  UNL     1      47.856  12.918  31.015  1.00  0.00    -0.198 OA
HETATM   29  O2  UNL     1      50.121  13.323  31.758  1.00  0.00    -0.198 OA
BRANCH  27  30
HETATM   30  N7  UNL     1      48.413  12.643  33.615  1.00  0.00    -0.322 N 
ATOM     31  H72 UNL     1      49.156  12.253  34.194  1.00  0.00     0.169 HD
ATOM     32  H71 UNL     1      47.412  12.603  33.811  1.00  0.00     0.169 HD
ENDBRANCH  27  30
ENDBRANCH   8  27
TORSDOF 8
ENDMDL
MODEL 2
REMARK VINA RESULT: -4.121997150      2.828      5.363
REMARK  8 active torsions:
REMARK  status: ('A' for Active; 'I' for Inactive)
REMARK    1  A    between atoms: N1_1  and  C1_4 
REMARK    2  A    between atoms: C2_7  and  N3_8 
REMARK    3  A    between atoms: N3_8  and  C3_10 
REMARK    4  A    between atoms: C3_10  and  C4_11 
REMARK    5  A    between atoms: C4_11  and  N4_12 
REMARK    6  A    between atoms: N4_12  and  N5_13 
REMARK    7  A    between atoms: C6_19  and  S1_20 
REMARK    8  A    between atoms: S1_20  and  N7_21 
ROOT
HETATM    1  C1  UNL     1      48.299  15.849  32.370  1.00  0.00     0.678 A 
HETATM    2  N2  UNL     1      47.296  16.664  32.765  1.00  0.00    -0.175 N 
ATOM      3  H2  UNL     1      47.508  17.630  33.014  1.00  0.00     0.186 HD
HETATM    4  C2  UNL     1      46.024  16.232  32.840  1.00  0.00     0.146 A 
HETATM    5  C5  UNL     1      45.704  14.918  32.507  1.00  0.00     0.112 A 
HETATM    6  N6  UNL     1      44.455  14.472  32.573  1.00  0.00    -0.326 N 
ATOM      7  H6  UNL     1      43.712  15.102  32.874  1.00  0.00     0.168 HD
HETATM    8  C6  UNL     1      44.153  13.195  32.248  1.00  0.00     0.227 A 
HETATM    9  N8  UNL     1      45.146  12.385  31.856  1.00  0.00    -0.296 N 
ATOM     10  H8  UNL     1      44.924  11.421  31.610  1.00  0.00     0.171 HD
HETATM   11  C7  UNL     1      46.426  12.796  31.775  1.00  0.00     0.277 A 
HETATM   12  O3  UNL     1      47.358  12.045  31.410  1.00  0.00    -0.266 OA
HETATM   13  C8  UNL     1      46.748  14.093  32.102  1.00  0.00     0.147 A 
HETATM   14  N9  UNL     1      48.004  14.570  32.044  1.00  0.00    -0.184 N 
ATOM     15  H9  UNL     1      48.756  13.949  31.746  1.00  0.00     0.184 HD
ENDROOT
BRANCH   4  16
HETATM   16  N3  UNL     1      45.037  16.974  33.210  1.00  0.00    -0.373 N 
ATOM     17  H3  UNL     1      44.091  16.593  33.191  1.00  0.00     0.161 HD
BRANCH  16  18
HETATM   18  C3  UNL     1      45.239  18.323  33.650  1.00  0.00     0.139 C 
BRANCH  18  19
HETATM   19  C4  UNL     1      44.849  19.333  32.577  1.00  0.00     0.153 C 
BRANCH  19  20
HETATM   20  N4  UNL     1      43.951  20.334  33.130  1.00  0.00    -0.147 NA
BRANCH  20  21
HETATM   21  N5  UNL     1      44.627  21.446  33.592  1.00  0.00    -0.348 N 
ATOM     22  H52 UNL     1      44.987  22.173  32.975  1.00  0.00     0.172 HD
ATOM     23  H51 UNL     1      44.719  21.449  34.608  1.00  0.00     0.172 HD
ENDBRANCH  20  21
ENDBRANCH  19  20
ENDBRANCH  18  19
ENDBRANCH  16  18
ENDBRANCH   4  16
BRANCH   1  24
HETATM   24  N1  UNL     1      49.514  16.290  32.308  1.00  0.00    -0.234 N 
ATOM     25  H12 UNL     1      49.974  16.681  33.129  1.00  0.00     0.174 HD
ATOM     26  H11 UNL     1      50.033  16.253  31.430  1.00  0.00     0.174 HD
ENDBRANCH   1  24
BRANCH   8  27
HETATM   27  S1  UNL     1      42.501  12.635  32.344  1.00  0.00     0.289 S 
HETATM   28  O1  UNL     1      42.483  11.146  32.461  1.00  0.00    -0.198 OA
HETATM   29  O2  UNL     1      41.823  13.188  33.575  1.00  0.00    -0.198 OA
BRANCH  27  30
HETATM   30  N7  UNL     1      41.631  13.193  30.969  1.00  0.00    -0.322 N 
ATOM     31  H72 UNL     1      40.619  13.131  30.860  1.00  0.00     0.169 HD
ATOM     32  H71 UNL     1      42.286  13.590  30.294  1.00  0.00     0.169 HD
ENDBRANCH  27  30
ENDBRANCH   8  27
TORSDOF 8
ENDMDL
MODEL 3
REMARK VINA RESULT: -4.057080859      2.515      3.912
REMARK  8 active torsions:
REMARK  status: ('A' for Active; 'I' for Inactive)
REMARK    1  A    between atoms: N1_1  and  C1_4 
REMARK    2  A    between atoms: C2_7  and  N3_8 
REMARK    3  A    between atoms: N3_8  and  C3_10 
REMARK    4  A    between atoms: C3_10  and  C4_11 
REMARK    5  A    between atoms: C4_11  and  N4_12 
REMARK    6  A    between atoms: N4_12  and  N5_13 
REMARK    7  A    between atoms: C6_19  and  S1_20 
REMARK    8  A    between atoms: S1_20  and  N7_21 
ROOT
HETATM    1  C1  UNL     1      47.977  16.594  32.592  1.00  0.00     0.678 A 
HETATM    2  N2  UNL     1      46.678  16.816  32.893  1.00  0.00    -0.175 N 
ATOM      3  H2  UNL     1      46.387  17.748  33.188  1.00  0.00     0.186 HD
HETATM    4  C2  UNL     1      45.758  15.837  32.813  1.00  0.00     0.146 A 
HETATM    5  C5  UNL     1      46.124  14.555  32.414  1.00  0.00     0.112 A 
HETATM    6  N6  UNL     1      45.232  13.574  32.328  1.00  0.00    -0.326 N 
ATOM      7  H6  UNL     1      44.257  13.762  32.560  1.00  0.00     0.168 HD
HETATM    8  C6  UNL     1      45.597  12.332  31.939  1.00  0.00     0.227 A 
HETATM    9  N8  UNL     1      46.884  12.109  31.641  1.00  0.00    -0.296 N 
ATOM     10  H8  UNL     1      47.164  11.174  31.347  1.00  0.00     0.171 HD
HETATM   11  C7  UNL     1      47.821  13.074  31.714  1.00  0.00     0.277 A 
HETATM   12  O3  UNL     1      49.024  12.873  31.437  1.00  0.00    -0.266 OA
HETATM   13  C8  UNL     1      47.465  14.343  32.108  1.00  0.00     0.147 A 
HETATM   14  N9  UNL     1      48.348  15.352  32.203  1.00  0.00    -0.184 N 
ATOM     15  H9  UNL     1      49.326  15.177  31.975  1.00  0.00     0.184 HD
ENDROOT
BRANCH   4  16
HETATM   16  N3  UNL     1      44.509  16.004  33.090  1.00  0.00    -0.373 N 
ATOM     17  H3  UNL     1      43.830  16.036  32.330  1.00  0.00     0.161 HD
BRANCH  16  18
HETATM   18  C3  UNL     1      44.055  16.147  34.442  1.00  0.00     0.139 C 
BRANCH  18  19
HETATM   19  C4  UNL     1      42.748  15.401  34.682  1.00  0.00     0.153 C 
BRANCH  19  20
HETATM   20  N4  UNL     1      42.852  14.034  34.198  1.00  0.00    -0.147 NA
BRANCH  20  21
HETATM   21  N5  UNL     1      41.884  13.735  33.260  1.00  0.00    -0.348 N 
ATOM     22  H52 UNL     1      41.070  13.156  33.467  1.00  0.00     0.172 HD
ATOM     23  H51 UNL     1      42.081  14.157  32.353  1.00  0.00     0.172 HD
ENDBRANCH  20  21
ENDBRANCH  19  20
ENDBRANCH  18  19
ENDBRANCH  16  18
ENDBRANCH   4  16
BRANCH   1  24
HETATM   24  N1  UNL     1      48.841  17.553  32.678  1.00  0.00    -0.234 N 
ATOM     25  H12 UNL     1      48.585  18.458  33.070  1.00  0.00     0.174 HD
ATOM     26  H11 UNL     1      49.798  17.416  32.351  1.00  0.00     0.174 HD
ENDBRANCH   1  24
BRANCH   8  27
HETATM   27  S1  UNL     1      44.402  11.062  31.836  1.00  0.00     0.289 S 
HETATM   28  O1  UNL     1      45.085   9.741  31.699  1.00  0.00    -0.198 OA
HETATM   29  O2  UNL     1      43.573  11.008  33.098  1.00  0.00    -0.198 OA
BRANCH  27  30
HETATM   30  N7  UNL     1      43.339  11.388  30.523  1.00  0.00    -0.322 N 
ATOM     31  H72 UNL     1      43.422  12.188  29.896  1.00  0.00     0.169 HD
ATOM     32  H71 UNL     1      42.626  10.660  30.478  1.00  0.00     0.169 HD
ENDBRANCH  27  30
ENDBRANCH   8  27
TORSDOF 8
ENDMDL
MODEL 4
REMARK VINA RESULT: -4.016974192      2.910      4.950
REMARK  8 active torsions:
REMARK  status: ('A' for Active; 'I' for Inactive)
REMARK    1  A    between atoms: N1_1  and  C1_4 
REMARK    2  A    between atoms: C2_7  and  N3_8 
REMARK    3  A    between atoms: N3_8  and  C3_10 
REMARK    4  A    between atoms: C3_10  and  C4_11 
REMARK    5  A    between atoms: C4_11  and  N4_12 
REMARK    6  A    between atoms: N4_12  and  N5_13 
REMARK    7  A    between atoms: C6_19  and  S1_20 
REMARK    8  A    between atoms: S1_20  and  N7_21 
ROOT
HETATM    1  C1  UNL     1      46.781  13.554  32.144  1.00  0.00     0.678 A 
HETATM    2  N2  UNL     1      45.478  13.664  32.488  1.00  0.00    -0.175 N 
ATOM      3  H2  UNL     1      44.889  12.831  32.481  1.00  0.00     0.186 HD
HETATM    4  C2  UNL     1      44.939  14.846  32.840  1.00  0.00     0.146 A 
HETATM    5  C5  UNL     1      45.718  15.999  32.859  1.00  0.00     0.112 A 
HETATM    6  N6  UNL     1      45.206  17.175  33.203  1.00  0.00    -0.326 N 
ATOM      7  H6  UNL     1      44.221  17.238  33.459  1.00  0.00     0.168 HD
HETATM    8  C6  UNL     1      45.970  18.291  33.218  1.00  0.00     0.227 A 
HETATM    9  N8  UNL     1      47.261  18.184  32.876  1.00  0.00    -0.296 N 
ATOM     10  H8  UNL     1      47.842  19.022  32.886  1.00  0.00     0.171 HD
HETATM   11  C7  UNL     1      47.821  17.012  32.521  1.00  0.00     0.277 A 
HETATM   12  O3  UNL     1      49.026  16.905  32.200  1.00  0.00    -0.266 OA
HETATM   13  C8  UNL     1      47.056  15.868  32.501  1.00  0.00     0.147 A 
HETATM   14  N9  UNL     1      47.550  14.666  32.156  1.00  0.00    -0.184 N 
ATOM     15  H9  UNL     1      48.533  14.591  31.896  1.00  0.00     0.184 HD
ENDROOT
BRANCH   4  16
HETATM   16  N3  UNL     1      43.704  14.996  33.177  1.00  0.00    -0.373 N 
ATOM     17  H3  UNL     1      43.207  15.838  32.886  1.00  0.00     0.161 HD
BRANCH  16  18
HETATM   18  C3  UNL     1      43.012  14.007  33.949  1.00  0.00     0.139 C 
BRANCH  18  19
HETATM   19  C4  UNL     1      41.839  13.407  33.184  1.00  0.00     0.153 C 
BRANCH  19  20
HETATM   20  N4  UNL     1      42.314  12.717  31.995  1.00  0.00    -0.147 NA
BRANCH  20  21
HETATM   21  N5  UNL     1      41.734  13.203  30.841  1.00  0.00    -0.348 N 
ATOM     22  H52 UNL     1      41.331  14.137  30.771  1.00  0.00     0.172 HD
ATOM     23  H51 UNL     1      41.758  12.524  30.080  1.00  0.00     0.172 HD
ENDBRANCH  20  21
ENDBRANCH  19  20
ENDBRANCH  18  19
ENDBRANCH  16  18
ENDBRANCH   4  16
BRANCH   1  24
HETATM   24  N1  UNL     1      47.274  12.405  31.809  1.00  0.00    -0.234 N 
ATOM     25  H12 UNL     1      46.717  11.554  31.877  1.00  0.00     0.174 HD
ATOM     26  H11 UNL     1      48.233  12.334  31.469  1.00  0.00     0.174 HD
ENDBRANCH   1  24
BRANCH   8  27
HETATM   27  S1  UNL     1      45.269  19.824  33.675  1.00  0.00     0.289 S 
HETATM   28  O1  UNL     1      44.060  20.091  32.839  1.00  0.00    -0.198 OA
HETATM   29  O2  UNL     1      44.819  19.795  35.116  1.00  0.00    -0.198 OA
BRANCH  27  30
HETATM   30  N7  UNL     1      46.456  21.060  33.519  1.00  0.00    -0.322 N 
ATOM     31  H72 UNL     1      47.322  20.967  32.987  1.00  0.00     0.169 HD
ATOM     32  H71 UNL     1      46.154  21.885  34.038  1.00  0.00     0.169 HD
ENDBRANCH  27  30
ENDBRANCH   8  27
TORSDOF 8
ENDMDL
MODEL 5
REMARK VINA RESULT: -3.997403775      2.521      4.895
REMARK  8 active torsions:
REMARK  status: ('A' for Active; 'I' for Inactive)
REMARK    1  A    between atoms: N1_1  and  C1_4 
REMARK    2  A    between atoms: C2_7  and  N3_8 
REMARK    3  A    between atoms: N3_8  and  C3_10 
REMARK    4  A    between atoms: C3_10  and  C4_11 
REMARK    5  A    between atoms: C4_11  and  N4_12 
REMARK    6  A    between atoms: N4_12  and  N5_13 
REMARK    7  A    between atoms: C6_19  and  S1_20 
REMARK    8  A    between atoms: S1_20  and  N7_21 
ROOT
HETATM    1  C1  UNL     1      49.096  16.885  32.489  1.00  0.00     0.678 A 
HETATM    2  N2  UNL     1      48.254  17.570  33.295  1.00  0.00    -0.175 N 
ATOM      3  H2  UNL     1      48.552  18.466  33.680  1.00  0.00     0.186 HD
HETATM    4  C2  UNL     1      47.031  17.099  33.600  1.00  0.00     0.146 A 
HETATM    5  C5  UNL     1      46.597  15.879  33.089  1.00  0.00     0.112 A 
HETATM    6  N6  UNL     1      45.393  15.397  33.378  1.00  0.00    -0.326 N 
ATOM      7  H6  UNL     1      44.772  15.928  33.988  1.00  0.00     0.168 HD
HETATM    8  C6  UNL     1      44.979  14.211  32.878  1.00  0.00     0.227 A 
HETATM    9  N8  UNL     1      45.813  13.530  32.080  1.00  0.00    -0.296 N 
ATOM     10  H8  UNL     1      45.506  12.635  31.699  1.00  0.00     0.171 HD
HETATM   11  C7  UNL     1      47.041  13.982  31.761  1.00  0.00     0.277 A 
HETATM   12  O3  UNL     1      47.824  13.351  31.017  1.00  0.00    -0.266 OA
HETATM   13  C8  UNL     1      47.476  15.187  32.263  1.00  0.00     0.147 A 
HETATM   14  N9  UNL     1      48.688  15.698  31.986  1.00  0.00    -0.184 N 
ATOM     15  H9  UNL     1      49.319  15.175  31.379  1.00  0.00     0.184 HD
ENDROOT
BRANCH   4  16
HETATM   16  N3  UNL     1      46.196  17.719  34.363  1.00  0.00    -0.373 N 
ATOM     17  H3  UNL     1      45.783  17.227  35.154  1.00  0.00     0.161 HD
BRANCH  16  18
HETATM   18  C3  UNL     1      45.834  19.085  34.122  1.00  0.00     0.139 C 
BRANCH  18  19
HETATM   19  C4  UNL     1      44.997  19.235  32.857  1.00  0.00     0.153 C 
BRANCH  19  20
HETATM   20  N4  UNL     1      43.998  20.277  33.036  1.00  0.00    -0.147 NA
BRANCH  20  21
HETATM   21  N5  UNL     1      44.538  21.435  33.560  1.00  0.00    -0.348 N 
ATOM     22  H52 UNL     1      44.820  22.227  32.984  1.00  0.00     0.172 HD
ATOM     23  H51 UNL     1      44.616  21.399  34.577  1.00  0.00     0.172 HD
ENDBRANCH  20  21
ENDBRANCH  19  20
ENDBRANCH  18  19
ENDBRANCH  16  18
ENDBRANCH   4  16
BRANCH   1  24
HETATM   24  N1  UNL     1      50.268  17.361  32.212  1.00  0.00    -0.234 N 
ATOM     25  H12 UNL     1      50.891  17.687  32.949  1.00  0.00     0.174 HD
ATOM     26  H11 UNL     1      50.586  17.417  31.244  1.00  0.00     0.174 HD
ENDBRANCH   1  24
BRANCH   8  27
HETATM   27  S1  UNL     1      43.392  13.600  33.275  1.00  0.00     0.289 S 
HETATM   28  O1  UNL     1      43.523  12.394  34.145  1.00  0.00    -0.198 OA
HETATM   29  O2  UNL     1      42.606  14.629  34.053  1.00  0.00    -0.198 OA
BRANCH  27  30
HETATM   30  N7  UNL     1      42.531  13.268  31.823  1.00  0.00    -0.322 N 
ATOM     31  H72 UNL     1      41.705  12.673  31.763  1.00  0.00     0.169 HD
ATOM     32  H71 UNL     1      42.978  13.758  31.047  1.00  0.00     0.169 HD
ENDBRANCH  27  30
ENDBRANCH   8  27
TORSDOF 8
ENDMDL
