MODEL 1
REMARK VINA RESULT: -7.687573898      0.000      0.000
REMARK  8 active torsions:
REMARK  status: ('A' for Active; 'I' for Inactive)
REMARK    1  A    between atoms: C2_2  and  C3_3 
REMARK    2  A    between atoms: C4_4  and  C5_5 
REMARK       I    between atoms: C5_5  and  N1_7 
REMARK    3  A    between atoms: N1_7  and  C6_9 
REMARK    4  A    between atoms: C6_9  and  C7_10 
REMARK    5  A    between atoms: C7_10  and  C8_11 
REMARK    6  A    between atoms: N4_18  and  C11_19 
REMARK    7  A    between atoms: N9_31  and  C13_32 
REMARK    8  A    between atoms: C14_38  and  N12_39 
ROOT
HETATM    1  C5  UNL     1     -20.799 -21.286  -0.308  1.00  0.00     0.270 C 
HETATM    2  O1  UNL     1     -21.722 -20.452  -0.394  1.00  0.00    -0.266 OA
HETATM    3  N1  UNL     1     -19.548 -20.891   0.213  1.00  0.00    -0.355 N 
ATOM      4  H1  UNL     1     -18.821 -21.605   0.266  1.00  0.00     0.162 HD
ENDROOT
BRANCH   3   5
HETATM    5  C6  UNL     1     -19.209 -19.582   0.672  1.00  0.00     0.129 C 
BRANCH   5   6
HETATM    6  C7  UNL     1     -17.729 -19.392   0.970  1.00  0.00     0.081 C 
BRANCH   6   7
HETATM    7  C8  UNL     1     -17.100 -18.519  -0.036  1.00  0.00     0.063 A 
HETATM    8  C9  UNL     1     -16.775 -17.187   0.210  1.00  0.00     0.048 A 
HETATM    9  C10 UNL     1     -16.982 -16.424   1.465  1.00  0.00     0.072 C 
HETATM   10  N2  UNL     1     -16.233 -16.750  -0.940  1.00  0.00    -0.288 N 
HETATM   11  N3  UNL     1     -16.228 -17.725  -1.803  1.00  0.00    -0.234 N 
ATOM     12  H2  UNL     1     -15.881 -15.808  -1.108  1.00  0.00     0.188 HD
HETATM   13  N4  UNL     1     -16.760 -18.849  -1.286  1.00  0.00    -0.223 N 
ATOM     14  H3  UNL     1     -15.867 -17.647  -2.753  1.00  0.00     0.209 HD
BRANCH  13  15
HETATM   15  C11 UNL     1     -16.902 -20.086  -1.966  1.00  0.00     0.196 A 
HETATM   16  N5  UNL     1     -16.152 -21.196  -1.948  1.00  0.00    -0.220 N 
HETATM   17  O2  UNL     1     -16.664 -22.100  -2.741  1.00  0.00    -0.153 OA
ATOM     18  H5  UNL     1     -15.303 -21.317  -1.396  1.00  0.00     0.198 HD
HETATM   19  N6  UNL     1     -17.742 -21.651  -3.305  1.00  0.00    -0.222 N 
HETATM   20  C12 UNL     1     -17.939 -20.397  -2.858  1.00  0.00     0.169 A 
ATOM     21  H6  UNL     1     -18.333 -22.156  -3.965  1.00  0.00     0.198 HD
HETATM   22  N7  UNL     1     -18.887 -19.597  -3.165  1.00  0.00    -0.381 N 
ATOM     23  H72 UNL     1     -19.036 -18.646  -2.827  1.00  0.00     0.157 HD
ATOM     24  H71 UNL     1     -19.642 -19.823  -3.814  1.00  0.00     0.157 HD
ENDBRANCH  13  15
ENDBRANCH   6   7
ENDBRANCH   5   6
ENDBRANCH   3   5
BRANCH   1  25
HETATM   25  C4  UNL     1     -21.065 -22.659  -0.757  1.00  0.00     0.128 A 
HETATM   26  C3  UNL     1     -21.306 -23.122  -2.028  1.00  0.00     0.045 A 
HETATM   27  C15 UNL     1     -21.491 -24.486  -1.937  1.00  0.00     0.277 A 
HETATM   28  N9  UNL     1     -21.367 -24.849  -0.651  1.00  0.00    -0.197 N 
HETATM   29  O4  UNL     1     -21.730 -25.220  -2.904  1.00  0.00    -0.266 OA
HETATM   30  N8  UNL     1     -21.115 -23.763   0.043  1.00  0.00    -0.283 N 
ATOM     31  H8  UNL     1     -20.973 -23.746   1.052  1.00  0.00     0.188 HD
BRANCH  26  32
HETATM   32  C2  UNL     1     -21.358 -22.269  -3.246  1.00  0.00     0.042 C 
HETATM   33  C1  UNL     1     -22.746 -21.849  -3.610  1.00  0.00     0.010 C 
ENDBRANCH  26  32
BRANCH  28  34
HETATM   34  C13 UNL     1     -21.491 -26.195  -0.142  1.00  0.00     0.198 A 
HETATM   35  N10 UNL     1     -20.833 -27.283  -0.582  1.00  0.00    -0.220 N 
HETATM   36  O3  UNL     1     -21.216 -28.302   0.131  1.00  0.00    -0.153 OA
ATOM     37  H10 UNL     1     -20.152 -27.305  -1.341  1.00  0.00     0.198 HD
HETATM   38  N11 UNL     1     -22.087 -27.964   1.015  1.00  0.00    -0.222 N 
HETATM   39  C14 UNL     1     -22.296 -26.636   0.885  1.00  0.00     0.169 A 
ATOM     40  H11 UNL     1     -22.536 -28.584   1.689  1.00  0.00     0.198 HD
BRANCH  39  41
HETATM   41  N12 UNL     1     -23.096 -25.912   1.583  1.00  0.00    -0.381 N 
ATOM     42 2H12 UNL     1     -23.775 -25.239   1.229  1.00  0.00     0.157 HD
ATOM     43 1H12 UNL     1     -23.166 -25.906   2.600  1.00  0.00     0.157 HD
ENDBRANCH  39  41
ENDBRANCH  28  34
ENDBRANCH   1  25
TORSDOF 8
ENDMDL
MODEL 2
REMARK VINA RESULT: -7.448528964      1.928      3.247
REMARK  8 active torsions:
REMARK  status: ('A' for Active; 'I' for Inactive)
REMARK    1  A    between atoms: C2_2  and  C3_3 
REMARK    2  A    between atoms: C4_4  and  C5_5 
REMARK       I    between atoms: C5_5  and  N1_7 
REMARK    3  A    between atoms: N1_7  and  C6_9 
REMARK    4  A    between atoms: C6_9  and  C7_10 
REMARK    5  A    between atoms: C7_10  and  C8_11 
REMARK    6  A    between atoms: N4_18  and  C11_19 
REMARK    7  A    between atoms: N9_31  and  C13_32 
REMARK    8  A    between atoms: C14_38  and  N12_39 
ROOT
HETATM    1  C5  UNL     1     -18.445 -22.040  -0.870  1.00  0.00     0.270 C 
HETATM    2  O1  UNL     1     -19.054 -20.991  -0.577  1.00  0.00    -0.266 OA
HETATM    3  N1  UNL     1     -17.034 -22.048  -0.879  1.00  0.00    -0.355 N 
ATOM      4  H1  UNL     1     -16.577 -22.927  -1.125  1.00  0.00     0.162 HD
ENDROOT
BRANCH   3   5
HETATM    5  C6  UNL     1     -16.188 -20.939  -0.575  1.00  0.00     0.129 C 
BRANCH   5   6
HETATM    6  C7  UNL     1     -15.632 -20.227  -1.798  1.00  0.00     0.081 C 
BRANCH   6   7
HETATM    7  C8  UNL     1     -16.680 -19.433  -2.463  1.00  0.00     0.063 A 
HETATM    8  C9  UNL     1     -17.176 -19.737  -3.729  1.00  0.00     0.048 A 
HETATM    9  C10 UNL     1     -16.776 -20.860  -4.610  1.00  0.00     0.072 C 
HETATM   10  N2  UNL     1     -18.098 -18.789  -3.970  1.00  0.00    -0.288 N 
HETATM   11  N3  UNL     1     -18.157 -17.984  -2.947  1.00  0.00    -0.234 N 
ATOM     12  H2  UNL     1     -18.661 -18.712  -4.817  1.00  0.00     0.188 HD
HETATM   13  N4  UNL     1     -17.290 -18.345  -1.981  1.00  0.00    -0.223 N 
ATOM     14  H3  UNL     1     -18.781 -17.181  -2.885  1.00  0.00     0.209 HD
BRANCH  13  15
HETATM   15  C11 UNL     1     -17.107 -17.678  -0.743  1.00  0.00     0.196 A 
HETATM   16  N5  UNL     1     -16.104 -16.914  -0.291  1.00  0.00    -0.220 N 
HETATM   17  O2  UNL     1     -16.361 -16.504   0.924  1.00  0.00    -0.153 OA
ATOM     18  H5  UNL     1     -15.261 -16.686  -0.817  1.00  0.00     0.198 HD
HETATM   19  N6  UNL     1     -17.507 -16.959   1.324  1.00  0.00    -0.222 N 
HETATM   20  C12 UNL     1     -18.019 -17.700   0.323  1.00  0.00     0.169 A 
ATOM     21  H6  UNL     1     -17.942 -16.787   2.230  1.00  0.00     0.198 HD
HETATM   22  N7  UNL     1     -19.132 -18.328   0.304  1.00  0.00    -0.381 N 
ATOM     23  H72 UNL     1     -19.519 -18.889  -0.454  1.00  0.00     0.157 HD
ATOM     24  H71 UNL     1     -19.795 -18.343   1.080  1.00  0.00     0.157 HD
ENDBRANCH  13  15
ENDBRANCH   6   7
ENDBRANCH   5   6
ENDBRANCH   3   5
BRANCH   1  25
HETATM   25  C4  UNL     1     -19.241 -23.231  -1.196  1.00  0.00     0.128 A 
HETATM   26  C3  UNL     1     -19.776 -23.610  -2.404  1.00  0.00     0.045 A 
HETATM   27  C15 UNL     1     -20.432 -24.807  -2.201  1.00  0.00     0.277 A 
HETATM   28  N9  UNL     1     -20.304 -25.150  -0.910  1.00  0.00    -0.197 N 
HETATM   29  O4  UNL     1     -21.029 -25.430  -3.088  1.00  0.00    -0.266 OA
HETATM   30  N8  UNL     1     -19.598 -24.213  -0.320  1.00  0.00    -0.283 N 
ATOM     31  H8  UNL     1     -19.347 -24.219   0.668  1.00  0.00     0.188 HD
BRANCH  26  32
HETATM   32  C2  UNL     1     -19.650 -22.836  -3.668  1.00  0.00     0.042 C 
HETATM   33  C1  UNL     1     -20.641 -21.720  -3.773  1.00  0.00     0.010 C 
ENDBRANCH  26  32
BRANCH  28  34
HETATM   34  C13 UNL     1     -20.851 -26.340  -0.298  1.00  0.00     0.198 A 
HETATM   35  N10 UNL     1     -20.588 -27.613  -0.645  1.00  0.00    -0.220 N 
HETATM   36  O3  UNL     1     -21.270 -28.394   0.140  1.00  0.00    -0.153 OA
ATOM     37  H10 UNL     1     -19.962 -27.913  -1.393  1.00  0.00     0.198 HD
HETATM   38  N11 UNL     1     -21.971 -27.724   0.985  1.00  0.00    -0.222 N 
HETATM   39  C14 UNL     1     -21.740 -26.415   0.750  1.00  0.00     0.169 A 
ATOM     40  H11 UNL     1     -22.587 -28.111   1.701  1.00  0.00     0.198 HD
BRANCH  39  41
HETATM   41  N12 UNL     1     -22.252 -25.419   1.380  1.00  0.00    -0.381 N 
ATOM     42 2H12 UNL     1     -21.813 -24.514   1.549  1.00  0.00     0.157 HD
ATOM     43 1H12 UNL     1     -23.177 -25.390   1.807  1.00  0.00     0.157 HD
ENDBRANCH  39  41
ENDBRANCH  28  34
ENDBRANCH   1  25
TORSDOF 8
ENDMDL
MODEL 3
REMARK VINA RESULT: -7.413954149      2.077      3.273
REMARK  8 active torsions:
REMARK  status: ('A' for Active; 'I' for Inactive)
REMARK    1  A    between atoms: C2_2  and  C3_3 
REMARK    2  A    between atoms: C4_4  and  C5_5 
REMARK       I    between atoms: C5_5  and  N1_7 
REMARK    3  A    between atoms: N1_7  and  C6_9 
REMARK    4  A    between atoms: C6_9  and  C7_10 
REMARK    5  A    between atoms: C7_10  and  C8_11 
REMARK    6  A    between atoms: N4_18  and  C11_19 
REMARK    7  A    between atoms: N9_31  and  C13_32 
REMARK    8  A    between atoms: C14_38  and  N12_39 
ROOT
HETATM    1  C5  UNL     1     -16.902 -23.194  -1.117  1.00  0.00     0.270 C 
HETATM    2  O1  UNL     1     -15.977 -23.789  -0.529  1.00  0.00    -0.266 OA
HETATM    3  N1  UNL     1     -16.697 -21.880  -1.590  1.00  0.00    -0.355 N 
ATOM      4  H1  UNL     1     -17.480 -21.431  -2.065  1.00  0.00     0.162 HD
ENDROOT
BRANCH   3   5
HETATM    5  C6  UNL     1     -15.493 -21.124  -1.464  1.00  0.00     0.129 C 
BRANCH   5   6
HETATM    6  C7  UNL     1     -15.421 -20.274  -0.205  1.00  0.00     0.081 C 
BRANCH   6   7
HETATM    7  C8  UNL     1     -15.993 -18.937  -0.442  1.00  0.00     0.063 A 
HETATM    8  C9  UNL     1     -15.289 -17.907  -1.060  1.00  0.00     0.048 A 
HETATM    9  C10 UNL     1     -13.899 -17.947  -1.579  1.00  0.00     0.072 C 
HETATM   10  N2  UNL     1     -16.147 -16.873  -1.083  1.00  0.00    -0.288 N 
HETATM   11  N3  UNL     1     -17.268 -17.240  -0.531  1.00  0.00    -0.234 N 
ATOM     12  H2  UNL     1     -15.952 -15.950  -1.470  1.00  0.00     0.188 HD
HETATM   13  N4  UNL     1     -17.221 -18.520  -0.115  1.00  0.00    -0.223 N 
ATOM     14  H3  UNL     1     -18.081 -16.634  -0.426  1.00  0.00     0.209 HD
BRANCH  13  15
HETATM   15  C11 UNL     1     -18.275 -19.221   0.525  1.00  0.00     0.196 A 
HETATM   16  N5  UNL     1     -18.591 -19.350   1.821  1.00  0.00    -0.220 N 
HETATM   17  O2  UNL     1     -19.655 -20.098   1.954  1.00  0.00    -0.153 OA
ATOM     18  H5  UNL     1     -18.076 -18.927   2.592  1.00  0.00     0.198 HD
HETATM   19  N6  UNL     1     -20.083 -20.488   0.794  1.00  0.00    -0.222 N 
HETATM   20  C12 UNL     1     -19.258 -19.971  -0.136  1.00  0.00     0.169 A 
ATOM     21  H6  UNL     1     -20.895 -21.079   0.618  1.00  0.00     0.198 HD
HETATM   22  N7  UNL     1     -19.323 -20.112  -1.405  1.00  0.00    -0.381 N 
ATOM     23  H72 UNL     1     -18.698 -19.721  -2.109  1.00  0.00     0.157 HD
ATOM     24  H71 UNL     1     -20.039 -20.658  -1.885  1.00  0.00     0.157 HD
ENDBRANCH  13  15
ENDBRANCH   6   7
ENDBRANCH   5   6
ENDBRANCH   3   5
BRANCH   1  25
HETATM   25  C4  UNL     1     -18.177 -23.902  -1.291  1.00  0.00     0.128 A 
HETATM   26  C3  UNL     1     -18.817 -24.259  -2.453  1.00  0.00     0.045 A 
HETATM   27  C15 UNL     1     -19.980 -24.910  -2.096  1.00  0.00     0.277 A 
HETATM   28  N9  UNL     1     -20.051 -24.950  -0.756  1.00  0.00    -0.197 N 
HETATM   29  O4  UNL     1     -20.797 -25.367  -2.905  1.00  0.00    -0.266 OA
HETATM   30  N8  UNL     1     -18.981 -24.352  -0.285  1.00  0.00    -0.283 N 
ATOM     31  H8  UNL     1     -18.776 -24.238   0.707  1.00  0.00     0.188 HD
BRANCH  26  32
HETATM   32  C2  UNL     1     -18.313 -23.968  -3.823  1.00  0.00     0.042 C 
HETATM   33  C1  UNL     1     -18.869 -22.703  -4.395  1.00  0.00     0.010 C 
ENDBRANCH  26  32
BRANCH  28  34
HETATM   34  C13 UNL     1     -21.119 -25.550   0.011  1.00  0.00     0.198 A 
HETATM   35  N10 UNL     1     -21.980 -24.910   0.824  1.00  0.00    -0.220 N 
HETATM   36  O3  UNL     1     -22.789 -25.795   1.330  1.00  0.00    -0.153 OA
ATOM     37  H10 UNL     1     -21.995 -23.907   1.011  1.00  0.00     0.198 HD
HETATM   38  N11 UNL     1     -22.523 -26.980   0.909  1.00  0.00    -0.222 N 
HETATM   39  C14 UNL     1     -21.471 -26.879   0.068  1.00  0.00     0.169 A 
ATOM     40  H11 UNL     1     -23.014 -27.836   1.163  1.00  0.00     0.198 HD
BRANCH  39  41
HETATM   41  N12 UNL     1     -20.898 -27.841  -0.564  1.00  0.00    -0.381 N 
ATOM     42 2H12 UNL     1     -20.118 -27.762  -1.216  1.00  0.00     0.157 HD
ATOM     43 1H12 UNL     1     -21.144 -28.828  -0.505  1.00  0.00     0.157 HD
ENDBRANCH  39  41
ENDBRANCH  28  34
ENDBRANCH   1  25
TORSDOF 8
ENDMDL
MODEL 4
REMARK VINA RESULT: -7.400559490      2.039      3.283
REMARK  8 active torsions:
REMARK  status: ('A' for Active; 'I' for Inactive)
REMARK    1  A    between atoms: C2_2  and  C3_3 
REMARK    2  A    between atoms: C4_4  and  C5_5 
REMARK       I    between atoms: C5_5  and  N1_7 
REMARK    3  A    between atoms: N1_7  and  C6_9 
REMARK    4  A    between atoms: C6_9  and  C7_10 
REMARK    5  A    between atoms: C7_10  and  C8_11 
REMARK    6  A    between atoms: N4_18  and  C11_19 
REMARK    7  A    between atoms: N9_31  and  C13_32 
REMARK    8  A    between atoms: C14_38  and  N12_39 
ROOT
HETATM    1  C5  UNL     1     -17.295 -22.561  -1.811  1.00  0.00     0.270 C 
HETATM    2  O1  UNL     1     -16.752 -22.860  -2.893  1.00  0.00    -0.266 OA
HETATM    3  N1  UNL     1     -16.655 -21.658  -0.936  1.00  0.00    -0.355 N 
ATOM      4  H1  UNL     1     -17.135 -21.441  -0.061  1.00  0.00     0.162 HD
ENDROOT
BRANCH   3   5
HETATM    5  C6  UNL     1     -15.399 -21.019  -1.163  1.00  0.00     0.129 C 
BRANCH   5   6
HETATM    6  C7  UNL     1     -15.079 -19.907  -0.177  1.00  0.00     0.081 C 
BRANCH   6   7
HETATM    7  C8  UNL     1     -15.120 -18.592  -0.839  1.00  0.00     0.063 A 
HETATM    8  C9  UNL     1     -14.032 -18.045  -1.514  1.00  0.00     0.048 A 
HETATM    9  C10 UNL     1     -12.687 -18.646  -1.695  1.00  0.00     0.072 C 
HETATM   10  N2  UNL     1     -14.471 -16.857  -1.964  1.00  0.00    -0.288 N 
HETATM   11  N3  UNL     1     -15.711 -16.697  -1.598  1.00  0.00    -0.234 N 
ATOM     12  H2  UNL     1     -13.922 -16.190  -2.506  1.00  0.00     0.188 HD
HETATM   13  N4  UNL     1     -16.160 -17.753  -0.893  1.00  0.00    -0.223 N 
ATOM     14  H3  UNL     1     -16.271 -15.874  -1.817  1.00  0.00     0.209 HD
BRANCH  13  15
HETATM   15  C11 UNL     1     -17.463 -17.889  -0.349  1.00  0.00     0.196 A 
HETATM   16  N5  UNL     1     -18.461 -18.731  -0.648  1.00  0.00    -0.220 N 
HETATM   17  O2  UNL     1     -19.496 -18.495   0.115  1.00  0.00    -0.153 OA
ATOM     18  H5  UNL     1     -18.420 -19.453  -1.368  1.00  0.00     0.198 HD
HETATM   19  N6  UNL     1     -19.245 -17.518   0.930  1.00  0.00    -0.222 N 
HETATM   20  C12 UNL     1     -17.990 -17.100   0.684  1.00  0.00     0.169 A 
ATOM     21  H6  UNL     1     -19.882 -17.136   1.629  1.00  0.00     0.198 HD
HETATM   22  N7  UNL     1     -17.351 -16.157   1.265  1.00  0.00    -0.381 N 
ATOM     23  H72 UNL     1     -16.400 -15.840   1.079  1.00  0.00     0.157 HD
ATOM     24  H71 UNL     1     -17.734 -15.584   2.017  1.00  0.00     0.157 HD
ENDBRANCH  13  15
ENDBRANCH   6   7
ENDBRANCH   5   6
ENDBRANCH   3   5
BRANCH   1  25
HETATM   25  C4  UNL     1     -18.593 -23.174  -1.498  1.00  0.00     0.128 A 
HETATM   26  C3  UNL     1     -19.854 -22.646  -1.635  1.00  0.00     0.045 A 
HETATM   27  C15 UNL     1     -20.748 -23.609  -1.213  1.00  0.00     0.277 A 
HETATM   28  N9  UNL     1     -20.056 -24.693  -0.828  1.00  0.00    -0.197 N 
HETATM   29  O4  UNL     1     -21.976 -23.461  -1.206  1.00  0.00    -0.266 OA
HETATM   30  N8  UNL     1     -18.781 -24.429  -0.999  1.00  0.00    -0.283 N 
ATOM     31  H8  UNL     1     -18.026 -25.081  -0.787  1.00  0.00     0.188 HD
BRANCH  26  32
HETATM   32  C2  UNL     1     -20.151 -21.279  -2.144  1.00  0.00     0.042 C 
HETATM   33  C1  UNL     1     -20.340 -21.233  -3.627  1.00  0.00     0.010 C 
ENDBRANCH  26  32
BRANCH  28  34
HETATM   34  C13 UNL     1     -20.628 -25.919  -0.322  1.00  0.00     0.198 A 
HETATM   35  N10 UNL     1     -20.567 -27.132  -0.901  1.00  0.00    -0.220 N 
HETATM   36  O3  UNL     1     -21.201 -27.975  -0.138  1.00  0.00    -0.153 OA
ATOM     37  H10 UNL     1     -20.105 -27.352  -1.783  1.00  0.00     0.198 HD
HETATM   38  N11 UNL     1     -21.680 -27.403   0.908  1.00  0.00    -0.222 N 
HETATM   39  C14 UNL     1     -21.344 -26.096   0.841  1.00  0.00     0.169 A 
ATOM     40  H11 UNL     1     -22.215 -27.852   1.652  1.00  0.00     0.198 HD
BRANCH  39  41
HETATM   41  N12 UNL     1     -21.636 -25.183   1.696  1.00  0.00    -0.381 N 
ATOM     42 2H12 UNL     1     -21.155 -24.293   1.826  1.00  0.00     0.157 HD
ATOM     43 1H12 UNL     1     -22.395 -25.218   2.376  1.00  0.00     0.157 HD
ENDBRANCH  39  41
ENDBRANCH  28  34
ENDBRANCH   1  25
TORSDOF 8
ENDMDL
MODEL 5
REMARK VINA RESULT: -7.312868148      1.752      2.811
REMARK  8 active torsions:
REMARK  status: ('A' for Active; 'I' for Inactive)
REMARK    1  A    between atoms: C2_2  and  C3_3 
REMARK    2  A    between atoms: C4_4  and  C5_5 
REMARK       I    between atoms: C5_5  and  N1_7 
REMARK    3  A    between atoms: N1_7  and  C6_9 
REMARK    4  A    between atoms: C6_9  and  C7_10 
REMARK    5  A    between atoms: C7_10  and  C8_11 
REMARK    6  A    between atoms: N4_18  and  C11_19 
REMARK    7  A    between atoms: N9_31  and  C13_32 
REMARK    8  A    between atoms: C14_38  and  N12_39 
ROOT
HETATM    1  C5  UNL     1     -19.824 -21.247  -2.195  1.00  0.00     0.270 C 
HETATM    2  O1  UNL     1     -20.018 -20.495  -1.219  1.00  0.00    -0.266 OA
HETATM    3  N1  UNL     1     -18.959 -20.835  -3.231  1.00  0.00    -0.355 N 
ATOM      4  H1  UNL     1     -18.828 -21.481  -4.010  1.00  0.00     0.162 HD
ENDROOT
BRANCH   3   5
HETATM    5  C6  UNL     1     -18.250 -19.597  -3.287  1.00  0.00     0.129 C 
BRANCH   5   6
HETATM    6  C7  UNL     1     -16.790 -19.697  -2.874  1.00  0.00     0.081 C 
BRANCH   6   7
HETATM    7  C8  UNL     1     -16.330 -18.437  -2.265  1.00  0.00     0.063 A 
HETATM    8  C9  UNL     1     -15.465 -17.554  -2.907  1.00  0.00     0.048 A 
HETATM    9  C10 UNL     1     -14.868 -17.695  -4.258  1.00  0.00     0.072 C 
HETATM   10  N2  UNL     1     -15.294 -16.548  -2.032  1.00  0.00    -0.288 N 
HETATM   11  N3  UNL     1     -15.990 -16.796  -0.959  1.00  0.00    -0.234 N 
ATOM     12  H2  UNL     1     -14.713 -15.723  -2.183  1.00  0.00     0.188 HD
HETATM   13  N4  UNL     1     -16.654 -17.964  -1.057  1.00  0.00    -0.223 N 
ATOM     14  H3  UNL     1     -16.028 -16.182  -0.146  1.00  0.00     0.209 HD
BRANCH  13  15
HETATM   15  C11 UNL     1     -17.498 -18.521  -0.063  1.00  0.00     0.196 A 
HETATM   16  N5  UNL     1     -17.452 -19.696   0.578  1.00  0.00    -0.220 N 
HETATM   17  O2  UNL     1     -18.447 -19.790   1.422  1.00  0.00    -0.153 OA
ATOM     18  H5  UNL     1     -16.744 -20.414   0.429  1.00  0.00     0.198 HD
HETATM   19  N6  UNL     1     -19.176 -18.719   1.384  1.00  0.00    -0.222 N 
HETATM   20  C12 UNL     1     -18.632 -17.891   0.473  1.00  0.00     0.169 A 
ATOM     21  H6  UNL     1     -20.010 -18.537   1.942  1.00  0.00     0.198 HD
HETATM   22  N7  UNL     1     -19.040 -16.730   0.127  1.00  0.00    -0.381 N 
ATOM     23  H72 UNL     1     -18.628 -16.103  -0.563  1.00  0.00     0.157 HD
ATOM     24  H71 UNL     1     -19.864 -16.273   0.518  1.00  0.00     0.157 HD
ENDBRANCH  13  15
ENDBRANCH   6   7
ENDBRANCH   5   6
ENDBRANCH   3   5
BRANCH   1  25
HETATM   25  C4  UNL     1     -20.515 -22.543  -2.216  1.00  0.00     0.128 A 
HETATM   26  C3  UNL     1     -21.408 -23.033  -3.139  1.00  0.00     0.045 A 
HETATM   27  C15 UNL     1     -21.772 -24.297  -2.723  1.00  0.00     0.277 A 
HETATM   28  N9  UNL     1     -21.123 -24.573  -1.581  1.00  0.00    -0.197 N 
HETATM   29  O4  UNL     1     -22.568 -25.024  -3.329  1.00  0.00    -0.266 OA
HETATM   30  N8  UNL     1     -20.380 -23.531  -1.286  1.00  0.00    -0.283 N 
ATOM     31  H8  UNL     1     -19.778 -23.469  -0.465  1.00  0.00     0.188 HD
BRANCH  26  32
HETATM   32  C2  UNL     1     -21.872 -22.294  -4.345  1.00  0.00     0.042 C 
HETATM   33  C1  UNL     1     -23.161 -21.568  -4.127  1.00  0.00     0.010 C 
ENDBRANCH  26  32
BRANCH  28  34
HETATM   34  C13 UNL     1     -21.234 -25.801  -0.828  1.00  0.00     0.198 A 
HETATM   35  N10 UNL     1     -21.306 -27.047  -1.331  1.00  0.00    -0.220 N 
HETATM   36  O3  UNL     1     -21.396 -27.880  -0.335  1.00  0.00    -0.153 OA
ATOM     37  H10 UNL     1     -21.293 -27.295  -2.321  1.00  0.00     0.198 HD
HETATM   38  N11 UNL     1     -21.389 -27.270   0.797  1.00  0.00    -0.222 N 
HETATM   39  C14 UNL     1     -21.288 -25.948   0.540  1.00  0.00     0.169 A 
ATOM     40  H11 UNL     1     -21.450 -27.705   1.718  1.00  0.00     0.198 HD
BRANCH  39  41
HETATM   41  N12 UNL     1     -21.249 -24.999   1.405  1.00  0.00    -0.381 N 
ATOM     42 2H12 UNL     1     -20.426 -24.662   1.905  1.00  0.00     0.157 HD
ATOM     43 1H12 UNL     1     -22.042 -24.441   1.719  1.00  0.00     0.157 HD
ENDBRANCH  39  41
ENDBRANCH  28  34
ENDBRANCH   1  25
TORSDOF 8
ENDMDL
