MODEL 1
REMARK VINA RESULT: -5.305742320      0.000      0.000
REMARK  5 active torsions:
REMARK  status: ('A' for Active; 'I' for Inactive)
REMARK    1  A    between atoms: O1_1  and  C1_3 
REMARK    2  A    between atoms: C3_8  and  O2_9 
REMARK    3  A    between atoms: O2_9  and  C4_10 
REMARK    4  A    between atoms: C4_10  and  C5_11 
REMARK    5  A    between atoms: C8_20  and  O4_21 
ROOT
HETATM    1  C1  UNL     1     -15.339  24.722   3.597  1.00  0.00     0.176 C 
HETATM    2  C2  UNL     1     -15.278  26.253   3.584  1.00  0.00     0.269 C 
HETATM    3  N1  UNL     1     -15.050  26.605   4.996  1.00  0.00    -0.044 N 
ATOM      4  H11 UNL     1     -15.889  26.659   5.573  1.00  0.00     0.280 HD
ATOM      5  H12 UNL     1     -14.761  27.568   5.164  1.00  0.00     0.280 HD
HETATM    6  C3  UNL     1     -14.107  25.609   5.386  1.00  0.00     0.352 C 
HETATM    7  C8  UNL     1     -14.712  24.332   4.919  1.00  0.00     0.205 C 
ENDROOT
BRANCH   6   8
HETATM    8  O2  UNL     1     -13.758  25.631   6.717  1.00  0.00    -0.353 OA
BRANCH   8   9
HETATM    9  C4  UNL     1     -12.433  25.927   6.954  1.00  0.00     0.232 C 
BRANCH   9  10
HETATM   10  C5  UNL     1     -12.345  27.418   7.239  1.00  0.00     0.347 C 
HETATM   11  N2  UNL     1     -11.098  27.801   7.823  1.00  0.00    -0.030 N 
HETATM   12  C6  UNL     1     -11.259  27.840   9.245  1.00  0.00     0.300 C 
ATOM     13  H22 UNL     1     -10.328  27.199   7.531  1.00  0.00     0.281 HD
ATOM     14  H21 UNL     1     -10.741  28.678   7.444  1.00  0.00     0.281 HD
HETATM   15  S1  UNL     1     -11.645  29.499   9.916  1.00  0.00    -0.058 SA
HETATM   16  C7  UNL     1     -12.720  27.429   9.444  1.00  0.00     0.238 C 
HETATM   17  S2  UNL     1     -13.347  28.539  10.741  1.00  0.00    -0.060 SA
HETATM   18  O3  UNL     1     -13.300  27.696   8.228  1.00  0.00    -0.338 OA
ENDBRANCH   9  10
ENDBRANCH   8   9
ENDBRANCH   6   8
BRANCH   7  19
HETATM   19  O4  UNL     1     -15.707  23.838   5.740  1.00  0.00    -0.389 OA
ATOM     20  H4  UNL     1     -15.736  22.894   5.638  1.00  0.00     0.210 HD
ENDBRANCH   7  19
BRANCH   1  21
HETATM   21  O1  UNL     1     -16.662  24.288   3.534  1.00  0.00    -0.391 OA
ATOM     22  H1  UNL     1     -16.972  24.302   2.636  1.00  0.00     0.210 HD
ENDBRANCH   1  21
TORSDOF 5
ENDMDL
MODEL 2
REMARK VINA RESULT: -5.207969669      1.069      1.269
REMARK  5 active torsions:
REMARK  status: ('A' for Active; 'I' for Inactive)
REMARK    1  A    between atoms: O1_1  and  C1_3 
REMARK    2  A    between atoms: C3_8  and  O2_9 
REMARK    3  A    between atoms: O2_9  and  C4_10 
REMARK    4  A    between atoms: C4_10  and  C5_11 
REMARK    5  A    between atoms: C8_20  and  O4_21 
ROOT
HETATM    1  C1  UNL     1     -15.618  24.866   3.482  1.00  0.00     0.176 C 
HETATM    2  C2  UNL     1     -15.636  26.397   3.416  1.00  0.00     0.269 C 
HETATM    3  N1  UNL     1     -15.202  26.809   4.761  1.00  0.00    -0.044 N 
ATOM      4  H11 UNL     1     -15.939  26.847   5.465  1.00  0.00     0.280 HD
ATOM      5  H12 UNL     1     -14.938  27.790   4.852  1.00  0.00     0.280 HD
HETATM    6  C3  UNL     1     -14.160  25.872   5.021  1.00  0.00     0.352 C 
HETATM    7  C8  UNL     1     -14.768  24.553   4.696  1.00  0.00     0.205 C 
ENDROOT
BRANCH   6   8
HETATM    8  O2  UNL     1     -13.603  25.958   6.277  1.00  0.00    -0.353 OA
BRANCH   8   9
HETATM    9  C4  UNL     1     -13.002  27.168   6.552  1.00  0.00     0.232 C 
BRANCH   9  10
HETATM   10  C5  UNL     1     -12.063  26.951   7.728  1.00  0.00     0.347 C 
HETATM   11  N2  UNL     1     -12.678  26.249   8.810  1.00  0.00    -0.030 N 
HETATM   12  C6  UNL     1     -13.161  27.210   9.755  1.00  0.00     0.300 C 
ATOM     13  H22 UNL     1     -13.406  25.606   8.497  1.00  0.00     0.281 HD
ATOM     14  H21 UNL     1     -12.057  25.560   9.234  1.00  0.00     0.281 HD
HETATM   15  S1  UNL     1     -12.011  27.556  11.137  1.00  0.00    -0.058 SA
HETATM   16  C7  UNL     1     -12.783  28.550   9.117  1.00  0.00     0.238 C 
HETATM   17  S2  UNL     1     -12.175  29.570  10.494  1.00  0.00    -0.060 SA
HETATM   18  O3  UNL     1     -11.771  28.221   8.249  1.00  0.00    -0.338 OA
ENDBRANCH   9  10
ENDBRANCH   8   9
ENDBRANCH   6   8
BRANCH   7  19
HETATM   19  O4  UNL     1     -15.592  24.046   5.682  1.00  0.00    -0.389 OA
ATOM     20  H4  UNL     1     -15.694  24.709   6.355  1.00  0.00     0.210 HD
ENDBRANCH   7  19
BRANCH   1  21
HETATM   21  O1  UNL     1     -16.910  24.371   3.647  1.00  0.00    -0.391 OA
ATOM     22  H1  UNL     1     -16.925  23.431   3.509  1.00  0.00     0.210 HD
ENDBRANCH   1  21
TORSDOF 5
ENDMDL
MODEL 3
REMARK VINA RESULT: -5.162635707      3.173      3.504
REMARK  5 active torsions:
REMARK  status: ('A' for Active; 'I' for Inactive)
REMARK    1  A    between atoms: O1_1  and  C1_3 
REMARK    2  A    between atoms: C3_8  and  O2_9 
REMARK    3  A    between atoms: O2_9  and  C4_10 
REMARK    4  A    between atoms: C4_10  and  C5_11 
REMARK    5  A    between atoms: C8_20  and  O4_21 
ROOT
HETATM    1  C1  UNL     1     -15.385  24.684   3.734  1.00  0.00     0.176 C 
HETATM    2  C2  UNL     1     -15.222  26.207   3.720  1.00  0.00     0.269 C 
HETATM    3  N1  UNL     1     -14.926  26.540   5.123  1.00  0.00    -0.044 N 
ATOM      4  H11 UNL     1     -15.741  26.648   5.727  1.00  0.00     0.280 HD
ATOM      5  H12 UNL     1     -14.568  27.481   5.282  1.00  0.00     0.280 HD
HETATM    6  C3  UNL     1     -14.039  25.483   5.482  1.00  0.00     0.352 C 
HETATM    7  C8  UNL     1     -14.742  24.250   5.035  1.00  0.00     0.205 C 
ENDROOT
BRANCH   6   8
HETATM    8  O2  UNL     1     -13.647  25.478   6.801  1.00  0.00    -0.353 OA
BRANCH   8   9
HETATM    9  C4  UNL     1     -12.299  25.695   6.996  1.00  0.00     0.232 C 
BRANCH   9  10
HETATM   10  C5  UNL     1     -11.595  24.358   6.824  1.00  0.00     0.347 C 
HETATM   11  N2  UNL     1     -12.143  23.330   7.650  1.00  0.00    -0.030 N 
HETATM   12  C6  UNL     1     -11.364  23.250   8.849  1.00  0.00     0.300 C 
ATOM     13  H22 UNL     1     -13.137  23.465   7.836  1.00  0.00     0.281 HD
ATOM     14  H21 UNL     1     -12.213  22.435   7.167  1.00  0.00     0.281 HD
HETATM   15  S1  UNL     1     -10.043  21.984   8.809  1.00  0.00    -0.058 SA
HETATM   16  C7  UNL     1     -10.310  24.344   8.655  1.00  0.00     0.238 C 
HETATM   17  S2  UNL     1      -8.759  23.610   9.257  1.00  0.00    -0.060 SA
HETATM   18  O3  UNL     1     -10.284  24.531   7.295  1.00  0.00    -0.338 OA
ENDBRANCH   9  10
ENDBRANCH   8   9
ENDBRANCH   6   8
BRANCH   7  19
HETATM   19  O4  UNL     1     -15.741  23.822   5.889  1.00  0.00    -0.389 OA
ATOM     20  H4  UNL     1     -16.163  24.587   6.262  1.00  0.00     0.210 HD
ENDBRANCH   7  19
BRANCH   1  21
HETATM   21  O1  UNL     1     -16.735  24.339   3.714  1.00  0.00    -0.391 OA
ATOM     22  H1  UNL     1     -17.062  24.332   2.822  1.00  0.00     0.210 HD
ENDBRANCH   1  21
TORSDOF 5
ENDMDL
MODEL 4
REMARK VINA RESULT: -5.153401743      1.019      1.054
REMARK  5 active torsions:
REMARK  status: ('A' for Active; 'I' for Inactive)
REMARK    1  A    between atoms: O1_1  and  C1_3 
REMARK    2  A    between atoms: C3_8  and  O2_9 
REMARK    3  A    between atoms: O2_9  and  C4_10 
REMARK    4  A    between atoms: C4_10  and  C5_11 
REMARK    5  A    between atoms: C8_20  and  O4_21 
ROOT
HETATM    1  C1  UNL     1     -15.564  24.825   3.500  1.00  0.00     0.176 C 
HETATM    2  C2  UNL     1     -15.533  26.356   3.448  1.00  0.00     0.269 C 
HETATM    3  N1  UNL     1     -15.207  26.745   4.830  1.00  0.00    -0.044 N 
ATOM      4  H11 UNL     1     -16.002  26.798   5.467  1.00  0.00     0.280 HD
ATOM      5  H12 UNL     1     -14.925  27.717   4.954  1.00  0.00     0.280 HD
HETATM    6  C3  UNL     1     -14.218  25.776   5.171  1.00  0.00     0.352 C 
HETATM    7  C8  UNL     1     -14.832  24.478   4.780  1.00  0.00     0.205 C 
ENDROOT
BRANCH   6   8
HETATM    8  O2  UNL     1     -13.772  25.836   6.471  1.00  0.00    -0.353 OA
BRANCH   8   9
HETATM    9  C4  UNL     1     -12.625  26.582   6.646  1.00  0.00     0.232 C 
BRANCH   9  10
HETATM   10  C5  UNL     1     -12.861  27.509   7.828  1.00  0.00     0.347 C 
HETATM   11  N2  UNL     1     -11.652  28.045   8.365  1.00  0.00    -0.030 N 
HETATM   12  C6  UNL     1     -11.245  27.227   9.468  1.00  0.00     0.300 C 
ATOM     13  H22 UNL     1     -10.920  28.146   7.661  1.00  0.00     0.281 HD
ATOM     14  H21 UNL     1     -11.737  29.030   8.618  1.00  0.00     0.281 HD
HETATM   15  S1  UNL     1     -11.793  27.838  11.104  1.00  0.00    -0.058 SA
HETATM   16  C7  UNL     1     -12.329  26.145   9.519  1.00  0.00     0.238 C 
HETATM   17  S2  UNL     1     -12.685  25.923  11.288  1.00  0.00    -0.060 SA
HETATM   18  O3  UNL     1     -13.388  26.717   8.860  1.00  0.00    -0.338 OA
ENDBRANCH   9  10
ENDBRANCH   8   9
ENDBRANCH   6   8
BRANCH   7  19
HETATM   19  O4  UNL     1     -15.753  23.987   5.685  1.00  0.00    -0.389 OA
ATOM     20  H4  UNL     1     -16.622  24.096   5.315  1.00  0.00     0.210 HD
ENDBRANCH   7  19
BRANCH   1  21
HETATM   21  O1  UNL     1     -16.879  24.366   3.547  1.00  0.00    -0.391 OA
ATOM     22  H1  UNL     1     -17.333  24.739   4.293  1.00  0.00     0.210 HD
ENDBRANCH   1  21
TORSDOF 5
ENDMDL
MODEL 5
REMARK VINA RESULT: -5.037375842      1.314      1.668
REMARK  5 active torsions:
REMARK  status: ('A' for Active; 'I' for Inactive)
REMARK    1  A    between atoms: O1_1  and  C1_3 
REMARK    2  A    between atoms: C3_8  and  O2_9 
REMARK    3  A    between atoms: O2_9  and  C4_10 
REMARK    4  A    between atoms: C4_10  and  C5_11 
REMARK    5  A    between atoms: C8_20  and  O4_21 
ROOT
HETATM    1  C1  UNL     1     -15.663  24.921   3.352  1.00  0.00     0.176 C 
HETATM    2  C2  UNL     1     -15.639  26.453   3.400  1.00  0.00     0.269 C 
HETATM    3  N1  UNL     1     -15.211  26.752   4.776  1.00  0.00    -0.044 N 
ATOM      4  H11 UNL     1     -15.956  26.757   5.473  1.00  0.00     0.280 HD
ATOM      5  H12 UNL     1     -14.922  27.716   4.943  1.00  0.00     0.280 HD
HETATM    6  C3  UNL     1     -14.198  25.769   4.977  1.00  0.00     0.352 C 
HETATM    7  C8  UNL     1     -14.836  24.496   4.547  1.00  0.00     0.205 C 
ENDROOT
BRANCH   6   8
HETATM    8  O2  UNL     1     -13.655  25.746   6.241  1.00  0.00    -0.353 OA
BRANCH   8   9
HETATM    9  C4  UNL     1     -13.010  26.910   6.606  1.00  0.00     0.232 C 
BRANCH   9  10
HETATM   10  C5  UNL     1     -12.575  26.753   8.054  1.00  0.00     0.347 C 
HETATM   11  N2  UNL     1     -12.885  27.893   8.856  1.00  0.00    -0.030 N 
HETATM   12  C6  UNL     1     -11.729  28.736   8.909  1.00  0.00     0.300 C 
ATOM     13  H22 UNL     1     -13.716  28.387   8.530  1.00  0.00     0.281 HD
ATOM     14  H21 UNL     1     -13.229  27.639   9.782  1.00  0.00     0.281 HD
HETATM   15  S1  UNL     1     -10.668  28.471  10.377  1.00  0.00    -0.058 SA
HETATM   16  C7  UNL     1     -10.709  27.987   8.047  1.00  0.00     0.238 C 
HETATM   17  S2  UNL     1      -9.137  28.132   8.950  1.00  0.00    -0.060 SA
HETATM   18  O3  UNL     1     -11.173  26.694   8.048  1.00  0.00    -0.338 OA
ENDBRANCH   9  10
ENDBRANCH   8   9
ENDBRANCH   6   8
BRANCH   7  19
HETATM   19  O4  UNL     1     -15.686  23.939   5.484  1.00  0.00    -0.389 OA
ATOM     20  H4  UNL     1     -16.578  24.036   5.171  1.00  0.00     0.210 HD
ENDBRANCH   7  19
BRANCH   1  21
HETATM   21  O1  UNL     1     -16.970  24.451   3.466  1.00  0.00    -0.391 OA
ATOM     22  H1  UNL     1     -17.552  25.153   3.732  1.00  0.00     0.210 HD
ENDBRANCH   1  21
TORSDOF 5
ENDMDL
