MODEL 1
REMARK VINA RESULT: -6.505379707      0.000      0.000
REMARK  10 active torsions:
REMARK  status: ('A' for Active; 'I' for Inactive)
REMARK    1  A    between atoms: N1_2  and  C2_3 
REMARK    2  A    between atoms: N1_2  and  C5_8 
REMARK    3  A    between atoms: C2_3  and  C3_4 
REMARK    4  A    between atoms: C3_4  and  C4_5 
REMARK    5  A    between atoms: C4_5  and  O1_6 
REMARK    6  A    between atoms: C6_11  and  N3_12 
REMARK    7  A    between atoms: C7_17  and  N5_18 
REMARK    8  A    between atoms: C12_28  and  N8_29 
REMARK    9  A    between atoms: C15_38  and  C16_39 
REMARK   10  A    between atoms: C17_42  and  O5_43 
ROOT
HETATM    1  C5  UNL     1     -18.239  -9.663 -31.825  1.00  0.00     0.153 C 
HETATM    2  N2  UNL     1     -16.915  -9.779 -31.977  1.00  0.00    -0.174 N 
ATOM      3  H2  UNL     1     -16.371  -9.823 -31.116  1.00  0.00     0.186 HD
HETATM    4  C6  UNL     1     -16.200  -9.846 -33.134  1.00  0.00     0.679 C 
HETATM    5  N4  UNL     1     -16.614 -10.392 -34.271  1.00  0.00    -0.176 N 
ATOM      6  H4  UNL     1     -15.869 -10.712 -34.890  1.00  0.00     0.186 HD
HETATM    7  C7  UNL     1     -17.902 -10.597 -34.752  1.00  0.00     0.141 C 
HETATM    8  C15 UNL     1     -19.042 -10.160 -34.155  1.00  0.00     0.122 C 
HETATM    9  C17 UNL     1     -19.202  -9.956 -32.797  1.00  0.00     0.131 C 
ENDROOT
BRANCH   7  10
HETATM   10  N5  UNL     1     -17.932 -11.320 -35.955  1.00  0.00    -0.327 N 
HETATM   11  C8  UNL     1     -18.102 -11.613 -37.361  1.00  0.00     0.314 A 
HETATM   12  N6  UNL     1     -19.305 -12.045 -37.972  1.00  0.00    -0.030 N 
HETATM   13  C14 UNL     1     -17.644 -12.668 -36.427  1.00  0.00     0.153 A 
HETATM   14  C9  UNL     1     -19.685 -13.330 -37.491  1.00  0.00     0.311 A 
ATOM     15  H62 UNL     1     -20.054 -11.362 -37.855  1.00  0.00     0.282 HD
ATOM     16  H61 UNL     1     -19.239 -12.028 -38.990  1.00  0.00     0.282 HD
HETATM   17  C10 UNL     1     -18.692 -13.713 -36.485  1.00  0.00     0.132 A 
HETATM   18  N10 UNL     1     -19.271 -14.429 -38.326  1.00  0.00    -0.256 N 
HETATM   19  C11 UNL     1     -18.373 -14.790 -37.437  1.00  0.00     0.115 A 
HETATM   20  N7  UNL     1     -17.584 -15.886 -37.693  1.00  0.00    -0.180 N 
HETATM   21  C12 UNL     1     -17.707 -16.591 -38.824  1.00  0.00     0.681 A 
ATOM     22  H7  UNL     1     -16.886 -16.168 -37.004  1.00  0.00     0.185 HD
HETATM   23  N9  UNL     1     -18.632 -16.198 -39.713  1.00  0.00    -0.141 N 
HETATM   24  C13 UNL     1     -19.405 -15.135 -39.475  1.00  0.00     0.344 A 
ATOM     25  H9  UNL     1     -18.747 -16.719 -40.583  1.00  0.00     0.189 HD
HETATM   26  O2  UNL     1     -20.275 -14.763 -40.306  1.00  0.00    -0.246 OA
BRANCH  21  27
HETATM   27  N8  UNL     1     -16.937 -17.606 -39.004  1.00  0.00    -0.234 N 
ATOM     28  H82 UNL     1     -16.375 -18.024 -38.261  1.00  0.00     0.174 HD
ATOM     29  H81 UNL     1     -16.882 -18.017 -39.935  1.00  0.00     0.174 HD
ENDBRANCH  21  27
ENDBRANCH   7  10
BRANCH   8  30
HETATM   30  C16 UNL     1     -20.170  -9.891 -35.057  1.00  0.00     0.216 C 
HETATM   31  O3  UNL     1     -21.027 -10.983 -35.227  1.00  0.00    -0.644 OA
HETATM   32  O4  UNL     1     -20.790  -8.680 -34.901  1.00  0.00    -0.644 OA
ENDBRANCH   8  30
BRANCH   4  33
HETATM   33  N3  UNL     1     -15.023  -9.335 -33.130  1.00  0.00    -0.234 N 
ATOM     34  H32 UNL     1     -14.700  -8.911 -33.999  1.00  0.00     0.174 HD
ATOM     35  H31 UNL     1     -14.493  -9.388 -32.259  1.00  0.00     0.174 HD
ENDBRANCH   4  33
BRANCH   9  36
HETATM   36  O5  UNL     1     -20.480 -10.048 -32.302  1.00  0.00    -0.356 OA
ATOM     37  H5  UNL     1     -20.794 -10.940 -32.211  1.00  0.00     0.218 HD
ENDBRANCH   9  36
BRANCH   1  38
HETATM   38  N1  UNL     1     -18.670  -9.198 -30.560  1.00  0.00    -0.369 N 
HETATM   39  C1  UNL     1     -18.991 -10.198 -29.542  1.00  0.00     0.151 C 
BRANCH  38  40
HETATM   40  C2  UNL     1     -18.811  -7.798 -30.218  1.00  0.00     0.126 C 
BRANCH  40  41
HETATM   41  C3  UNL     1     -18.759  -7.602 -28.706  1.00  0.00     0.046 C 
BRANCH  41  42
HETATM   42  C4  UNL     1     -17.500  -6.866 -28.332  1.00  0.00     0.165 C 
BRANCH  42  43
HETATM   43  O1  UNL     1     -16.386  -7.657 -28.550  1.00  0.00    -0.401 OA
ATOM     44  H1  UNL     1     -16.026  -7.500 -29.416  1.00  0.00     0.209 HD
ENDBRANCH  42  43
ENDBRANCH  41  42
ENDBRANCH  40  41
ENDBRANCH  38  40
ENDBRANCH   1  38
TORSDOF 10
ENDMDL
MODEL 2
REMARK VINA RESULT: -6.396807625      2.324      3.080
REMARK  10 active torsions:
REMARK  status: ('A' for Active; 'I' for Inactive)
REMARK    1  A    between atoms: N1_2  and  C2_3 
REMARK    2  A    between atoms: N1_2  and  C5_8 
REMARK    3  A    between atoms: C2_3  and  C3_4 
REMARK    4  A    between atoms: C3_4  and  C4_5 
REMARK    5  A    between atoms: C4_5  and  O1_6 
REMARK    6  A    between atoms: C6_11  and  N3_12 
REMARK    7  A    between atoms: C7_17  and  N5_18 
REMARK    8  A    between atoms: C12_28  and  N8_29 
REMARK    9  A    between atoms: C15_38  and  C16_39 
REMARK   10  A    between atoms: C17_42  and  O5_43 
ROOT
HETATM    1  C5  UNL     1     -19.481  -9.160 -32.647  1.00  0.00     0.153 C 
HETATM    2  N2  UNL     1     -18.791  -8.710 -33.702  1.00  0.00    -0.174 N 
ATOM      3  H2  UNL     1     -18.141  -7.947 -33.516  1.00  0.00     0.186 HD
HETATM    4  C6  UNL     1     -18.845  -9.142 -34.992  1.00  0.00     0.679 C 
HETATM    5  N4  UNL     1     -19.085 -10.387 -35.384  1.00  0.00    -0.176 N 
ATOM      6  H4  UNL     1     -18.714 -10.628 -36.303  1.00  0.00     0.186 HD
HETATM    7  C7  UNL     1     -19.763 -11.416 -34.740  1.00  0.00     0.141 C 
HETATM    8  C15 UNL     1     -20.430 -11.300 -33.562  1.00  0.00     0.122 C 
HETATM    9  C17 UNL     1     -20.125 -10.399 -32.559  1.00  0.00     0.131 C 
ENDROOT
BRANCH   7  10
HETATM   10  N5  UNL     1     -19.703 -12.635 -35.435  1.00  0.00    -0.327 N 
HETATM   11  C8  UNL     1     -19.603 -14.056 -35.680  1.00  0.00     0.314 A 
HETATM   12  N6  UNL     1     -18.397 -14.774 -35.878  1.00  0.00    -0.030 N 
HETATM   13  C14 UNL     1     -19.779 -13.113 -36.809  1.00  0.00     0.153 A 
HETATM   14  C9  UNL     1     -17.749 -14.356 -37.075  1.00  0.00     0.311 A 
ATOM     15  H62 UNL     1     -17.779 -14.702 -35.070  1.00  0.00     0.282 HD
ATOM     16  H61 UNL     1     -18.551 -15.782 -35.865  1.00  0.00     0.282 HD
HETATM   17  C10 UNL     1     -18.567 -13.282 -37.643  1.00  0.00     0.132 A 
HETATM   18  N10 UNL     1     -18.025 -15.181 -38.225  1.00  0.00    -0.256 N 
HETATM   19  C11 UNL     1     -18.763 -14.229 -38.752  1.00  0.00     0.115 A 
HETATM   20  N7  UNL     1     -19.358 -14.446 -39.972  1.00  0.00    -0.180 N 
HETATM   21  C12 UNL     1     -19.204 -15.600 -40.634  1.00  0.00     0.681 A 
ATOM     22  H7  UNL     1     -19.931 -13.709 -40.384  1.00  0.00     0.185 HD
HETATM   23  N9  UNL     1     -18.445 -16.552 -40.070  1.00  0.00    -0.141 N 
HETATM   24  C13 UNL     1     -17.862 -16.353 -38.884  1.00  0.00     0.344 A 
ATOM     25  H9  UNL     1     -18.311 -17.441 -40.553  1.00  0.00     0.189 HD
HETATM   26  O2  UNL     1     -17.148 -17.243 -38.352  1.00  0.00    -0.246 OA
BRANCH  21  27
HETATM   27  N8  UNL     1     -19.788 -15.740 -41.771  1.00  0.00    -0.234 N 
ATOM     28  H82 UNL     1     -19.351 -15.500 -42.661  1.00  0.00     0.174 HD
ATOM     29  H81 UNL     1     -20.738 -16.110 -41.789  1.00  0.00     0.174 HD
ENDBRANCH  21  27
ENDBRANCH   7  10
BRANCH   8  30
HETATM   30  C16 UNL     1     -21.561 -12.220 -33.377  1.00  0.00     0.216 C 
HETATM   31  O3  UNL     1     -21.272 -13.308 -32.546  1.00  0.00    -0.644 OA
HETATM   32  O4  UNL     1     -22.784 -11.639 -33.174  1.00  0.00    -0.644 OA
ENDBRANCH   8  30
BRANCH   4  33
HETATM   33  N3  UNL     1     -18.647  -8.271 -35.914  1.00  0.00    -0.234 N 
ATOM     34  H32 UNL     1     -18.487  -7.310 -35.614  1.00  0.00     0.174 HD
ATOM     35  H31 UNL     1     -18.663  -8.599 -36.879  1.00  0.00     0.174 HD
ENDBRANCH   4  33
BRANCH   9  36
HETATM   36  O5  UNL     1     -20.495 -10.742 -31.281  1.00  0.00    -0.356 OA
ATOM     37  H5  UNL     1     -20.372 -11.663 -31.080  1.00  0.00     0.218 HD
ENDBRANCH   9  36
BRANCH   1  38
HETATM   38  N1  UNL     1     -19.549  -8.278 -31.542  1.00  0.00    -0.369 N 
HETATM   39  C1  UNL     1     -18.513  -8.396 -30.516  1.00  0.00     0.151 C 
BRANCH  38  40
HETATM   40  C2  UNL     1     -20.578  -7.274 -31.370  1.00  0.00     0.126 C 
BRANCH  40  41
HETATM   41  C3  UNL     1     -20.036  -5.884 -31.687  1.00  0.00     0.046 C 
BRANCH  41  42
HETATM   42  C4  UNL     1     -20.368  -5.521 -33.110  1.00  0.00     0.165 C 
BRANCH  42  43
HETATM   43  O1  UNL     1     -19.298  -5.788 -33.946  1.00  0.00    -0.401 OA
ATOM     44  H1  UNL     1     -19.516  -5.582 -34.848  1.00  0.00     0.209 HD
ENDBRANCH  42  43
ENDBRANCH  41  42
ENDBRANCH  40  41
ENDBRANCH  38  40
ENDBRANCH   1  38
TORSDOF 10
ENDMDL
MODEL 3
REMARK VINA RESULT: -6.391431216      2.851      3.990
REMARK  10 active torsions:
REMARK  status: ('A' for Active; 'I' for Inactive)
REMARK    1  A    between atoms: N1_2  and  C2_3 
REMARK    2  A    between atoms: N1_2  and  C5_8 
REMARK    3  A    between atoms: C2_3  and  C3_4 
REMARK    4  A    between atoms: C3_4  and  C4_5 
REMARK    5  A    between atoms: C4_5  and  O1_6 
REMARK    6  A    between atoms: C6_11  and  N3_12 
REMARK    7  A    between atoms: C7_17  and  N5_18 
REMARK    8  A    between atoms: C12_28  and  N8_29 
REMARK    9  A    between atoms: C15_38  and  C16_39 
REMARK   10  A    between atoms: C17_42  and  O5_43 
ROOT
HETATM    1  C5  UNL     1     -20.671  -7.819 -34.750  1.00  0.00     0.153 C 
HETATM    2  N2  UNL     1     -21.947  -8.189 -34.911  1.00  0.00    -0.174 N 
ATOM      3  H2  UNL     1     -22.604  -7.440 -35.129  1.00  0.00     0.186 HD
HETATM    4  C6  UNL     1     -22.482  -9.438 -34.820  1.00  0.00     0.679 C 
HETATM    5  N4  UNL     1     -21.867 -10.570 -35.143  1.00  0.00    -0.176 N 
ATOM      6  H4  UNL     1     -22.488 -11.339 -35.393  1.00  0.00     0.186 HD
HETATM    7  C7  UNL     1     -20.512 -10.873 -35.193  1.00  0.00     0.141 C 
HETATM    8  C15 UNL     1     -19.507 -10.045 -34.802  1.00  0.00     0.122 C 
HETATM    9  C17 UNL     1     -19.559  -8.664 -34.822  1.00  0.00     0.131 C 
ENDROOT
BRANCH   7  10
HETATM   10  N5  UNL     1     -20.253 -12.157 -35.699  1.00  0.00    -0.327 N 
HETATM   11  C8  UNL     1     -19.973 -13.575 -35.729  1.00  0.00     0.314 A 
HETATM   12  N6  UNL     1     -18.682 -14.159 -35.727  1.00  0.00    -0.030 N 
HETATM   13  C14 UNL     1     -20.145 -12.819 -36.992  1.00  0.00     0.153 A 
HETATM   14  C9  UNL     1     -17.974 -13.829 -36.918  1.00  0.00     0.311 A 
ATOM     15  H62 UNL     1     -18.154 -13.905 -34.893  1.00  0.00     0.282 HD
ATOM     16  H61 UNL     1     -18.724 -15.168 -35.582  1.00  0.00     0.282 HD
HETATM   17  C10 UNL     1     -18.848 -12.948 -37.696  1.00  0.00     0.132 A 
HETATM   18  N10 UNL     1     -18.047 -14.827 -37.955  1.00  0.00    -0.256 N 
HETATM   19  C11 UNL     1     -18.833 -14.052 -38.670  1.00  0.00     0.115 A 
HETATM   20  N7  UNL     1     -19.282 -14.500 -39.889  1.00  0.00    -0.180 N 
HETATM   21  C12 UNL     1     -18.940 -15.704 -40.364  1.00  0.00     0.681 A 
ATOM     22  H7  UNL     1     -19.891 -13.900 -40.445  1.00  0.00     0.185 HD
HETATM   23  N9  UNL     1     -18.137 -16.473 -39.612  1.00  0.00    -0.141 N 
HETATM   24  C13 UNL     1     -17.694 -16.048 -38.425  1.00  0.00     0.344 A 
ATOM     25  H9  UNL     1     -17.861 -17.395 -39.951  1.00  0.00     0.189 HD
HETATM   26  O2  UNL     1     -16.940 -16.764 -37.717  1.00  0.00    -0.246 OA
BRANCH  21  27
HETATM   27  N8  UNL     1     -19.395 -16.065 -41.511  1.00  0.00    -0.234 N 
ATOM     28  H82 UNL     1     -18.850 -16.020 -42.372  1.00  0.00     0.174 HD
ATOM     29  H81 UNL     1     -20.351 -16.416 -41.569  1.00  0.00     0.174 HD
ENDBRANCH  21  27
ENDBRANCH   7  10
BRANCH   8  30
HETATM   30  C16 UNL     1     -18.286 -10.708 -34.323  1.00  0.00     0.216 C 
HETATM   31  O3  UNL     1     -17.229 -10.669 -35.239  1.00  0.00    -0.644 OA
HETATM   32  O4  UNL     1     -17.941 -10.467 -33.021  1.00  0.00    -0.644 OA
ENDBRANCH   8  30
BRANCH   4  33
HETATM   33  N3  UNL     1     -23.684  -9.534 -34.382  1.00  0.00    -0.234 N 
ATOM     34  H32 UNL     1     -24.400  -9.805 -35.056  1.00  0.00     0.174 HD
ATOM     35  H31 UNL     1     -23.840  -9.334 -33.394  1.00  0.00     0.174 HD
ENDBRANCH   4  33
BRANCH   9  36
HETATM   36  O5  UNL     1     -18.362  -7.999 -34.927  1.00  0.00    -0.356 OA
ATOM     37  H5  UNL     1     -17.672  -8.511 -35.333  1.00  0.00     0.218 HD
ENDBRANCH   9  36
BRANCH   1  38
HETATM   38  N1  UNL     1     -20.464  -6.444 -34.483  1.00  0.00    -0.369 N 
HETATM   39  C1  UNL     1     -20.702  -5.498 -35.573  1.00  0.00     0.151 C 
BRANCH  38  40
HETATM   40  C2  UNL     1     -20.032  -5.925 -33.202  1.00  0.00     0.126 C 
BRANCH  40  41
HETATM   41  C3  UNL     1     -20.727  -6.659 -32.059  1.00  0.00     0.046 C 
BRANCH  41  42
HETATM   42  C4  UNL     1     -19.700  -7.161 -31.079  1.00  0.00     0.165 C 
BRANCH  42  43
HETATM   43  O1  UNL     1     -18.798  -8.006 -31.703  1.00  0.00    -0.401 OA
ATOM     44  H1  UNL     1     -18.061  -8.192 -31.133  1.00  0.00     0.209 HD
ENDBRANCH  42  43
ENDBRANCH  41  42
ENDBRANCH  40  41
ENDBRANCH  38  40
ENDBRANCH   1  38
TORSDOF 10
ENDMDL
MODEL 4
REMARK VINA RESULT: -6.359823798      2.012      2.646
REMARK  10 active torsions:
REMARK  status: ('A' for Active; 'I' for Inactive)
REMARK    1  A    between atoms: N1_2  and  C2_3 
REMARK    2  A    between atoms: N1_2  and  C5_8 
REMARK    3  A    between atoms: C2_3  and  C3_4 
REMARK    4  A    between atoms: C3_4  and  C4_5 
REMARK    5  A    between atoms: C4_5  and  O1_6 
REMARK    6  A    between atoms: C6_11  and  N3_12 
REMARK    7  A    between atoms: C7_17  and  N5_18 
REMARK    8  A    between atoms: C12_28  and  N8_29 
REMARK    9  A    between atoms: C15_38  and  C16_39 
REMARK   10  A    between atoms: C17_42  and  O5_43 
ROOT
HETATM    1  C5  UNL     1     -19.150  -9.266 -32.600  1.00  0.00     0.153 C 
HETATM    2  N2  UNL     1     -18.601  -8.777 -33.719  1.00  0.00    -0.174 N 
ATOM      3  H2  UNL     1     -17.950  -8.002 -33.592  1.00  0.00     0.186 HD
HETATM    4  C6  UNL     1     -18.800  -9.181 -35.004  1.00  0.00     0.679 C 
HETATM    5  N4  UNL     1     -19.059 -10.423 -35.395  1.00  0.00    -0.176 N 
ATOM      6  H4  UNL     1     -18.796 -10.633 -36.357  1.00  0.00     0.186 HD
HETATM    7  C7  UNL     1     -19.632 -11.482 -34.700  1.00  0.00     0.141 C 
HETATM    8  C15 UNL     1     -20.155 -11.408 -33.448  1.00  0.00     0.122 C 
HETATM    9  C17 UNL     1     -19.751 -10.522 -32.466  1.00  0.00     0.131 C 
ENDROOT
BRANCH   7  10
HETATM   10  N5  UNL     1     -19.630 -12.683 -35.427  1.00  0.00    -0.327 N 
HETATM   11  C8  UNL     1     -19.605 -14.100 -35.710  1.00  0.00     0.314 A 
HETATM   12  N6  UNL     1     -18.438 -14.879 -35.911  1.00  0.00    -0.030 N 
HETATM   13  C14 UNL     1     -19.712 -13.119 -36.815  1.00  0.00     0.153 A 
HETATM   14  C9  UNL     1     -17.751 -14.467 -37.088  1.00  0.00     0.311 A 
ATOM     15  H62 UNL     1     -17.829 -14.864 -35.094  1.00  0.00     0.282 HD
ATOM     16  H61 UNL     1     -18.649 -15.877 -35.928  1.00  0.00     0.282 HD
HETATM   17  C10 UNL     1     -18.499 -13.333 -37.637  1.00  0.00     0.132 A 
HETATM   18  N10 UNL     1     -18.055 -15.243 -38.264  1.00  0.00    -0.256 N 
HETATM   19  C11 UNL     1     -18.731 -14.238 -38.774  1.00  0.00     0.115 A 
HETATM   20  N7  UNL     1     -19.319 -14.389 -40.008  1.00  0.00    -0.180 N 
HETATM   21  C12 UNL     1     -19.220 -15.532 -40.698  1.00  0.00     0.681 A 
ATOM     22  H7  UNL     1     -19.844 -13.610 -40.406  1.00  0.00     0.185 HD
HETATM   23  N9  UNL     1     -18.524 -16.539 -40.151  1.00  0.00    -0.141 N 
HETATM   24  C13 UNL     1     -17.948 -16.405 -38.953  1.00  0.00     0.344 A 
ATOM     25  H9  UNL     1     -18.433 -17.421 -40.657  1.00  0.00     0.189 HD
HETATM   26  O2  UNL     1     -17.293 -17.347 -38.436  1.00  0.00    -0.246 OA
BRANCH  21  27
HETATM   27  N8  UNL     1     -19.794 -15.608 -41.847  1.00  0.00    -0.234 N 
ATOM     28  H82 UNL     1     -19.711 -14.889 -42.566  1.00  0.00     0.174 HD
ATOM     29  H81 UNL     1     -20.363 -16.429 -42.054  1.00  0.00     0.174 HD
ENDBRANCH  21  27
ENDBRANCH   7  10
BRANCH   8  30
HETATM   30  C16 UNL     1     -21.235 -12.359 -33.152  1.00  0.00     0.216 C 
HETATM   31  O3  UNL     1     -20.818 -13.475 -32.418  1.00  0.00    -0.644 OA
HETATM   32  O4  UNL     1     -22.428 -11.813 -32.758  1.00  0.00    -0.644 OA
ENDBRANCH   8  30
BRANCH   4  33
HETATM   33  N3  UNL     1     -18.733  -8.285 -35.920  1.00  0.00    -0.234 N 
ATOM     34  H32 UNL     1     -19.553  -8.172 -36.516  1.00  0.00     0.174 HD
ATOM     35  H31 UNL     1     -17.868  -7.749 -35.988  1.00  0.00     0.174 HD
ENDBRANCH   4  33
BRANCH   9  36
HETATM   36  O5  UNL     1     -19.958 -10.903 -31.163  1.00  0.00    -0.356 OA
ATOM     37  H5  UNL     1     -20.812 -11.286 -31.006  1.00  0.00     0.218 HD
ENDBRANCH   9  36
BRANCH   1  38
HETATM   38  N1  UNL     1     -19.102  -8.411 -31.473  1.00  0.00    -0.369 N 
HETATM   39  C1  UNL     1     -20.131  -7.378 -31.362  1.00  0.00     0.151 C 
BRANCH  38  40
HETATM   40  C2  UNL     1     -18.100  -8.501 -30.432  1.00  0.00     0.126 C 
BRANCH  40  41
HETATM   41  C3  UNL     1     -18.456  -7.592 -29.259  1.00  0.00     0.046 C 
BRANCH  41  42
HETATM   42  C4  UNL     1     -17.519  -7.855 -28.110  1.00  0.00     0.165 C 
BRANCH  42  43
HETATM   43  O1  UNL     1     -16.241  -7.418 -28.410  1.00  0.00    -0.401 OA
ATOM     44  H1  UNL     1     -15.814  -8.014 -29.015  1.00  0.00     0.209 HD
ENDBRANCH  42  43
ENDBRANCH  41  42
ENDBRANCH  40  41
ENDBRANCH  38  40
ENDBRANCH   1  38
TORSDOF 10
ENDMDL
MODEL 5
REMARK VINA RESULT: -6.259150834      1.235      1.701
REMARK  10 active torsions:
REMARK  status: ('A' for Active; 'I' for Inactive)
REMARK    1  A    between atoms: N1_2  and  C2_3 
REMARK    2  A    between atoms: N1_2  and  C5_8 
REMARK    3  A    between atoms: C2_3  and  C3_4 
REMARK    4  A    between atoms: C3_4  and  C4_5 
REMARK    5  A    between atoms: C4_5  and  O1_6 
REMARK    6  A    between atoms: C6_11  and  N3_12 
REMARK    7  A    between atoms: C7_17  and  N5_18 
REMARK    8  A    between atoms: C12_28  and  N8_29 
REMARK    9  A    between atoms: C15_38  and  C16_39 
REMARK   10  A    between atoms: C17_42  and  O5_43 
ROOT
HETATM    1  C5  UNL     1     -18.847  -9.591 -32.033  1.00  0.00     0.153 C 
HETATM    2  N2  UNL     1     -17.530  -9.828 -32.022  1.00  0.00    -0.174 N 
ATOM      3  H2  UNL     1     -17.099  -9.901 -31.100  1.00  0.00     0.186 HD
HETATM    4  C6  UNL     1     -16.691  -9.984 -33.083  1.00  0.00     0.679 C 
HETATM    5  N4  UNL     1     -17.014 -10.517 -34.255  1.00  0.00    -0.176 N 
ATOM      6  H4  UNL     1     -16.233 -10.916 -34.775  1.00  0.00     0.186 HD
HETATM    7  C7  UNL     1     -18.249 -10.618 -34.886  1.00  0.00     0.141 C 
HETATM    8  C15 UNL     1     -19.408 -10.067 -34.436  1.00  0.00     0.122 C 
HETATM    9  C17 UNL     1     -19.710  -9.819 -33.110  1.00  0.00     0.131 C 
ENDROOT
BRANCH   7  10
HETATM   10  N5  UNL     1     -18.201 -11.361 -36.076  1.00  0.00    -0.327 N 
HETATM   11  C8  UNL     1     -18.295 -11.684 -37.482  1.00  0.00     0.314 A 
HETATM   12  N6  UNL     1     -19.455 -12.162 -38.141  1.00  0.00    -0.030 N 
HETATM   13  C14 UNL     1     -17.852 -12.709 -36.508  1.00  0.00     0.153 A 
HETATM   14  C9  UNL     1     -19.820 -13.450 -37.654  1.00  0.00     0.311 A 
ATOM     15  H62 UNL     1     -20.228 -11.500 -38.072  1.00  0.00     0.282 HD
ATOM     16  H61 UNL     1     -19.341 -12.160 -39.155  1.00  0.00     0.282 HD
HETATM   17  C10 UNL     1     -18.864 -13.785 -36.596  1.00  0.00     0.132 A 
HETATM   18  N10 UNL     1     -19.335 -14.550 -38.449  1.00  0.00    -0.256 N 
HETATM   19  C11 UNL     1     -18.470 -14.868 -37.511  1.00  0.00     0.115 A 
HETATM   20  N7  UNL     1     -17.637 -15.944 -37.709  1.00  0.00    -0.180 N 
HETATM   21  C12 UNL     1     -17.686 -16.673 -38.832  1.00  0.00     0.681 A 
ATOM     22  H7  UNL     1     -16.966 -16.194 -36.983  1.00  0.00     0.185 HD
HETATM   23  N9  UNL     1     -18.579 -16.323 -39.770  1.00  0.00    -0.141 N 
HETATM   24  C13 UNL     1     -19.393 -15.280 -39.589  1.00  0.00     0.344 A 
ATOM     25  H9  UNL     1     -18.637 -16.862 -40.635  1.00  0.00     0.189 HD
HETATM   26  O2  UNL     1     -20.233 -14.948 -40.466  1.00  0.00    -0.246 OA
BRANCH  21  27
HETATM   27  N8  UNL     1     -16.879 -17.666 -38.956  1.00  0.00    -0.234 N 
ATOM     28  H82 UNL     1     -16.407 -18.109 -38.167  1.00  0.00     0.174 HD
ATOM     29  H81 UNL     1     -16.699 -18.035 -39.889  1.00  0.00     0.174 HD
ENDBRANCH  21  27
ENDBRANCH   7  10
BRANCH   8  30
HETATM   30  C16 UNL     1     -20.391  -9.719 -35.471  1.00  0.00     0.216 C 
HETATM   31  O3  UNL     1     -21.307 -10.740 -35.743  1.00  0.00    -0.644 OA
HETATM   32  O4  UNL     1     -20.923  -8.460 -35.397  1.00  0.00    -0.644 OA
ENDBRANCH   8  30
BRANCH   4  33
HETATM   33  N3  UNL     1     -15.481  -9.581 -32.942  1.00  0.00    -0.234 N 
ATOM     34  H32 UNL     1     -15.347  -8.599 -32.703  1.00  0.00     0.174 HD
ATOM     35  H31 UNL     1     -14.740 -10.268 -33.077  1.00  0.00     0.174 HD
ENDBRANCH   4  33
BRANCH   9  36
HETATM   36  O5  UNL     1     -21.041  -9.786 -32.773  1.00  0.00    -0.356 OA
ATOM     37  H5  UNL     1     -21.234 -10.185 -31.933  1.00  0.00     0.218 HD
ENDBRANCH   9  36
BRANCH   1  38
HETATM   38  N1  UNL     1     -19.381  -9.061 -30.834  1.00  0.00    -0.369 N 
HETATM   39  C1  UNL     1     -19.200  -7.632 -30.584  1.00  0.00     0.151 C 
BRANCH  38  40
HETATM   40  C2  UNL     1     -20.092  -9.849 -29.848  1.00  0.00     0.126 C 
BRANCH  40  41
HETATM   41  C3  UNL     1     -19.131 -10.758 -29.088  1.00  0.00     0.046 C 
BRANCH  41  42
HETATM   42  C4  UNL     1     -19.304 -12.180 -29.551  1.00  0.00     0.165 C 
BRANCH  42  43
HETATM   43  O1  UNL     1     -18.194 -12.604 -30.260  1.00  0.00    -0.401 OA
ATOM     44  H1  UNL     1     -18.428 -12.818 -31.156  1.00  0.00     0.209 HD
ENDBRANCH  42  43
ENDBRANCH  41  42
ENDBRANCH  40  41
ENDBRANCH  38  40
ENDBRANCH   1  38
TORSDOF 10
ENDMDL
