MODEL 1
REMARK VINA RESULT: -6.945664805      0.000      0.000
REMARK  6 active torsions:
REMARK  status: ('A' for Active; 'I' for Inactive)
REMARK    1  A    between atoms: C3_5  and  O1_6 
REMARK    2  A    between atoms: C4_8  and  C5_9 
REMARK    3  A    between atoms: N2_10  and  N3_12 
REMARK    4  A    between atoms: N3_12  and  C6_14 
REMARK    5  A    between atoms: C6_14  and  N4_16 
REMARK    6  A    between atoms: N4_16  and  C7_18 
ROOT
HETATM    1  C5  UNL     1      -6.149  52.743  14.756  1.00  0.00     0.130 C 
HETATM    2  N2  UNL     1      -4.937  52.441  14.885  1.00  0.00    -0.308 N 
ATOM      3  H2  UNL     1      -4.665  51.802  15.632  1.00  0.00     0.186 HD
ENDROOT
BRANCH   2   4
HETATM    4  N3  UNL     1      -3.957  52.944  14.048  1.00  0.00    -0.277 N 
ATOM      5  H3  UNL     1      -3.587  53.885  14.190  1.00  0.00     0.189 HD
BRANCH   4   6
HETATM    6  C6  UNL     1      -3.475  52.133  12.986  1.00  0.00     0.186 C 
HETATM    7  S1  UNL     1      -3.435  50.518  13.146  1.00  0.00    -0.040 SA
BRANCH   6   8
HETATM    8  N4  UNL     1      -3.031  52.722  11.790  1.00  0.00    -0.361 N 
ATOM      9  H4  UNL     1      -3.400  53.627  11.501  1.00  0.00     0.162 HD
BRANCH   8  10
HETATM   10  C7  UNL     1      -2.052  52.046  10.971  1.00  0.00     0.083 C 
HETATM   11  C8  UNL     1      -0.911  52.974  10.603  1.00  0.00     0.025 C 
HETATM   12  C9  UNL     1       0.135  52.158   9.899  1.00  0.00     0.002 C 
HETATM   13  C10 UNL     1      -0.507  51.405   8.769  1.00  0.00     0.000 C 
HETATM   14  C11 UNL     1      -1.915  51.900   8.529  1.00  0.00     0.002 C 
HETATM   15  C12 UNL     1      -2.740  51.498   9.758  1.00  0.00     0.025 C 
ENDBRANCH   8  10
ENDBRANCH   6   8
ENDBRANCH   4   6
ENDBRANCH   2   4
BRANCH   1  16
HETATM   16  C4  UNL     1      -6.598  53.659  13.697  1.00  0.00     0.074 A 
HETATM   17  C3  UNL     1      -6.805  55.018  13.793  1.00  0.00     0.159 A 
HETATM   18  N1  UNL     1      -7.205  55.637  12.728  1.00  0.00    -0.334 N 
HETATM   19  C2  UNL     1      -7.400  54.965  11.605  1.00  0.00     0.049 A 
ATOM     20  H1  UNL     1      -7.369  56.644  12.754  1.00  0.00     0.168 HD
HETATM   21  C1  UNL     1      -7.861  55.496  10.266  1.00  0.00     0.076 C 
HETATM   22  S2  UNL     1      -7.000  53.369  12.063  1.00  0.00    -0.071 SA
BRANCH  17  23
HETATM   23  O1  UNL     1      -6.573  55.671  15.037  1.00  0.00    -0.345 OA
ATOM     24  H1  UNL     1      -6.386  55.206  15.844  1.00  0.00     0.219 HD
ENDBRANCH  17  23
ENDBRANCH   1  16
TORSDOF 6
ENDMDL
MODEL 2
REMARK VINA RESULT: -6.939831910      1.938      2.554
REMARK  6 active torsions:
REMARK  status: ('A' for Active; 'I' for Inactive)
REMARK    1  A    between atoms: C3_5  and  O1_6 
REMARK    2  A    between atoms: C4_8  and  C5_9 
REMARK    3  A    between atoms: N2_10  and  N3_12 
REMARK    4  A    between atoms: N3_12  and  C6_14 
REMARK    5  A    between atoms: C6_14  and  N4_16 
REMARK    6  A    between atoms: N4_16  and  C7_18 
ROOT
HETATM    1  C5  UNL     1      -6.073  52.646  14.736  1.00  0.00     0.130 C 
HETATM    2  N2  UNL     1      -4.819  52.722  14.765  1.00  0.00    -0.308 N 
ATOM      3  H2  UNL     1      -4.305  52.129  15.416  1.00  0.00     0.186 HD
ENDROOT
BRANCH   2   4
HETATM    4  N3  UNL     1      -4.113  53.584  13.945  1.00  0.00    -0.277 N 
ATOM      5  H3  UNL     1      -4.119  54.589  14.122  1.00  0.00     0.189 HD
BRANCH   4   6
HETATM    6  C6  UNL     1      -3.379  53.048  12.853  1.00  0.00     0.186 C 
HETATM    7  S1  UNL     1      -1.758  53.118  12.846  1.00  0.00    -0.040 SA
BRANCH   6   8
HETATM    8  N4  UNL     1      -4.052  52.452  11.773  1.00  0.00    -0.361 N 
ATOM      9  H4  UNL     1      -4.620  53.024  11.148  1.00  0.00     0.162 HD
BRANCH   8  10
HETATM   10  C7  UNL     1      -3.940  51.029  11.548  1.00  0.00     0.083 C 
HETATM   11  C8  UNL     1      -3.708  50.724  10.081  1.00  0.00     0.025 C 
HETATM   12  C9  UNL     1      -3.439  49.251   9.957  1.00  0.00     0.002 C 
HETATM   13  C10 UNL     1      -4.544  48.491  10.633  1.00  0.00     0.000 C 
HETATM   14  C11 UNL     1      -5.691  49.412  10.981  1.00  0.00     0.002 C 
HETATM   15  C12 UNL     1      -5.178  50.365  12.068  1.00  0.00     0.025 C 
ENDBRANCH   8  10
ENDBRANCH   6   8
ENDBRANCH   4   6
ENDBRANCH   2   4
BRANCH   1  16
HETATM   16  C4  UNL     1      -6.867  53.478  13.819  1.00  0.00     0.074 A 
HETATM   17  C3  UNL     1      -7.070  54.839  13.882  1.00  0.00     0.159 A 
HETATM   18  N1  UNL     1      -7.810  55.375  12.964  1.00  0.00    -0.334 N 
HETATM   19  C2  UNL     1      -8.339  54.619  12.015  1.00  0.00     0.049 A 
ATOM     20  H1  UNL     1      -7.986  56.380  12.972  1.00  0.00     0.168 HD
HETATM   21  C1  UNL     1      -9.223  55.046  10.864  1.00  0.00     0.076 C 
HETATM   22  S2  UNL     1      -7.766  53.064  12.429  1.00  0.00    -0.071 SA
BRANCH  17  23
HETATM   23  O1  UNL     1      -6.467  55.585  14.934  1.00  0.00    -0.345 OA
ATOM     24  H1  UNL     1      -6.922  55.823  15.734  1.00  0.00     0.219 HD
ENDBRANCH  17  23
ENDBRANCH   1  16
TORSDOF 6
ENDMDL
MODEL 3
REMARK VINA RESULT: -6.870037987      2.267      2.937
REMARK  6 active torsions:
REMARK  status: ('A' for Active; 'I' for Inactive)
REMARK    1  A    between atoms: C3_5  and  O1_6 
REMARK    2  A    between atoms: C4_8  and  C5_9 
REMARK    3  A    between atoms: N2_10  and  N3_12 
REMARK    4  A    between atoms: N3_12  and  C6_14 
REMARK    5  A    between atoms: C6_14  and  N4_16 
REMARK    6  A    between atoms: N4_16  and  C7_18 
ROOT
HETATM    1  C5  UNL     1      -6.168  52.930  14.651  1.00  0.00     0.130 C 
HETATM    2  N2  UNL     1      -4.939  52.732  14.819  1.00  0.00    -0.308 N 
ATOM      3  H2  UNL     1      -4.638  52.122  15.579  1.00  0.00     0.186 HD
ENDROOT
BRANCH   2   4
HETATM    4  N3  UNL     1      -3.980  53.313  14.009  1.00  0.00    -0.277 N 
ATOM      5  H3  UNL     1      -3.843  54.324  14.011  1.00  0.00     0.189 HD
BRANCH   4   6
HETATM    6  C6  UNL     1      -3.188  52.480  13.174  1.00  0.00     0.186 C 
HETATM    7  S1  UNL     1      -1.916  53.096  12.376  1.00  0.00    -0.040 SA
BRANCH   6   8
HETATM    8  N4  UNL     1      -3.500  51.117  13.034  1.00  0.00    -0.361 N 
ATOM      9  H4  UNL     1      -3.277  50.464  13.785  1.00  0.00     0.162 HD
BRANCH   8  10
HETATM   10  C7  UNL     1      -4.135  50.640  11.827  1.00  0.00     0.083 C 
HETATM   11  C8  UNL     1      -5.597  50.319  12.069  1.00  0.00     0.025 C 
HETATM   12  C9  UNL     1      -6.220  49.993  10.742  1.00  0.00     0.002 C 
HETATM   13  C10 UNL     1      -5.403  48.930  10.063  1.00  0.00     0.000 C 
HETATM   14  C11 UNL     1      -4.392  48.341  11.020  1.00  0.00     0.002 C 
HETATM   15  C12 UNL     1      -3.377  49.450  11.326  1.00  0.00     0.025 C 
ENDBRANCH   8  10
ENDBRANCH   6   8
ENDBRANCH   4   6
ENDBRANCH   2   4
BRANCH   1  16
HETATM   16  C4  UNL     1      -6.659  53.801  13.572  1.00  0.00     0.074 A 
HETATM   17  C3  UNL     1      -6.545  55.171  13.480  1.00  0.00     0.159 A 
HETATM   18  N1  UNL     1      -7.054  55.743  12.435  1.00  0.00    -0.334 N 
HETATM   19  C2  UNL     1      -7.655  55.015  11.509  1.00  0.00     0.049 A 
ATOM     20  H1  UNL     1      -6.990  56.755  12.326  1.00  0.00     0.168 HD
HETATM   21  C1  UNL     1      -8.307  55.486  10.228  1.00  0.00     0.076 C 
HETATM   22  S2  UNL     1      -7.500  53.433  12.134  1.00  0.00    -0.071 SA
BRANCH  17  23
HETATM   23  O1  UNL     1      -5.883  55.886  14.519  1.00  0.00    -0.345 OA
ATOM     24  H1  UNL     1      -5.238  55.492  15.095  1.00  0.00     0.219 HD
ENDBRANCH  17  23
ENDBRANCH   1  16
TORSDOF 6
ENDMDL
MODEL 4
REMARK VINA RESULT: -6.852475699      2.398      3.080
REMARK  6 active torsions:
REMARK  status: ('A' for Active; 'I' for Inactive)
REMARK    1  A    between atoms: C3_5  and  O1_6 
REMARK    2  A    between atoms: C4_8  and  C5_9 
REMARK    3  A    between atoms: N2_10  and  N3_12 
REMARK    4  A    between atoms: N3_12  and  C6_14 
REMARK    5  A    between atoms: C6_14  and  N4_16 
REMARK    6  A    between atoms: N4_16  and  C7_18 
ROOT
HETATM    1  C5  UNL     1      -2.687  53.579  13.106  1.00  0.00     0.130 C 
HETATM    2  N2  UNL     1      -1.627  52.937  13.317  1.00  0.00    -0.308 N 
ATOM      3  H2  UNL     1      -0.753  53.451  13.420  1.00  0.00     0.186 HD
ENDROOT
BRANCH   2   4
HETATM    4  N3  UNL     1      -1.607  51.557  13.416  1.00  0.00    -0.277 N 
ATOM      5  H3  UNL     1      -1.780  51.099  14.311  1.00  0.00     0.189 HD
BRANCH   4   6
HETATM    6  C6  UNL     1      -1.339  50.788  12.252  1.00  0.00     0.186 C 
HETATM    7  S1  UNL     1      -2.064  49.352  12.038  1.00  0.00    -0.040 SA
BRANCH   6   8
HETATM    8  N4  UNL     1      -0.447  51.267  11.277  1.00  0.00    -0.361 N 
ATOM      9  H4  UNL     1       0.557  51.138  11.398  1.00  0.00     0.162 HD
BRANCH   8  10
HETATM   10  C7  UNL     1      -0.953  51.941  10.103  1.00  0.00     0.083 C 
HETATM   11  C8  UNL     1      -0.698  51.125   8.851  1.00  0.00     0.025 C 
HETATM   12  C9  UNL     1      -1.394  51.809   7.709  1.00  0.00     0.002 C 
HETATM   13  C10 UNL     1      -0.972  53.251   7.668  1.00  0.00     0.000 C 
HETATM   14  C11 UNL     1       0.198  53.491   8.595  1.00  0.00     0.002 C 
HETATM   15  C12 UNL     1      -0.324  53.298  10.024  1.00  0.00     0.025 C 
ENDBRANCH   8  10
ENDBRANCH   6   8
ENDBRANCH   4   6
ENDBRANCH   2   4
BRANCH   1  16
HETATM   16  C4  UNL     1      -3.977  52.890  12.949  1.00  0.00     0.074 A 
HETATM   17  C3  UNL     1      -4.928  52.655  13.918  1.00  0.00     0.159 A 
HETATM   18  N1  UNL     1      -6.001  52.024  13.560  1.00  0.00    -0.334 N 
HETATM   19  C2  UNL     1      -6.150  51.631  12.305  1.00  0.00     0.049 A 
ATOM     20  H1  UNL     1      -6.731  51.829  14.245  1.00  0.00     0.168 HD
HETATM   21  C1  UNL     1      -7.316  50.888  11.691  1.00  0.00     0.076 C 
HETATM   22  S2  UNL     1      -4.704  52.177  11.579  1.00  0.00    -0.071 SA
BRANCH  17  23
HETATM   23  O1  UNL     1      -4.694  53.108  15.247  1.00  0.00    -0.345 OA
ATOM     24  H1  UNL     1      -4.195  53.891  15.452  1.00  0.00     0.219 HD
ENDBRANCH  17  23
ENDBRANCH   1  16
TORSDOF 6
ENDMDL
MODEL 5
REMARK VINA RESULT: -6.783592754      1.892      2.277
REMARK  6 active torsions:
REMARK  status: ('A' for Active; 'I' for Inactive)
REMARK    1  A    between atoms: C3_5  and  O1_6 
REMARK    2  A    between atoms: C4_8  and  C5_9 
REMARK    3  A    between atoms: N2_10  and  N3_12 
REMARK    4  A    between atoms: N3_12  and  C6_14 
REMARK    5  A    between atoms: C6_14  and  N4_16 
REMARK    6  A    between atoms: N4_16  and  C7_18 
ROOT
HETATM    1  C5  UNL     1      -6.303  52.581  14.531  1.00  0.00     0.130 C 
HETATM    2  N2  UNL     1      -5.087  52.439  14.814  1.00  0.00    -0.308 N 
ATOM      3  H2  UNL     1      -4.822  51.742  15.510  1.00  0.00     0.186 HD
ENDROOT
BRANCH   2   4
HETATM    4  N3  UNL     1      -4.095  53.194  14.214  1.00  0.00    -0.277 N 
ATOM      5  H3  UNL     1      -3.981  54.180  14.450  1.00  0.00     0.189 HD
BRANCH   4   6
HETATM    6  C6  UNL     1      -3.239  52.576  13.264  1.00  0.00     0.186 C 
HETATM    7  S1  UNL     1      -1.846  53.290  12.835  1.00  0.00    -0.040 SA
BRANCH   6   8
HETATM    8  N4  UNL     1      -3.591  51.342  12.691  1.00  0.00    -0.361 N 
ATOM      9  H4  UNL     1      -4.573  51.080  12.610  1.00  0.00     0.162 HD
BRANCH   8  10
HETATM   10  C7  UNL     1      -2.562  50.445  12.217  1.00  0.00     0.083 C 
HETATM   11  C8  UNL     1      -2.652  50.255  10.716  1.00  0.00     0.025 C 
HETATM   12  C9  UNL     1      -1.459  49.450  10.284  1.00  0.00     0.002 C 
HETATM   13  C10 UNL     1      -1.380  48.201  11.116  1.00  0.00     0.000 C 
HETATM   14  C11 UNL     1      -2.647  48.015  11.920  1.00  0.00     0.002 C 
HETATM   15  C12 UNL     1      -2.683  49.147  12.954  1.00  0.00     0.025 C 
ENDBRANCH   8  10
ENDBRANCH   6   8
ENDBRANCH   4   6
ENDBRANCH   2   4
BRANCH   1  16
HETATM   16  C4  UNL     1      -6.743  53.571  13.535  1.00  0.00     0.074 A 
HETATM   17  C3  UNL     1      -6.812  54.939  13.684  1.00  0.00     0.159 A 
HETATM   18  N1  UNL     1      -7.232  55.628  12.670  1.00  0.00    -0.334 N 
HETATM   19  C2  UNL     1      -7.574  55.015  11.549  1.00  0.00     0.049 A 
ATOM     20  H1  UNL     1      -7.298  56.644  12.737  1.00  0.00     0.168 HD
HETATM   21  C1  UNL     1      -8.083  55.632  10.265  1.00  0.00     0.076 C 
HETATM   22  S2  UNL     1      -7.292  53.375  11.931  1.00  0.00    -0.071 SA
BRANCH  17  23
HETATM   23  O1  UNL     1      -6.426  55.525  14.923  1.00  0.00    -0.345 OA
ATOM     24  H1  UNL     1      -6.860  56.281  15.301  1.00  0.00     0.219 HD
ENDBRANCH  17  23
ENDBRANCH   1  16
TORSDOF 6
ENDMDL
