MODEL 1
REMARK VINA RESULT: -5.486570880      0.000      0.000
REMARK  2 active torsions:
REMARK  status: ('A' for Active; 'I' for Inactive)
REMARK    1  A    between atoms: C2_2  and  N1_3 
REMARK    2  A    between atoms: C4_5  and  N2_6 
ROOT
HETATM    1  N1  UNL     1      15.449  11.014   0.627  1.00  0.00    -0.247 NA
HETATM    2  C3  UNL     1      16.718  11.450   0.155  1.00  0.00     0.142 C 
HETATM    3  C4  UNL     1      17.734  11.122   1.228  1.00  0.00     0.216 C 
HETATM    4  C5  UNL     1      16.885  10.529   2.327  1.00  0.00     0.107 C 
HETATM    5  C6  UNL     1      16.724  11.426   3.509  1.00  0.00     0.025 C 
HETATM    6  C7  UNL     1      15.253  11.830   3.418  1.00  0.00     0.027 C 
HETATM    7  C8  UNL     1      14.668  10.570   2.818  1.00  0.00     0.021 C 
HETATM    8  C9  UNL     1      14.778   9.474   3.849  1.00  0.00     0.033 C 
HETATM    9  C10 UNL     1      13.259  10.808   2.412  1.00  0.00     0.033 C 
HETATM   10  N3  UNL     1      15.582  10.270   1.765  1.00  0.00    -0.234 NA
ENDROOT
BRANCH   3  11
HETATM   11  N2  UNL     1      18.383  12.338   1.628  1.00  0.00    -0.072 N 
ATOM     12  H23 UNL     1      19.398  12.246   1.666  1.00  0.00     0.274 HD
ATOM     13  H22 UNL     1      18.335  13.061   0.910  1.00  0.00     0.274 HD
ATOM     14  H21 UNL     1      17.983  12.641   2.516  1.00  0.00     0.274 HD
ENDBRANCH   3  11
BRANCH   1  15
HETATM   15  C2  UNL     1      14.780  10.292  -0.428  1.00  0.00     0.103 C 
HETATM   16  C1  UNL     1      13.983  11.150  -1.363  1.00  0.00     0.022 C 
ENDBRANCH   1  15
TORSDOF 2
ENDMDL
MODEL 2
REMARK VINA RESULT: -5.375877844      1.601      3.588
REMARK  2 active torsions:
REMARK  status: ('A' for Active; 'I' for Inactive)
REMARK    1  A    between atoms: C2_2  and  N1_3 
REMARK    2  A    between atoms: C4_5  and  N2_6 
ROOT
HETATM    1  N1  UNL     1      16.089  10.578   0.419  1.00  0.00    -0.247 NA
HETATM    2  C3  UNL     1      16.307  10.774  -0.973  1.00  0.00     0.142 C 
HETATM    3  C4  UNL     1      14.951  10.941  -1.622  1.00  0.00     0.216 C 
HETATM    4  C5  UNL     1      13.998  10.757  -0.464  1.00  0.00     0.107 C 
HETATM    5  C6  UNL     1      13.258   9.462  -0.497  1.00  0.00     0.025 C 
HETATM    6  C7  UNL     1      13.875   8.701   0.676  1.00  0.00     0.027 C 
HETATM    7  C8  UNL     1      14.177   9.852   1.611  1.00  0.00     0.021 C 
HETATM    8  C9  UNL     1      12.860  10.424   2.078  1.00  0.00     0.033 C 
HETATM    9  C10 UNL     1      15.008   9.379   2.747  1.00  0.00     0.033 C 
HETATM   10  N3  UNL     1      14.783  10.809   0.745  1.00  0.00    -0.234 NA
ENDROOT
BRANCH   3  11
HETATM   11  N2  UNL     1      14.799   9.927  -2.626  1.00  0.00    -0.072 N 
ATOM     12  H23 UNL     1      15.657   9.765  -3.153  1.00  0.00     0.274 HD
ATOM     13  H22 UNL     1      14.701   8.993  -2.227  1.00  0.00     0.274 HD
ATOM     14  H21 UNL     1      14.014  10.180  -3.225  1.00  0.00     0.274 HD
ENDBRANCH   3  11
BRANCH   1  15
HETATM   15  C2  UNL     1      16.999  11.419   1.159  1.00  0.00     0.103 C 
HETATM   16  C1  UNL     1      17.834  12.331   0.314  1.00  0.00     0.022 C 
ENDBRANCH   1  15
TORSDOF 2
ENDMDL
MODEL 3
REMARK VINA RESULT: -5.320308149      1.505      3.900
REMARK  2 active torsions:
REMARK  status: ('A' for Active; 'I' for Inactive)
REMARK    1  A    between atoms: C2_2  and  N1_3 
REMARK    2  A    between atoms: C4_5  and  N2_6 
ROOT
HETATM    1  N1  UNL     1      15.814  11.032   1.008  1.00  0.00    -0.247 NA
HETATM    2  C3  UNL     1      15.441  11.266   2.360  1.00  0.00     0.142 C 
HETATM    3  C4  UNL     1      14.430  10.205   2.738  1.00  0.00     0.216 C 
HETATM    4  C5  UNL     1      14.260   9.429   1.453  1.00  0.00     0.107 C 
HETATM    5  C6  UNL     1      12.952   9.671   0.776  1.00  0.00     0.025 C 
HETATM    6  C7  UNL     1      13.365  10.462  -0.465  1.00  0.00     0.027 C 
HETATM    7  C8  UNL     1      14.724   9.850  -0.729  1.00  0.00     0.021 C 
HETATM    8  C9  UNL     1      14.510   8.417  -1.151  1.00  0.00     0.033 C 
HETATM    9  C10 UNL     1      15.438  10.632  -1.771  1.00  0.00     0.033 C 
HETATM   10  N3  UNL     1      15.321   9.838   0.565  1.00  0.00    -0.234 NA
ENDROOT
BRANCH   3  11
HETATM   11  N2  UNL     1      13.220  10.856   3.152  1.00  0.00    -0.072 N 
ATOM     12  H23 UNL     1      13.054  10.772   4.155  1.00  0.00     0.274 HD
ATOM     13  H22 UNL     1      13.287  11.872   3.106  1.00  0.00     0.274 HD
ATOM     14  H21 UNL     1      12.448  10.489   2.595  1.00  0.00     0.274 HD
ENDBRANCH   3  11
BRANCH   1  15
HETATM   15  C2  UNL     1      17.251  11.109   0.899  1.00  0.00     0.103 C 
HETATM   16  C1  UNL     1      17.778  12.462   0.528  1.00  0.00     0.022 C 
ENDBRANCH   1  15
TORSDOF 2
ENDMDL
MODEL 4
REMARK VINA RESULT: -5.296770857      1.378      3.304
REMARK  2 active torsions:
REMARK  status: ('A' for Active; 'I' for Inactive)
REMARK    1  A    between atoms: C2_2  and  N1_3 
REMARK    2  A    between atoms: C4_5  and  N2_6 
ROOT
HETATM    1  N1  UNL     1      14.755  10.295   0.944  1.00  0.00    -0.247 NA
HETATM    2  C3  UNL     1      13.375   9.951   0.925  1.00  0.00     0.142 C 
HETATM    3  C4  UNL     1      12.746  10.543   2.167  1.00  0.00     0.216 C 
HETATM    4  C5  UNL     1      13.922  11.179   2.870  1.00  0.00     0.107 C 
HETATM    5  C6  UNL     1      14.358  10.444   4.094  1.00  0.00     0.025 C 
HETATM    6  C7  UNL     1      15.704   9.860   3.665  1.00  0.00     0.027 C 
HETATM    7  C8  UNL     1      16.176  10.946   2.723  1.00  0.00     0.021 C 
HETATM    8  C9  UNL     1      16.454  12.180   3.544  1.00  0.00     0.033 C 
HETATM    9  C10 UNL     1      17.382  10.488   1.986  1.00  0.00     0.033 C 
HETATM   10  N3  UNL     1      15.017  11.202   1.932  1.00  0.00    -0.234 NA
ENDROOT
BRANCH   3  11
HETATM   11  N2  UNL     1      12.157   9.480   2.930  1.00  0.00    -0.072 N 
ATOM     12  H23 UNL     1      11.420   9.808   3.555  1.00  0.00     0.274 HD
ATOM     13  H22 UNL     1      11.589   8.856   2.358  1.00  0.00     0.274 HD
ATOM     14  H21 UNL     1      12.900   8.988   3.426  1.00  0.00     0.274 HD
ENDBRANCH   3  11
BRANCH   1  15
HETATM   15  C2  UNL     1      15.135  10.779  -0.362  1.00  0.00     0.103 C 
HETATM   16  C1  UNL     1      13.987  11.054  -1.284  1.00  0.00     0.022 C 
ENDBRANCH   1  15
TORSDOF 2
ENDMDL
MODEL 5
REMARK VINA RESULT: -5.212292028      1.480      3.279
REMARK  2 active torsions:
REMARK  status: ('A' for Active; 'I' for Inactive)
REMARK    1  A    between atoms: C2_2  and  N1_3 
REMARK    2  A    between atoms: C4_5  and  N2_6 
ROOT
HETATM    1  N1  UNL     1      15.624  10.381  -0.309  1.00  0.00    -0.247 NA
HETATM    2  C3  UNL     1      14.640   9.493   0.206  1.00  0.00     0.142 C 
HETATM    3  C4  UNL     1      14.529   9.756   1.692  1.00  0.00     0.216 C 
HETATM    4  C5  UNL     1      15.580  10.816   1.926  1.00  0.00     0.107 C 
HETATM    5  C6  UNL     1      16.785  10.315   2.649  1.00  0.00     0.025 C 
HETATM    6  C7  UNL     1      17.859  10.350   1.562  1.00  0.00     0.027 C 
HETATM    7  C8  UNL     1      17.387  11.545   0.761  1.00  0.00     0.021 C 
HETATM    8  C9  UNL     1      17.565  12.774   1.618  1.00  0.00     0.033 C 
HETATM    9  C10 UNL     1      18.155  11.640  -0.507  1.00  0.00     0.033 C 
HETATM   10  N3  UNL     1      15.988  11.303   0.631  1.00  0.00    -0.234 NA
ENDROOT
BRANCH   3  11
HETATM   11  N2  UNL     1      14.813   8.536   2.392  1.00  0.00    -0.072 N 
ATOM     12  H23 UNL     1      15.547   7.988   1.944  1.00  0.00     0.274 HD
ATOM     13  H22 UNL     1      15.282   8.696   3.283  1.00  0.00     0.274 HD
ATOM     14  H21 UNL     1      13.943   8.013   2.497  1.00  0.00     0.274 HD
ENDBRANCH   3  11
BRANCH   1  15
HETATM   15  C2  UNL     1      15.119  10.994  -1.514  1.00  0.00     0.103 C 
HETATM   16  C1  UNL     1      13.643  11.252  -1.512  1.00  0.00     0.022 C 
ENDBRANCH   1  15
TORSDOF 2
ENDMDL
