MODEL 1
REMARK VINA RESULT: -9.075093037      0.000      0.000
REMARK  3 active torsions:
REMARK  status: ('A' for Active; 'I' for Inactive)
REMARK    1  A    between atoms: C3_9  and  O1_10 
REMARK    2  A    between atoms: O1_10  and  C4_11 
REMARK       I    between atoms: C4_11  and  N3_13 
REMARK    3  A    between atoms: N3_13  and  C5_15 
ROOT
HETATM    1  N1  UNL     1      26.488  -1.969 -16.648  1.00  0.00    -0.380 N 
ATOM      2  H11 UNL     1      25.981  -2.740 -17.084  1.00  0.00     0.158 HD
ATOM      3  H12 UNL     1      27.467  -1.852 -16.909  1.00  0.00     0.158 HD
HETATM    4  C1  UNL     1      25.898  -1.177 -15.795  1.00  0.00     0.141 C 
HETATM    5  N2  UNL     1      26.604  -0.103 -15.186  1.00  0.00    -0.341 N 
ATOM      6  H2  UNL     1      27.545  -0.273 -14.831  1.00  0.00     0.167 HD
HETATM    7  C2  UNL     1      26.102   1.078 -15.066  1.00  0.00     0.139 C 
HETATM    8  S1  UNL     1      24.472   1.522 -15.636  1.00  0.00    -0.081 SA
HETATM    9  C3  UNL     1      23.346   0.184 -15.159  1.00  0.00     0.270 C 
HETATM   10  S2  UNL     1      24.183  -1.382 -15.336  1.00  0.00    -0.051 SA
ENDROOT
BRANCH   9  11
HETATM   11  O1  UNL     1      22.142   0.242 -15.938  1.00  0.00    -0.276 OA
BRANCH  11  12
HETATM   12  C4  UNL     1      20.904   0.039 -15.348  1.00  0.00     0.362 C 
HETATM   13  O2  UNL     1      20.851   0.050 -14.093  1.00  0.00    -0.238 OA
HETATM   14  N3  UNL     1      19.720  -0.176 -16.094  1.00  0.00    -0.332 N 
ATOM     15  H3  UNL     1      19.785  -0.180 -17.113  1.00  0.00     0.165 HD
BRANCH  14  16
HETATM   16  C5  UNL     1      18.437  -0.387 -15.499  1.00  0.00     0.086 C 
HETATM   17  C6  UNL     1      17.317   0.337 -16.215  1.00  0.00     0.025 C 
HETATM   18  C7  UNL     1      16.114  -0.574 -16.133  1.00  0.00     0.002 C 
HETATM   19  C8  UNL     1      16.523  -1.764 -15.313  1.00  0.00     0.002 C 
HETATM   20  C9  UNL     1      18.007  -1.824 -15.509  1.00  0.00     0.025 C 
ENDBRANCH  14  16
ENDBRANCH  11  12
ENDBRANCH   9  11
TORSDOF 3
ENDMDL
MODEL 2
REMARK VINA RESULT: -9.068555477      2.912      7.570
REMARK  3 active torsions:
REMARK  status: ('A' for Active; 'I' for Inactive)
REMARK    1  A    between atoms: C3_9  and  O1_10 
REMARK    2  A    between atoms: O1_10  and  C4_11 
REMARK       I    between atoms: C4_11  and  N3_13 
REMARK    3  A    between atoms: N3_13  and  C5_15 
ROOT
HETATM    1  N1  UNL     1      15.904   1.849 -16.719  1.00  0.00    -0.380 N 
ATOM      2  H11 UNL     1      16.389   2.622 -17.176  1.00  0.00     0.158 HD
ATOM      3  H12 UNL     1      14.930   1.696 -16.980  1.00  0.00     0.158 HD
HETATM    4  C1  UNL     1      16.514   1.099 -15.842  1.00  0.00     0.141 C 
HETATM    5  N2  UNL     1      15.838   0.022 -15.205  1.00  0.00    -0.341 N 
ATOM      6  H2  UNL     1      14.891   0.175 -14.858  1.00  0.00     0.167 HD
HETATM    7  C2  UNL     1      16.374  -1.139 -15.049  1.00  0.00     0.139 C 
HETATM    8  S1  UNL     1      18.019  -1.551 -15.602  1.00  0.00    -0.081 SA
HETATM    9  C3  UNL     1      19.102  -0.167 -15.161  1.00  0.00     0.270 C 
HETATM   10  S2  UNL     1      18.221   1.368 -15.384  1.00  0.00    -0.051 SA
ENDROOT
BRANCH   9  11
HETATM   11  O1  UNL     1      20.311  -0.211 -15.934  1.00  0.00    -0.276 OA
BRANCH  11  12
HETATM   12  C4  UNL     1      21.545  -0.018 -15.334  1.00  0.00     0.362 C 
HETATM   13  O2  UNL     1      21.586  -0.016 -14.078  1.00  0.00    -0.238 OA
HETATM   14  N3  UNL     1      22.739   0.175 -16.071  1.00  0.00    -0.332 N 
ATOM     15  H3  UNL     1      22.684   0.170 -17.090  1.00  0.00     0.165 HD
BRANCH  14  16
HETATM   16  C5  UNL     1      24.019   0.377 -15.465  1.00  0.00     0.086 C 
HETATM   17  C6  UNL     1      25.135  -0.375 -16.159  1.00  0.00     0.025 C 
HETATM   18  C7  UNL     1      26.351   0.519 -16.078  1.00  0.00     0.002 C 
HETATM   19  C8  UNL     1      25.951   1.728 -15.281  1.00  0.00     0.002 C 
HETATM   20  C9  UNL     1      24.470   1.807 -15.493  1.00  0.00     0.025 C 
ENDBRANCH  14  16
ENDBRANCH  11  12
ENDBRANCH   9  11
TORSDOF 3
ENDMDL
MODEL 3
REMARK VINA RESULT: -8.753812638      1.093      2.291
REMARK  3 active torsions:
REMARK  status: ('A' for Active; 'I' for Inactive)
REMARK    1  A    between atoms: C3_9  and  O1_10 
REMARK    2  A    between atoms: O1_10  and  C4_11 
REMARK       I    between atoms: C4_11  and  N3_13 
REMARK    3  A    between atoms: N3_13  and  C5_15 
ROOT
HETATM    1  N1  UNL     1      26.433   2.523 -14.798  1.00  0.00    -0.380 N 
ATOM      2  H11 UNL     1      25.889   3.278 -14.380  1.00  0.00     0.158 HD
ATOM      3  H12 UNL     1      27.425   2.484 -14.567  1.00  0.00     0.158 HD
HETATM    4  C1  UNL     1      25.871   1.652 -15.592  1.00  0.00     0.141 C 
HETATM    5  N2  UNL     1      26.629   0.599 -16.175  1.00  0.00    -0.341 N 
ATOM      6  H2  UNL     1      27.544   0.814 -16.570  1.00  0.00     0.167 HD
HETATM    7  C2  UNL     1      26.205  -0.617 -16.223  1.00  0.00     0.139 C 
HETATM    8  S1  UNL     1      24.629  -1.141 -15.575  1.00  0.00    -0.081 SA
HETATM    9  C3  UNL     1      23.399   0.094 -16.073  1.00  0.00     0.270 C 
HETATM   10  S2  UNL     1      24.132   1.720 -15.999  1.00  0.00    -0.051 SA
ENDROOT
BRANCH   9  11
HETATM   11  O1  UNL     1      22.228  -0.005 -15.250  1.00  0.00    -0.276 OA
BRANCH  11  12
HETATM   12  C4  UNL     1      20.968  -0.118 -15.818  1.00  0.00     0.362 C 
HETATM   13  O2  UNL     1      20.894  -0.107 -17.072  1.00  0.00    -0.238 OA
HETATM   14  N3  UNL     1      19.784  -0.241 -15.050  1.00  0.00    -0.332 N 
ATOM     15  H3  UNL     1      19.867  -0.249 -14.033  1.00  0.00     0.165 HD
BRANCH  14  16
HETATM   16  C5  UNL     1      18.479  -0.357 -15.623  1.00  0.00     0.086 C 
HETATM   17  C6  UNL     1      17.725  -1.584 -15.155  1.00  0.00     0.025 C 
HETATM   18  C7  UNL     1      16.276  -1.167 -15.052  1.00  0.00     0.002 C 
HETATM   19  C8  UNL     1      16.196   0.255 -15.532  1.00  0.00     0.002 C 
HETATM   20  C9  UNL     1      17.573   0.785 -15.270  1.00  0.00     0.025 C 
ENDBRANCH  14  16
ENDBRANCH  11  12
ENDBRANCH   9  11
TORSDOF 3
ENDMDL
MODEL 4
REMARK VINA RESULT: -8.657511138      2.889      7.399
REMARK  3 active torsions:
REMARK  status: ('A' for Active; 'I' for Inactive)
REMARK    1  A    between atoms: C3_9  and  O1_10 
REMARK    2  A    between atoms: O1_10  and  C4_11 
REMARK       I    between atoms: C4_11  and  N3_13 
REMARK    3  A    between atoms: N3_13  and  C5_15 
ROOT
HETATM    1  N1  UNL     1      15.896  -2.011 -14.442  1.00  0.00    -0.380 N 
ATOM      2  H11 UNL     1      16.359  -2.793 -13.979  1.00  0.00     0.158 HD
ATOM      3  H12 UNL     1      14.926  -1.830 -14.185  1.00  0.00     0.158 HD
HETATM    4  C1  UNL     1      16.528  -1.284 -15.323  1.00  0.00     0.141 C 
HETATM    5  N2  UNL     1      15.881  -0.194 -15.969  1.00  0.00    -0.341 N 
ATOM      6  H2  UNL     1      14.932  -0.324 -16.317  1.00  0.00     0.167 HD
HETATM    7  C2  UNL     1      16.449   0.951 -16.132  1.00  0.00     0.139 C 
HETATM    8  S1  UNL     1      18.103   1.323 -15.578  1.00  0.00    -0.081 SA
HETATM    9  C3  UNL     1      19.150  -0.092 -16.007  1.00  0.00     0.270 C 
HETATM   10  S2  UNL     1      18.227  -1.602 -15.775  1.00  0.00    -0.051 SA
ENDROOT
BRANCH   9  11
HETATM   11  O1  UNL     1      20.357  -0.075 -15.232  1.00  0.00    -0.276 OA
BRANCH  11  12
HETATM   12  C4  UNL     1      21.598  -0.066 -15.849  1.00  0.00     0.362 C 
HETATM   13  O2  UNL     1      21.635   0.216 -17.073  1.00  0.00    -0.238 OA
HETATM   14  N3  UNL     1      22.803  -0.357 -15.164  1.00  0.00    -0.332 N 
ATOM     15  H3  UNL     1      22.751  -0.582 -14.170  1.00  0.00     0.165 HD
BRANCH  14  16
HETATM   16  C5  UNL     1      24.090  -0.351 -15.789  1.00  0.00     0.086 C 
HETATM   17  C6  UNL     1      25.036   0.675 -15.203  1.00  0.00     0.025 C 
HETATM   18  C7  UNL     1      26.409   0.043 -15.239  1.00  0.00     0.002 C 
HETATM   19  C8  UNL     1      26.256  -1.293 -15.910  1.00  0.00     0.002 C 
HETATM   20  C9  UNL     1      24.825  -1.651 -15.644  1.00  0.00     0.025 C 
ENDBRANCH  14  16
ENDBRANCH  11  12
ENDBRANCH   9  11
TORSDOF 3
ENDMDL
MODEL 5
REMARK VINA RESULT: -7.062332164     10.180     10.931
REMARK  3 active torsions:
REMARK  status: ('A' for Active; 'I' for Inactive)
REMARK    1  A    between atoms: C3_9  and  O1_10 
REMARK    2  A    between atoms: O1_10  and  C4_11 
REMARK       I    between atoms: C4_11  and  N3_13 
REMARK    3  A    between atoms: N3_13  and  C5_15 
ROOT
HETATM    1  N1  UNL     1      21.051   3.108  -9.830  1.00  0.00    -0.380 N 
ATOM      2  H11 UNL     1      20.892   3.839  -9.137  1.00  0.00     0.158 HD
ATOM      3  H12 UNL     1      21.375   3.405 -10.751  1.00  0.00     0.158 HD
HETATM    4  C1  UNL     1      20.846   1.852  -9.539  1.00  0.00     0.141 C 
HETATM    5  N2  UNL     1      21.067   0.832 -10.505  1.00  0.00    -0.341 N 
ATOM      6  H2  UNL     1      20.727   0.976 -11.456  1.00  0.00     0.167 HD
HETATM    7  C2  UNL     1      21.680  -0.267 -10.227  1.00  0.00     0.139 C 
HETATM    8  S1  UNL     1      22.325  -0.656  -8.611  1.00  0.00    -0.081 SA
HETATM    9  C3  UNL     1      21.071  -0.177  -7.394  1.00  0.00     0.270 C 
HETATM   10  S2  UNL     1      20.279   1.331  -7.926  1.00  0.00    -0.051 SA
ENDROOT
BRANCH   9  11
HETATM   11  O1  UNL     1      21.660  -0.044  -6.092  1.00  0.00    -0.276 OA
BRANCH  11  12
HETATM   12  C4  UNL     1      20.885  -0.143  -4.948  1.00  0.00     0.362 C 
HETATM   13  O2  UNL     1      20.587  -1.297  -4.547  1.00  0.00    -0.238 OA
HETATM   14  N3  UNL     1      20.425   0.986  -4.227  1.00  0.00    -0.332 N 
ATOM     15  H3  UNL     1      20.680   1.913  -4.569  1.00  0.00     0.165 HD
BRANCH  14  16
HETATM   16  C5  UNL     1      19.624   0.898  -3.045  1.00  0.00     0.086 C 
HETATM   17  C6  UNL     1      20.355   1.327  -1.792  1.00  0.00     0.025 C 
HETATM   18  C7  UNL     1      19.326   2.019  -0.927  1.00  0.00     0.002 C 
HETATM   19  C8  UNL     1      18.011   1.913  -1.645  1.00  0.00     0.002 C 
HETATM   20  C9  UNL     1      18.413   1.781  -3.083  1.00  0.00     0.025 C 
ENDBRANCH  14  16
ENDBRANCH  11  12
ENDBRANCH   9  11
TORSDOF 3
ENDMDL
