MODEL 1
REMARK VINA RESULT: -5.477690941      0.000      0.000
REMARK  3 active torsions:
REMARK  status: ('A' for Active; 'I' for Inactive)
REMARK    1  A    between atoms: N1_2  and  C3_4 
REMARK    2  A    between atoms: C3_4  and  O1_5 
REMARK    3  A    between atoms: C3_4  and  C4_7 
ROOT
HETATM    1  C4  UNL     1      28.007  -4.609   2.687  1.00  0.00     0.173 C 
HETATM    2  C5  UNL     1      27.924  -3.881   1.289  1.00  0.00     0.035 C 
HETATM    3  C6  UNL     1      27.071  -2.685   1.252  1.00  0.00     0.002 C 
HETATM    4  C7  UNL     1      27.650  -1.631   0.298  1.00  0.00     0.000 C 
HETATM    5  C8  UNL     1      27.264  -0.282   0.760  1.00  0.00     0.000 C 
HETATM    6  C9  UNL     1      28.071   0.280   1.874  1.00  0.00     0.000 C 
HETATM    7  C10 UNL     1      29.442  -0.247   2.048  1.00  0.00     0.000 C 
HETATM    8  C11 UNL     1      29.942   0.004   3.475  1.00  0.00     0.000 C 
HETATM    9  C12 UNL     1      30.398  -1.281   4.131  1.00  0.00     0.005 C 
HETATM   10  C13 UNL     1      29.132  -1.871   4.734  1.00  0.00     0.046 C 
HETATM   11  C14 UNL     1      29.338  -3.254   5.247  1.00  0.00     0.079 C 
HETATM   12  N2  UNL     1      29.687  -4.264   4.351  1.00  0.00    -0.319 N 
ATOM     13  H2  UNL     1      30.211  -5.065   4.703  1.00  0.00     0.185 HD
HETATM   14  N3  UNL     1      29.367  -4.232   3.048  1.00  0.00    -0.325 N 
ATOM     15  H3  UNL     1      30.047  -3.956   2.340  1.00  0.00     0.181 HD
ENDROOT
BRANCH   1  16
HETATM   16  C3  UNL     1      27.850  -6.030   2.318  1.00  0.00     0.137 C 
BRANCH  16  17
HETATM   17  N1  UNL     1      27.361  -7.116   3.011  1.00  0.00    -0.372 N 
HETATM   18  C1  UNL     1      26.870  -8.329   2.481  1.00  0.00     0.150 C 
HETATM   19  C2  UNL     1      27.245  -6.938   4.472  1.00  0.00     0.150 C 
ENDBRANCH  16  17
BRANCH  16  20
HETATM   20  O1  UNL     1      28.271  -6.301   1.085  1.00  0.00    -0.348 OA
ATOM     21  H1  UNL     1      28.014  -5.664   0.430  1.00  0.00     0.219 HD
ENDBRANCH  16  20
ENDBRANCH   1  16
TORSDOF 3
ENDMDL
MODEL 2
REMARK VINA RESULT: -5.249436811      3.336      4.749
REMARK  3 active torsions:
REMARK  status: ('A' for Active; 'I' for Inactive)
REMARK    1  A    between atoms: N1_2  and  C3_4 
REMARK    2  A    between atoms: C3_4  and  O1_5 
REMARK    3  A    between atoms: C3_4  and  C4_7 
ROOT
HETATM    1  C4  UNL     1      25.490  -2.145   0.941  1.00  0.00     0.173 C 
HETATM    2  C5  UNL     1      26.828  -1.548   0.355  1.00  0.00     0.035 C 
HETATM    3  C6  UNL     1      27.455  -0.493   1.165  1.00  0.00     0.002 C 
HETATM    4  C7  UNL     1      28.985  -0.572   1.076  1.00  0.00     0.000 C 
HETATM    5  C8  UNL     1      29.578  -0.059   2.328  1.00  0.00     0.000 C 
HETATM    6  C9  UNL     1      29.593  -1.003   3.476  1.00  0.00     0.000 C 
HETATM    7  C10 UNL     1      29.547  -2.448   3.164  1.00  0.00     0.000 C 
HETATM    8  C11 UNL     1      29.047  -3.249   4.372  1.00  0.00     0.000 C 
HETATM    9  C12 UNL     1      27.860  -4.111   4.005  1.00  0.00     0.005 C 
HETATM   10  C13 UNL     1      26.656  -3.197   4.179  1.00  0.00     0.046 C 
HETATM   11  C14 UNL     1      25.400  -3.806   3.660  1.00  0.00     0.079 C 
HETATM   12  N2  UNL     1      25.302  -4.101   2.300  1.00  0.00    -0.319 N 
ATOM     13  H2  UNL     1      24.673  -4.850   2.010  1.00  0.00     0.185 HD
HETATM   14  N3  UNL     1      25.995  -3.446   1.355  1.00  0.00    -0.325 N 
ATOM     15  H3  UNL     1      26.839  -3.844   0.944  1.00  0.00     0.181 HD
ENDROOT
BRANCH   1  16
HETATM   16  C3  UNL     1      24.612  -2.185  -0.245  1.00  0.00     0.137 C 
BRANCH  16  17
HETATM   17  N1  UNL     1      23.244  -2.089  -0.386  1.00  0.00    -0.372 N 
HETATM   18  C1  UNL     1      22.267  -2.112   0.632  1.00  0.00     0.150 C 
HETATM   19  C2  UNL     1      22.749  -2.066  -1.777  1.00  0.00     0.150 C 
ENDBRANCH  16  17
BRANCH  16  20
HETATM   20  O1  UNL     1      25.277  -2.354  -1.384  1.00  0.00    -0.348 OA
ATOM     21  H1  UNL     1      25.184  -1.644  -2.008  1.00  0.00     0.219 HD
ENDBRANCH  16  20
ENDBRANCH   1  16
TORSDOF 3
ENDMDL
MODEL 3
REMARK VINA RESULT: -5.015037467      1.411      1.518
REMARK  3 active torsions:
REMARK  status: ('A' for Active; 'I' for Inactive)
REMARK    1  A    between atoms: N1_2  and  C3_4 
REMARK    2  A    between atoms: C3_4  and  O1_5 
REMARK    3  A    between atoms: C3_4  and  C4_7 
ROOT
HETATM    1  C4  UNL     1      27.718  -4.265   3.755  1.00  0.00     0.173 C 
HETATM    2  C5  UNL     1      27.366  -4.176   2.219  1.00  0.00     0.035 C 
HETATM    3  C6  UNL     1      26.582  -2.998   1.820  1.00  0.00     0.002 C 
HETATM    4  C7  UNL     1      26.987  -2.521   0.419  1.00  0.00     0.000 C 
HETATM    5  C8  UNL     1      26.774  -1.063   0.313  1.00  0.00     0.000 C 
HETATM    6  C9  UNL     1      27.831  -0.207   0.912  1.00  0.00     0.000 C 
HETATM    7  C10 UNL     1      29.180  -0.795   1.051  1.00  0.00     0.000 C 
HETATM    8  C11 UNL     1      29.991  -0.048   2.116  1.00  0.00     0.000 C 
HETATM    9  C12 UNL     1      30.519  -0.996   3.170  1.00  0.00     0.005 C 
HETATM   10  C13 UNL     1      29.389  -1.107   4.182  1.00  0.00     0.046 C 
HETATM   11  C14 UNL     1      29.637  -2.168   5.197  1.00  0.00     0.079 C 
HETATM   12  N2  UNL     1      29.734  -3.495   4.779  1.00  0.00    -0.319 N 
ATOM     13  H2  UNL     1      30.284  -4.142   5.344  1.00  0.00     0.185 HD
HETATM   14  N3  UNL     1      29.139  -3.961   3.670  1.00  0.00    -0.325 N 
ATOM     15  H3  UNL     1      29.661  -4.097   2.805  1.00  0.00     0.181 HD
ENDROOT
BRANCH   1  16
HETATM   16  C3  UNL     1      27.417  -5.676   4.070  1.00  0.00     0.137 C 
BRANCH  16  17
HETATM   17  N1  UNL     1      26.635  -6.618   3.437  1.00  0.00    -0.372 N 
HETATM   18  C1  UNL     1      27.055  -7.641   2.560  1.00  0.00     0.150 C 
HETATM   19  C2  UNL     1      25.179  -6.463   3.621  1.00  0.00     0.150 C 
ENDBRANCH  16  17
BRANCH  16  20
HETATM   20  O1  UNL     1      28.012  -6.103   5.180  1.00  0.00    -0.348 OA
ATOM     21  H1  UNL     1      28.957  -6.016   5.182  1.00  0.00     0.219 HD
ENDBRANCH  16  20
ENDBRANCH   1  16
TORSDOF 3
ENDMDL
MODEL 4
REMARK VINA RESULT: -4.872220433      2.158      3.643
REMARK  3 active torsions:
REMARK  status: ('A' for Active; 'I' for Inactive)
REMARK    1  A    between atoms: N1_2  and  C3_4 
REMARK    2  A    between atoms: C3_4  and  O1_5 
REMARK    3  A    between atoms: C3_4  and  C4_7 
ROOT
HETATM    1  C4  UNL     1      26.557  -4.500   2.866  1.00  0.00     0.173 C 
HETATM    2  C5  UNL     1      27.406  -4.058   4.121  1.00  0.00     0.035 C 
HETATM    3  C6  UNL     1      28.840  -3.854   3.871  1.00  0.00     0.002 C 
HETATM    4  C7  UNL     1      29.387  -2.708   4.732  1.00  0.00     0.000 C 
HETATM    5  C8  UNL     1      30.516  -2.061   4.033  1.00  0.00     0.000 C 
HETATM    6  C9  UNL     1      30.152  -1.090   2.969  1.00  0.00     0.000 C 
HETATM    7  C10 UNL     1      28.818  -0.457   3.059  1.00  0.00     0.000 C 
HETATM    8  C11 UNL     1      28.377   0.077   1.691  1.00  0.00     0.000 C 
HETATM    9  C12 UNL     1      27.027  -0.477   1.294  1.00  0.00     0.005 C 
HETATM   10  C13 UNL     1      27.343  -1.802   0.617  1.00  0.00     0.046 C 
HETATM   11  C14 UNL     1      26.119  -2.605   0.340  1.00  0.00     0.079 C 
HETATM   12  N2  UNL     1      25.341  -3.046   1.411  1.00  0.00    -0.319 N 
ATOM     13  H2  UNL     1      24.349  -3.217   1.252  1.00  0.00     0.185 HD
HETATM   14  N3  UNL     1      25.836  -3.254   2.641  1.00  0.00    -0.325 N 
ATOM     15  H3  UNL     1      25.713  -2.570   3.387  1.00  0.00     0.181 HD
ENDROOT
BRANCH   1  16
HETATM   16  C3  UNL     1      25.725  -5.591   3.411  1.00  0.00     0.137 C 
BRANCH  16  17
HETATM   17  N1  UNL     1      25.932  -6.950   3.510  1.00  0.00    -0.372 N 
HETATM   18  C1  UNL     1      26.762  -7.759   2.704  1.00  0.00     0.150 C 
HETATM   19  C2  UNL     1      25.103  -7.648   4.513  1.00  0.00     0.150 C 
ENDBRANCH  16  17
BRANCH  16  20
HETATM   20  O1  UNL     1      24.555  -5.172   3.884  1.00  0.00    -0.348 OA
ATOM     21  H1  UNL     1      24.102  -4.550   3.327  1.00  0.00     0.219 HD
ENDBRANCH  16  20
ENDBRANCH   1  16
TORSDOF 3
ENDMDL
MODEL 5
REMARK VINA RESULT: -4.703532903      2.677      5.677
REMARK  3 active torsions:
REMARK  status: ('A' for Active; 'I' for Inactive)
REMARK    1  A    between atoms: N1_2  and  C3_4 
REMARK    2  A    between atoms: C3_4  and  O1_5 
REMARK    3  A    between atoms: C3_4  and  C4_7 
ROOT
HETATM    1  C4  UNL     1      26.975  -3.180   1.662  1.00  0.00     0.173 C 
HETATM    2  C5  UNL     1      26.000  -2.564   2.739  1.00  0.00     0.035 C 
HETATM    3  C6  UNL     1      24.720  -3.268   2.905  1.00  0.00     0.002 C 
HETATM    4  C7  UNL     1      24.258  -3.224   4.368  1.00  0.00     0.000 C 
HETATM    5  C8  UNL     1      23.453  -4.426   4.667  1.00  0.00     0.000 C 
HETATM    6  C9  UNL     1      24.218  -5.669   4.943  1.00  0.00     0.000 C 
HETATM    7  C10 UNL     1      25.607  -5.516   5.426  1.00  0.00     0.000 C 
HETATM    8  C11 UNL     1      26.416  -6.792   5.166  1.00  0.00     0.000 C 
HETATM    9  C12 UNL     1      27.675  -6.494   4.382  1.00  0.00     0.005 C 
HETATM   10  C13 UNL     1      27.236  -6.539   2.926  1.00  0.00     0.046 C 
HETATM   11  C14 UNL     1      28.297  -6.061   1.998  1.00  0.00     0.079 C 
HETATM   12  N2  UNL     1      28.734  -4.739   2.091  1.00  0.00    -0.319 N 
ATOM     13  H2  UNL     1      29.681  -4.518   1.783  1.00  0.00     0.185 HD
HETATM   14  N3  UNL     1      27.967  -3.745   2.566  1.00  0.00    -0.325 N 
ATOM     15  H3  UNL     1      28.076  -3.400   3.519  1.00  0.00     0.181 HD
ENDROOT
BRANCH   1  16
HETATM   16  C3  UNL     1      27.435  -1.985   0.927  1.00  0.00     0.137 C 
BRANCH  16  17
HETATM   17  N1  UNL     1      26.847  -1.223  -0.060  1.00  0.00    -0.372 N 
HETATM   18  C1  UNL     1      25.777  -1.584  -0.907  1.00  0.00     0.150 C 
HETATM   19  C2  UNL     1      27.488   0.080  -0.324  1.00  0.00     0.150 C 
ENDBRANCH  16  17
BRANCH  16  20
HETATM   20  O1  UNL     1      28.651  -1.583   1.288  1.00  0.00    -0.348 OA
ATOM     21  H1  UNL     1      29.232  -2.280   1.569  1.00  0.00     0.219 HD
ENDBRANCH  16  20
ENDBRANCH   1  16
TORSDOF 3
ENDMDL
