MODEL 1
REMARK VINA RESULT: -6.478649920      0.000      0.000
REMARK  2 active torsions:
REMARK  status: ('A' for Active; 'I' for Inactive)
REMARK    1  A    between atoms: N2_7  and  O1_9 
REMARK    2  A    between atoms: C5_14  and  C6_15 
ROOT
HETATM    1  N1  UNL     1      17.123   3.932   3.623  1.00  0.00    -0.400 N 
ATOM      2  H11 UNL     1      17.014   2.927   3.478  1.00  0.00     0.156 HD
ATOM      3  H12 UNL     1      17.899   4.209   4.224  1.00  0.00     0.156 HD
HETATM    4  C1  UNL     1      16.352   4.790   3.080  1.00  0.00     0.037 C 
HETATM    5  C2  UNL     1      16.511   6.262   3.293  1.00  0.00     0.115 C 
HETATM    6  C3  UNL     1      15.143   6.807   3.473  1.00  0.00     0.033 C 
HETATM    7  N2  UNL     1      14.845   7.586   4.446  1.00  0.00    -0.275 N 
ATOM      8  H2  UNL     1      13.889   7.933   4.526  1.00  0.00     0.193 HD
HETATM    9  C4  UNL     1      14.101   6.427   2.487  1.00  0.00     0.174 C 
HETATM   10  N3  UNL     1      14.653   5.499   1.487  1.00  0.00    -0.381 N 
ATOM     11  H3  UNL     1      14.637   5.621   0.474  1.00  0.00     0.160 HD
HETATM   12  C5  UNL     1      15.223   4.386   2.206  1.00  0.00     0.079 C 
ENDROOT
BRANCH  12  13
HETATM   13  C6  UNL     1      15.341   3.158   1.447  1.00  0.00     0.077 A 
HETATM   14  N4  UNL     1      16.300   3.042   0.456  1.00  0.00    -0.330 N 
HETATM   15  C7  UNL     1      16.437   1.994  -0.333  1.00  0.00     0.177 A 
ATOM     16  H4  UNL     1      16.946   3.821   0.328  1.00  0.00     0.168 HD
HETATM   17  S1  UNL     1      17.647   2.065  -1.447  1.00  0.00    -0.040 SA
HETATM   18  N5  UNL     1      15.635   0.928  -0.232  1.00  0.00    -0.318 N 
HETATM   19  C8  UNL     1      14.674   0.943   0.701  1.00  0.00     0.119 A 
ATOM     20  H5  UNL     1      15.752   0.124  -0.849  1.00  0.00     0.170 HD
HETATM   21  N6  UNL     1      13.839  -0.105   0.879  1.00  0.00    -0.351 N 
HETATM   22  C12 UNL     1      14.529   2.047   1.534  1.00  0.00     0.037 A 
HETATM   23  C9  UNL     1      12.882  -0.125   1.823  1.00  0.00     0.090 A 
ATOM     24  H6  UNL     1      13.940  -0.917   0.270  1.00  0.00     0.166 HD
HETATM   25  C10 UNL     1      12.696   0.943   2.680  1.00  0.00     0.018 A 
HETATM   26  C11 UNL     1      13.561   2.026   2.493  1.00  0.00     0.019 A 
ENDBRANCH  12  13
BRANCH   7  27
HETATM   27  O1  UNL     1      15.773   7.968   5.385  1.00  0.00    -0.290 OA
ATOM     28  H1  UNL     1      15.836   8.863   5.696  1.00  0.00     0.244 HD
ENDBRANCH   7  27
TORSDOF 2
ENDMDL
MODEL 2
REMARK VINA RESULT: -6.384384234      9.593     12.428
REMARK  2 active torsions:
REMARK  status: ('A' for Active; 'I' for Inactive)
REMARK    1  A    between atoms: N2_7  and  O1_9 
REMARK    2  A    between atoms: C5_14  and  C6_15 
ROOT
HETATM    1  N1  UNL     1      20.472  -1.644  -7.712  1.00  0.00    -0.400 N 
ATOM      2  H11 UNL     1      20.716  -1.985  -6.782  1.00  0.00     0.156 HD
ATOM      3  H12 UNL     1      19.946  -2.294  -8.296  1.00  0.00     0.156 HD
HETATM    4  C1  UNL     1      20.787  -0.477  -8.119  1.00  0.00     0.037 C 
HETATM    5  C2  UNL     1      20.428   0.023  -9.483  1.00  0.00     0.115 C 
HETATM    6  C3  UNL     1      21.621   0.745  -9.989  1.00  0.00     0.033 C 
HETATM    7  N2  UNL     1      22.105   0.525 -11.154  1.00  0.00    -0.275 N 
ATOM      8  H2  UNL     1      22.928   1.048 -11.455  1.00  0.00     0.193 HD
HETATM    9  C4  UNL     1      22.261   1.750  -9.103  1.00  0.00     0.174 C 
HETATM   10  N3  UNL     1      21.567   1.807  -7.806  1.00  0.00    -0.381 N 
ATOM     11  H3  UNL     1      21.170   2.638  -7.368  1.00  0.00     0.160 HD
HETATM   12  C5  UNL     1      21.553   0.468  -7.270  1.00  0.00     0.079 C 
ENDROOT
BRANCH  12  13
HETATM   13  C6  UNL     1      21.403   0.382  -5.831  1.00  0.00     0.077 A 
HETATM   14  N4  UNL     1      20.439   1.135  -5.185  1.00  0.00    -0.330 N 
HETATM   15  C7  UNL     1      20.275   1.178  -3.877  1.00  0.00     0.177 A 
ATOM     16  H4  UNL     1      19.812   1.696  -5.761  1.00  0.00     0.168 HD
HETATM   17  S1  UNL     1      19.063   2.142  -3.319  1.00  0.00    -0.040 SA
HETATM   18  N5  UNL     1      21.052   0.472  -3.048  1.00  0.00    -0.318 N 
HETATM   19  C8  UNL     1      22.015  -0.292  -3.578  1.00  0.00     0.119 A 
ATOM     20  H5  UNL     1      20.913   0.514  -2.038  1.00  0.00     0.170 HD
HETATM   21  N6  UNL     1      22.826  -1.051  -2.806  1.00  0.00    -0.351 N 
HETATM   22  C12 UNL     1      22.189  -0.339  -4.958  1.00  0.00     0.037 A 
HETATM   23  C9  UNL     1      23.785  -1.845  -3.315  1.00  0.00     0.090 A 
ATOM     24  H6  UNL     1      22.705  -1.021  -1.795  1.00  0.00     0.166 HD
HETATM   25  C10 UNL     1      23.999  -1.932  -4.677  1.00  0.00     0.018 A 
HETATM   26  C11 UNL     1      23.159  -1.145  -5.473  1.00  0.00     0.019 A 
ENDBRANCH  12  13
BRANCH   7  27
HETATM   27  O1  UNL     1      21.549  -0.394 -12.012  1.00  0.00    -0.290 OA
ATOM     28  H1  UNL     1      21.382  -0.193 -12.926  1.00  0.00     0.244 HD
ENDBRANCH   7  27
TORSDOF 2
ENDMDL
MODEL 3
REMARK VINA RESULT: -6.372702051      9.644     12.494
REMARK  2 active torsions:
REMARK  status: ('A' for Active; 'I' for Inactive)
REMARK    1  A    between atoms: N2_7  and  O1_9 
REMARK    2  A    between atoms: C5_14  and  C6_15 
ROOT
HETATM    1  N1  UNL     1      22.831   1.556  -7.787  1.00  0.00    -0.400 N 
ATOM      2  H11 UNL     1      22.573   1.924  -6.871  1.00  0.00     0.156 HD
ATOM      3  H12 UNL     1      23.350   2.195  -8.389  1.00  0.00     0.156 HD
HETATM    4  C1  UNL     1      22.539   0.371  -8.158  1.00  0.00     0.037 C 
HETATM    5  C2  UNL     1      22.917  -0.168  -9.500  1.00  0.00     0.115 C 
HETATM    6  C3  UNL     1      21.741  -0.928  -9.991  1.00  0.00     0.033 C 
HETATM    7  N2  UNL     1      21.263  -0.756 -11.167  1.00  0.00    -0.275 N 
ATOM      8  H2  UNL     1      20.452  -1.302 -11.455  1.00  0.00     0.193 HD
HETATM    9  C4  UNL     1      21.111  -1.913  -9.076  1.00  0.00     0.174 C 
HETATM   10  N3  UNL     1      21.795  -1.915  -7.772  1.00  0.00    -0.381 N 
ATOM     11  H3  UNL     1      22.203  -2.724  -7.304  1.00  0.00     0.160 HD
HETATM   12  C5  UNL     1      21.783  -0.558  -7.282  1.00  0.00     0.079 C 
ENDROOT
BRANCH  12  13
HETATM   13  C6  UNL     1      21.919  -0.421  -5.846  1.00  0.00     0.077 A 
HETATM   14  N4  UNL     1      22.882  -1.144  -5.166  1.00  0.00    -0.330 N 
HETATM   15  C7  UNL     1      23.036  -1.140  -3.856  1.00  0.00     0.177 A 
ATOM     16  H4  UNL     1      23.519  -1.721  -5.717  1.00  0.00     0.168 HD
HETATM   17  S1  UNL     1      24.249  -2.076  -3.254  1.00  0.00    -0.040 SA
HETATM   18  N5  UNL     1      22.246  -0.411  -3.059  1.00  0.00    -0.318 N 
HETATM   19  C8  UNL     1      21.282   0.327  -3.623  1.00  0.00     0.119 A 
ATOM     20  H5  UNL     1      22.376  -0.418  -2.047  1.00  0.00     0.170 HD
HETATM   21  N6  UNL     1      20.459   1.106  -2.885  1.00  0.00    -0.351 N 
HETATM   22  C12 UNL     1      21.120   0.324  -5.005  1.00  0.00     0.037 A 
HETATM   23  C9  UNL     1      19.500   1.875  -3.430  1.00  0.00     0.090 A 
ATOM     24  H6  UNL     1      20.572   1.111  -1.872  1.00  0.00     0.166 HD
HETATM   25  C10 UNL     1      19.297   1.913  -4.796  1.00  0.00     0.018 A 
HETATM   26  C11 UNL     1      20.150   1.105  -5.556  1.00  0.00     0.019 A 
ENDBRANCH  12  13
BRANCH   7  27
HETATM   27  O1  UNL     1      21.810   0.144 -12.051  1.00  0.00    -0.290 OA
ATOM     28  H1  UNL     1      21.389   0.357 -12.876  1.00  0.00     0.244 HD
ENDBRANCH   7  27
TORSDOF 2
ENDMDL
MODEL 4
REMARK VINA RESULT: -6.257062730      1.917      2.954
REMARK  2 active torsions:
REMARK  status: ('A' for Active; 'I' for Inactive)
REMARK    1  A    between atoms: N2_7  and  O1_9 
REMARK    2  A    between atoms: C5_14  and  C6_15 
ROOT
HETATM    1  N1  UNL     1      16.137   3.331   3.830  1.00  0.00    -0.400 N 
ATOM      2  H11 UNL     1      15.780   2.375   3.850  1.00  0.00     0.156 HD
ATOM      3  H12 UNL     1      16.898   3.532   4.480  1.00  0.00     0.156 HD
HETATM    4  C1  UNL     1      15.679   4.218   3.037  1.00  0.00     0.037 C 
HETATM    5  C2  UNL     1      16.203   5.619   3.007  1.00  0.00     0.115 C 
HETATM    6  C3  UNL     1      15.019   6.504   2.887  1.00  0.00     0.033 C 
HETATM    7  N2  UNL     1      14.847   7.517   3.652  1.00  0.00    -0.275 N 
ATOM      8  H2  UNL     1      14.015   8.094   3.528  1.00  0.00     0.193 HD
HETATM    9  C4  UNL     1      14.012   6.191   1.841  1.00  0.00     0.174 C 
HETATM   10  N3  UNL     1      14.392   4.969   1.112  1.00  0.00    -0.381 N 
ATOM     11  H3  UNL     1      14.506   4.877   0.103  1.00  0.00     0.160 HD
HETATM   12  C5  UNL     1      14.572   3.927   2.092  1.00  0.00     0.079 C 
ENDROOT
BRANCH  12  13
HETATM   13  C6  UNL     1      14.432   2.576   1.588  1.00  0.00     0.077 A 
HETATM   14  N4  UNL     1      13.482   1.727   2.126  1.00  0.00    -0.330 N 
HETATM   15  C7  UNL     1      13.327   0.463   1.783  1.00  0.00     0.177 A 
ATOM     16  H4  UNL     1      12.857   2.106   2.838  1.00  0.00     0.168 HD
HETATM   17  S1  UNL     1      12.131  -0.367   2.552  1.00  0.00    -0.040 SA
HETATM   18  N5  UNL     1      14.101  -0.114   0.857  1.00  0.00    -0.318 N 
HETATM   19  C8  UNL     1      15.051   0.628   0.274  1.00  0.00     0.119 A 
ATOM     20  H5  UNL     1      13.970  -1.093   0.601  1.00  0.00     0.170 HD
HETATM   21  N6  UNL     1      15.858   0.122  -0.687  1.00  0.00    -0.351 N 
HETATM   22  C12 UNL     1      15.215   1.961   0.634  1.00  0.00     0.037 A 
HETATM   23  C9  UNL     1      16.803   0.852  -1.305  1.00  0.00     0.090 A 
ATOM     24  H6  UNL     1      15.744  -0.855  -0.954  1.00  0.00     0.166 HD
HETATM   25  C10 UNL     1      17.007   2.181  -0.989  1.00  0.00     0.018 A 
HETATM   26  C11 UNL     1      16.171   2.701   0.006  1.00  0.00     0.019 A 
ENDBRANCH  12  13
BRANCH   7  27
HETATM   27  O1  UNL     1      15.748   7.850   4.634  1.00  0.00    -0.290 OA
ATOM     28  H1  UNL     1      15.900   8.751   4.895  1.00  0.00     0.244 HD
ENDBRANCH   7  27
TORSDOF 2
ENDMDL
MODEL 5
REMARK VINA RESULT: -6.013398321      9.391     12.137
REMARK  2 active torsions:
REMARK  status: ('A' for Active; 'I' for Inactive)
REMARK    1  A    between atoms: N2_7  and  O1_9 
REMARK    2  A    between atoms: C5_14  and  C6_15 
ROOT
HETATM    1  N1  UNL     1      20.760  -1.832  -7.598  1.00  0.00    -0.400 N 
ATOM      2  H11 UNL     1      21.135  -2.268  -6.756  1.00  0.00     0.156 HD
ATOM      3  H12 UNL     1      20.110  -2.402  -8.139  1.00  0.00     0.156 HD
HETATM    4  C1  UNL     1      21.068  -0.645  -7.952  1.00  0.00     0.037 C 
HETATM    5  C2  UNL     1      20.519  -0.006  -9.187  1.00  0.00     0.115 C 
HETATM    6  C3  UNL     1      21.650   0.711  -9.824  1.00  0.00     0.033 C 
HETATM    7  N2  UNL     1      21.923   0.582 -11.069  1.00  0.00    -0.275 N 
ATOM      8  H2  UNL     1      22.713   1.097 -11.458  1.00  0.00     0.193 HD
HETATM    9  C4  UNL     1      22.483   1.602  -8.976  1.00  0.00     0.174 C 
HETATM   10  N3  UNL     1      22.016   1.566  -7.580  1.00  0.00    -0.381 N 
ATOM     11  H3  UNL     1      21.743   2.368  -7.012  1.00  0.00     0.160 HD
HETATM   12  C5  UNL     1      22.015   0.184  -7.166  1.00  0.00     0.079 C 
ENDROOT
BRANCH  12  13
HETATM   13  C6  UNL     1      22.100  -0.030  -5.736  1.00  0.00     0.077 A 
HETATM   14  N4  UNL     1      23.035  -0.907  -5.218  1.00  0.00    -0.330 N 
HETATM   15  C7  UNL     1      23.141  -1.221  -3.941  1.00  0.00     0.177 A 
ATOM     16  H4  UNL     1      23.690  -1.341  -5.869  1.00  0.00     0.168 HD
HETATM   17  S1  UNL     1      24.329  -2.288  -3.541  1.00  0.00    -0.040 SA
HETATM   18  N5  UNL     1      22.326  -0.696  -3.019  1.00  0.00    -0.318 N 
HETATM   19  C8  UNL     1      21.385   0.167  -3.422  1.00  0.00     0.119 A 
ATOM     20  H5  UNL     1      22.419  -0.948  -2.034  1.00  0.00     0.170 HD
HETATM   21  N6  UNL     1      20.538   0.756  -2.546  1.00  0.00    -0.351 N 
HETATM   22  C12 UNL     1      21.273   0.499  -4.768  1.00  0.00     0.037 A 
HETATM   23  C9  UNL     1      19.602   1.644  -2.921  1.00  0.00     0.090 A 
ATOM     24  H6  UNL     1      20.615   0.515  -1.558  1.00  0.00     0.166 HD
HETATM   25  C10 UNL     1      19.448   2.012  -4.244  1.00  0.00     0.018 A 
HETATM   26  C11 UNL     1      20.326   1.401  -5.147  1.00  0.00     0.019 A 
ENDBRANCH  12  13
BRANCH   7  27
HETATM   27  O1  UNL     1      21.184  -0.229 -11.896  1.00  0.00    -0.290 OA
ATOM     28  H1  UNL     1      20.419   0.089 -12.362  1.00  0.00     0.244 HD
ENDBRANCH   7  27
TORSDOF 2
ENDMDL
