MODEL 1
REMARK VINA RESULT: -9.701944781      0.000      0.000
REMARK  16 active torsions:
REMARK  status: ('A' for Active; 'I' for Inactive)
REMARK    1  A    between atoms: C2_2  and  C3_3 
REMARK    2  A    between atoms: C3_3  and  C4_4 
REMARK    3  A    between atoms: C4_4  and  C5_5 
REMARK    4  A    between atoms: C5_5  and  O1_6 
REMARK    5  A    between atoms: O1_6  and  C6_7 
REMARK       I    between atoms: C6_7  and  N1_9 
REMARK    6  A    between atoms: N2_12  and  C9_13 
REMARK    7  A    between atoms: C9_13  and  O3_14 
REMARK    8  A    between atoms: C9_13  and  C10_16 
REMARK    9  A    between atoms: C10_16  and  C11_17 
REMARK   10  A    between atoms: C10_16  and  N3_22 
REMARK   11  A    between atoms: C11_17  and  C12_18 
REMARK   12  A    between atoms: C12_18  and  C13_19 
REMARK       I    between atoms: N3_22  and  C14_24 
REMARK   13  A    between atoms: C14_24  and  C15_26 
REMARK   14  A    between atoms: N5_30  and  C17_31 
REMARK   15  A    between atoms: C23_37  and  C24_38 
REMARK       I    between atoms: C24_38  and  N6_40 
REMARK   16  A    between atoms: N6_40  and  C25_42 
ROOT
HETATM    1  C25 UNL     1      19.215  23.751  19.802  1.00  0.00     0.122 C 
HETATM    2  C26 UNL     1      19.992  24.630  20.680  1.00  0.00     0.091 C 
HETATM    3  N7  UNL     1      20.593  25.329  21.390  1.00  0.00    -0.195 NA
HETATM    4  C27 UNL     1      19.950  22.514  19.427  1.00  0.00     0.046 C 
HETATM    5  C28 UNL     1      19.751  21.551  20.575  1.00  0.00     0.004 C 
HETATM    6  C29 UNL     1      18.639  22.085  21.426  1.00  0.00     0.004 C 
HETATM    7  C30 UNL     1      18.061  23.223  20.627  1.00  0.00     0.046 C 
ENDROOT
BRANCH   1   8
HETATM    8  N6  UNL     1      18.672  24.498  18.676  1.00  0.00    -0.334 N 
HETATM    9  C24 UNL     1      19.380  24.700  17.480  1.00  0.00     0.272 C 
HETATM   10  O7  UNL     1      20.547  24.140  17.473  1.00  0.00    -0.266 OA
ATOM     11  H6  UNL     1      17.735  24.892  18.759  1.00  0.00     0.164 HD
BRANCH   9  12
HETATM   12  C23 UNL     1      19.001  25.425  16.291  1.00  0.00     0.136 A 
HETATM   13  C15 UNL     1      18.042  24.960  15.392  1.00  0.00     0.082 A 
HETATM   14  C16 UNL     1      18.106  25.895  14.326  1.00  0.00     0.127 A 
HETATM   15  N4  UNL     1      19.019  26.781  14.637  1.00  0.00    -0.308 N 
HETATM   16  N5  UNL     1      19.578  26.529  15.816  1.00  0.00    -0.281 N 
ATOM     17  H4  UNL     1      19.270  27.572  14.045  1.00  0.00     0.186 HD
BRANCH  13  18
HETATM   18  C14 UNL     1      17.070  23.883  15.441  1.00  0.00     0.256 C 
HETATM   19  N3  UNL     1      15.694  24.066  15.549  1.00  0.00    -0.345 N 
ATOM     20  H3  UNL     1      15.331  25.015  15.640  1.00  0.00     0.163 HD
HETATM   21  O6  UNL     1      17.572  22.722  15.365  1.00  0.00    -0.268 OA
BRANCH  19  22
HETATM   22  C10 UNL     1      14.739  22.940  15.538  1.00  0.00     0.160 C 
BRANCH  22  23
HETATM   23  C9  UNL     1      14.507  22.548  16.936  1.00  0.00     0.137 C 
BRANCH  23  24
HETATM   24  N2  UNL     1      14.732  21.386  17.633  1.00  0.00    -0.361 N 
HETATM   25  C8  UNL     1      14.835  21.146  19.035  1.00  0.00     0.144 C 
HETATM   26  C7  UNL     1      13.668  20.285  19.486  1.00  0.00     0.148 C 
HETATM   27  N1  UNL     1      13.250  19.319  18.531  1.00  0.00    -0.325 N 
HETATM   28  C6  UNL     1      12.146  18.477  18.861  1.00  0.00     0.362 C 
HETATM   29  C32 UNL     1      13.867  19.136  17.261  1.00  0.00     0.148 C 
HETATM   30  O2  UNL     1      11.542  18.577  19.973  1.00  0.00    -0.238 OA
HETATM   31  C31 UNL     1      14.878  20.136  16.833  1.00  0.00     0.144 C 
BRANCH  28  32
HETATM   32  O1  UNL     1      11.679  17.512  17.985  1.00  0.00    -0.304 OA
BRANCH  32  33
HETATM   33  C5  UNL     1      10.501  17.548  17.249  1.00  0.00     0.180 C 
BRANCH  33  34
HETATM   34  C4  UNL     1      10.652  18.102  15.859  1.00  0.00     0.027 C 
BRANCH  34  35
HETATM   35  C3  UNL     1      10.161  19.531  15.765  1.00  0.00     0.002 C 
BRANCH  35  36
HETATM   36  C2  UNL     1      10.092  20.013  14.340  1.00  0.00    -0.004 C 
HETATM   37  C1  UNL     1       9.337  21.303  14.237  1.00  0.00     0.005 C 
ENDBRANCH  35  36
ENDBRANCH  34  35
ENDBRANCH  33  34
ENDBRANCH  32  33
ENDBRANCH  28  32
ENDBRANCH  23  24
BRANCH  23  38
HETATM   38  O3  UNL     1      13.971  23.534  17.644  1.00  0.00    -0.348 OA
ATOM     39  H3  UNL     1      14.160  24.408  17.325  1.00  0.00     0.219 HD
ENDBRANCH  23  38
ENDBRANCH  22  23
BRANCH  22  40
HETATM   40  C11 UNL     1      13.608  23.084  14.640  1.00  0.00     0.044 C 
BRANCH  40  41
HETATM   41  C12 UNL     1      13.368  21.793  13.843  1.00  0.00     0.116 C 
BRANCH  41  42
HETATM   42  C13 UNL     1      14.529  21.585  12.960  1.00  0.00     0.172 C 
HETATM   43  O4  UNL     1      15.517  20.945  13.374  1.00  0.00    -0.648 OA
HETATM   44  O5  UNL     1      14.536  22.092  11.684  1.00  0.00    -0.648 OA
ENDBRANCH  41  42
ENDBRANCH  40  41
ENDBRANCH  22  40
ENDBRANCH  19  22
ENDBRANCH  13  18
BRANCH  16  45
HETATM   45  C17 UNL     1      20.629  27.366  16.337  1.00  0.00     0.108 C 
HETATM   46  C18 UNL     1      21.851  26.548  16.587  1.00  0.00     0.027 C 
HETATM   47  C19 UNL     1      22.794  26.383  15.450  1.00  0.00     0.002 C 
HETATM   48  C20 UNL     1      23.136  27.719  14.863  1.00  0.00     0.000 C 
HETATM   49  C21 UNL     1      21.816  28.254  14.283  1.00  0.00     0.002 C 
HETATM   50  C22 UNL     1      20.882  28.556  15.399  1.00  0.00     0.027 C 
ENDBRANCH  16  45
ENDBRANCH   9  12
ENDBRANCH   1   8
TORSDOF 16
ENDMDL
MODEL 2
REMARK VINA RESULT: -9.662301966      1.100      1.686
REMARK  16 active torsions:
REMARK  status: ('A' for Active; 'I' for Inactive)
REMARK    1  A    between atoms: C2_2  and  C3_3 
REMARK    2  A    between atoms: C3_3  and  C4_4 
REMARK    3  A    between atoms: C4_4  and  C5_5 
REMARK    4  A    between atoms: C5_5  and  O1_6 
REMARK    5  A    between atoms: O1_6  and  C6_7 
REMARK       I    between atoms: C6_7  and  N1_9 
REMARK    6  A    between atoms: N2_12  and  C9_13 
REMARK    7  A    between atoms: C9_13  and  O3_14 
REMARK    8  A    between atoms: C9_13  and  C10_16 
REMARK    9  A    between atoms: C10_16  and  C11_17 
REMARK   10  A    between atoms: C10_16  and  N3_22 
REMARK   11  A    between atoms: C11_17  and  C12_18 
REMARK   12  A    between atoms: C12_18  and  C13_19 
REMARK       I    between atoms: N3_22  and  C14_24 
REMARK   13  A    between atoms: C14_24  and  C15_26 
REMARK   14  A    between atoms: N5_30  and  C17_31 
REMARK   15  A    between atoms: C23_37  and  C24_38 
REMARK       I    between atoms: C24_38  and  N6_40 
REMARK   16  A    between atoms: N6_40  and  C25_42 
ROOT
HETATM    1  C25 UNL     1      19.474  23.833  19.797  1.00  0.00     0.122 C 
HETATM    2  C26 UNL     1      20.594  24.482  20.483  1.00  0.00     0.091 C 
HETATM    3  N7  UNL     1      21.470  25.003  21.044  1.00  0.00    -0.195 NA
HETATM    4  C27 UNL     1      19.788  22.445  19.364  1.00  0.00     0.046 C 
HETATM    5  C28 UNL     1      19.558  21.572  20.575  1.00  0.00     0.004 C 
HETATM    6  C29 UNL     1      18.790  22.381  21.576  1.00  0.00     0.004 C 
HETATM    7  C30 UNL     1      18.390  23.627  20.832  1.00  0.00     0.046 C 
ENDROOT
BRANCH   1   8
HETATM    8  N6  UNL     1      18.948  24.691  18.744  1.00  0.00    -0.334 N 
HETATM    9  C24 UNL     1      19.355  24.594  17.404  1.00  0.00     0.272 C 
HETATM   10  O7  UNL     1      20.222  23.656  17.197  1.00  0.00    -0.266 OA
ATOM     11  H6  UNL     1      18.252  25.395  18.992  1.00  0.00     0.164 HD
BRANCH   9  12
HETATM   12  C23 UNL     1      18.953  25.371  16.256  1.00  0.00     0.136 A 
HETATM   13  C15 UNL     1      17.982  24.946  15.352  1.00  0.00     0.082 A 
HETATM   14  C16 UNL     1      18.025  25.929  14.330  1.00  0.00     0.127 A 
HETATM   15  N4  UNL     1      18.940  26.804  14.667  1.00  0.00    -0.308 N 
HETATM   16  N5  UNL     1      19.519  26.500  15.823  1.00  0.00    -0.281 N 
ATOM     17  H4  UNL     1      19.178  27.623  14.108  1.00  0.00     0.186 HD
BRANCH  13  18
HETATM   18  C14 UNL     1      17.014  23.863  15.367  1.00  0.00     0.256 C 
HETATM   19  N3  UNL     1      15.651  24.026  15.600  1.00  0.00    -0.345 N 
ATOM     20  H3  UNL     1      15.299  24.958  15.816  1.00  0.00     0.163 HD
HETATM   21  O6  UNL     1      17.506  22.719  15.133  1.00  0.00    -0.268 OA
BRANCH  19  22
HETATM   22  C10 UNL     1      14.696  22.902  15.549  1.00  0.00     0.160 C 
BRANCH  22  23
HETATM   23  C9  UNL     1      14.487  22.440  16.929  1.00  0.00     0.137 C 
BRANCH  23  24
HETATM   24  N2  UNL     1      14.647  21.221  17.543  1.00  0.00    -0.361 N 
HETATM   25  C8  UNL     1      14.953  20.895  18.898  1.00  0.00     0.144 C 
HETATM   26  C7  UNL     1      13.762  20.193  19.527  1.00  0.00     0.148 C 
HETATM   27  N1  UNL     1      13.041  19.351  18.637  1.00  0.00    -0.325 N 
HETATM   28  C6  UNL     1      11.893  18.665  19.137  1.00  0.00     0.362 C 
HETATM   29  C32 UNL     1      13.393  19.147  17.273  1.00  0.00     0.148 C 
HETATM   30  O2  UNL     1      11.514  18.794  20.341  1.00  0.00    -0.238 OA
HETATM   31  C31 UNL     1      14.458  20.008  16.698  1.00  0.00     0.144 C 
BRANCH  28  32
HETATM   32  O1  UNL     1      11.139  17.828  18.333  1.00  0.00    -0.304 OA
BRANCH  32  33
HETATM   33  C5  UNL     1      11.255  16.447  18.220  1.00  0.00     0.180 C 
BRANCH  33  34
HETATM   34  C4  UNL     1      10.770  15.888  16.911  1.00  0.00     0.027 C 
BRANCH  34  35
HETATM   35  C3  UNL     1      10.355  14.437  17.037  1.00  0.00     0.002 C 
BRANCH  35  36
HETATM   36  C2  UNL     1      10.600  13.666  15.768  1.00  0.00    -0.004 C 
HETATM   37  C1  UNL     1      10.794  14.584  14.600  1.00  0.00     0.005 C 
ENDBRANCH  35  36
ENDBRANCH  34  35
ENDBRANCH  33  34
ENDBRANCH  32  33
ENDBRANCH  28  32
ENDBRANCH  23  24
BRANCH  23  38
HETATM   38  O3  UNL     1      14.059  23.416  17.718  1.00  0.00    -0.348 OA
ATOM     39  H3  UNL     1      14.256  23.304  18.641  1.00  0.00     0.219 HD
ENDBRANCH  23  38
ENDBRANCH  22  23
BRANCH  22  40
HETATM   40  C11 UNL     1      13.550  23.090  14.678  1.00  0.00     0.044 C 
BRANCH  40  41
HETATM   41  C12 UNL     1      13.281  21.831  13.840  1.00  0.00     0.116 C 
BRANCH  41  42
HETATM   42  C13 UNL     1      14.460  21.593  12.991  1.00  0.00     0.172 C 
HETATM   43  O4  UNL     1      15.363  20.826  13.383  1.00  0.00    -0.648 OA
HETATM   44  O5  UNL     1      14.578  22.210  11.770  1.00  0.00    -0.648 OA
ENDBRANCH  41  42
ENDBRANCH  40  41
ENDBRANCH  22  40
ENDBRANCH  19  22
ENDBRANCH  13  18
BRANCH  16  45
HETATM   45  C17 UNL     1      20.576  27.316  16.366  1.00  0.00     0.108 C 
HETATM   46  C18 UNL     1      21.779  26.475  16.632  1.00  0.00     0.027 C 
HETATM   47  C19 UNL     1      22.738  26.298  15.510  1.00  0.00     0.002 C 
HETATM   48  C20 UNL     1      23.113  27.631  14.936  1.00  0.00     0.000 C 
HETATM   49  C21 UNL     1      21.812  28.191  14.336  1.00  0.00     0.002 C 
HETATM   50  C22 UNL     1      20.865  28.505  15.438  1.00  0.00     0.027 C 
ENDBRANCH  16  45
ENDBRANCH   9  12
ENDBRANCH   1   8
TORSDOF 16
ENDMDL
MODEL 3
REMARK VINA RESULT: -9.413800665      3.033      6.147
REMARK  16 active torsions:
REMARK  status: ('A' for Active; 'I' for Inactive)
REMARK    1  A    between atoms: C2_2  and  C3_3 
REMARK    2  A    between atoms: C3_3  and  C4_4 
REMARK    3  A    between atoms: C4_4  and  C5_5 
REMARK    4  A    between atoms: C5_5  and  O1_6 
REMARK    5  A    between atoms: O1_6  and  C6_7 
REMARK       I    between atoms: C6_7  and  N1_9 
REMARK    6  A    between atoms: N2_12  and  C9_13 
REMARK    7  A    between atoms: C9_13  and  O3_14 
REMARK    8  A    between atoms: C9_13  and  C10_16 
REMARK    9  A    between atoms: C10_16  and  C11_17 
REMARK   10  A    between atoms: C10_16  and  N3_22 
REMARK   11  A    between atoms: C11_17  and  C12_18 
REMARK   12  A    between atoms: C12_18  and  C13_19 
REMARK       I    between atoms: N3_22  and  C14_24 
REMARK   13  A    between atoms: C14_24  and  C15_26 
REMARK   14  A    between atoms: N5_30  and  C17_31 
REMARK   15  A    between atoms: C23_37  and  C24_38 
REMARK       I    between atoms: C24_38  and  N6_40 
REMARK   16  A    between atoms: N6_40  and  C25_42 
ROOT
HETATM    1  C25 UNL     1      21.827  26.704  16.096  1.00  0.00     0.122 C 
HETATM    2  C26 UNL     1      22.730  27.828  15.833  1.00  0.00     0.091 C 
HETATM    3  N7  UNL     1      23.453  28.710  15.606  1.00  0.00    -0.195 NA
HETATM    4  C27 UNL     1      20.439  27.139  16.406  1.00  0.00     0.046 C 
HETATM    5  C28 UNL     1      19.770  27.369  15.070  1.00  0.00     0.004 C 
HETATM    6  C29 UNL     1      20.633  26.742  14.018  1.00  0.00     0.004 C 
HETATM    7  C30 UNL     1      21.664  25.961  14.788  1.00  0.00     0.046 C 
ENDROOT
BRANCH   1   8
HETATM    8  N6  UNL     1      22.408  25.794  17.074  1.00  0.00    -0.334 N 
HETATM    9  C24 UNL     1      22.574  26.130  18.427  1.00  0.00     0.272 C 
HETATM   10  O7  UNL     1      22.139  27.313  18.719  1.00  0.00    -0.266 OA
ATOM     11  H6  UNL     1      22.710  24.871  16.761  1.00  0.00     0.164 HD
BRANCH   9  12
HETATM   12  C23 UNL     1      23.144  25.363  19.508  1.00  0.00     0.136 A 
HETATM   13  C15 UNL     1      22.372  24.650  20.424  1.00  0.00     0.082 A 
HETATM   14  C16 UNL     1      23.323  24.190  21.372  1.00  0.00     0.127 A 
HETATM   15  N4  UNL     1      24.499  24.619  20.987  1.00  0.00    -0.308 N 
HETATM   16  N5  UNL     1      24.429  25.329  19.866  1.00  0.00    -0.281 N 
ATOM     17  H4  UNL     1      25.366  24.430  21.489  1.00  0.00     0.186 HD
BRANCH  13  18
HETATM   18  C14 UNL     1      20.967  24.286  20.472  1.00  0.00     0.256 C 
HETATM   19  N3  UNL     1      20.394  23.255  19.733  1.00  0.00    -0.345 N 
ATOM     20  H3  UNL     1      20.980  22.736  19.080  1.00  0.00     0.163 HD
HETATM   21  O6  UNL     1      20.274  24.986  21.268  1.00  0.00    -0.268 OA
BRANCH  19  22
HETATM   22  C10 UNL     1      18.971  22.885  19.858  1.00  0.00     0.160 C 
BRANCH  22  23
HETATM   23  C9  UNL     1      18.179  23.978  19.275  1.00  0.00     0.137 C 
BRANCH  23  24
HETATM   24  N2  UNL     1      17.936  24.372  17.982  1.00  0.00    -0.361 N 
HETATM   25  C8  UNL     1      18.696  24.179  16.791  1.00  0.00     0.144 C 
HETATM   26  C7  UNL     1      17.929  23.270  15.845  1.00  0.00     0.148 C 
HETATM   27  N1  UNL     1      16.519  23.443  15.883  1.00  0.00    -0.325 N 
HETATM   28  C6  UNL     1      15.715  22.617  15.042  1.00  0.00     0.362 C 
HETATM   29  C32 UNL     1      15.854  24.393  16.710  1.00  0.00     0.148 C 
HETATM   30  O2  UNL     1      16.230  21.747  14.275  1.00  0.00    -0.238 OA
HETATM   31  C31 UNL     1      16.665  25.109  17.728  1.00  0.00     0.144 C 
BRANCH  28  32
HETATM   32  O1  UNL     1      14.334  22.725  15.021  1.00  0.00    -0.304 OA
BRANCH  32  33
HETATM   33  C5  UNL     1      13.490  22.468  13.946  1.00  0.00     0.180 C 
BRANCH  33  34
HETATM   34  C4  UNL     1      12.839  21.113  13.977  1.00  0.00     0.027 C 
BRANCH  34  35
HETATM   35  C3  UNL     1      11.744  21.037  15.020  1.00  0.00     0.002 C 
BRANCH  35  36
HETATM   36  C2  UNL     1      10.503  20.369  14.490  1.00  0.00    -0.004 C 
HETATM   37  C1  UNL     1       9.413  21.365  14.236  1.00  0.00     0.005 C 
ENDBRANCH  35  36
ENDBRANCH  34  35
ENDBRANCH  33  34
ENDBRANCH  32  33
ENDBRANCH  28  32
ENDBRANCH  23  24
BRANCH  23  38
HETATM   38  O3  UNL     1      17.594  24.718  20.208  1.00  0.00    -0.348 OA
ATOM     39  H3  UNL     1      17.893  24.558  21.095  1.00  0.00     0.219 HD
ENDBRANCH  23  38
ENDBRANCH  22  23
BRANCH  22  40
HETATM   40  C11 UNL     1      18.646  21.511  19.519  1.00  0.00     0.044 C 
BRANCH  40  41
HETATM   41  C12 UNL     1      17.133  21.332  19.327  1.00  0.00     0.116 C 
BRANCH  41  42
HETATM   42  C13 UNL     1      16.919  20.624  18.054  1.00  0.00     0.172 C 
HETATM   43  O4  UNL     1      17.895  20.344  17.327  1.00  0.00    -0.648 OA
HETATM   44  O5  UNL     1      15.654  20.269  17.655  1.00  0.00    -0.648 OA
ENDBRANCH  41  42
ENDBRANCH  40  41
ENDBRANCH  22  40
ENDBRANCH  19  22
ENDBRANCH  13  18
BRANCH  16  45
HETATM   45  C17 UNL     1      25.607  25.921  19.283  1.00  0.00     0.108 C 
HETATM   46  C18 UNL     1      26.747  25.825  20.239  1.00  0.00     0.027 C 
HETATM   47  C19 UNL     1      27.566  24.585  20.188  1.00  0.00     0.002 C 
HETATM   48  C20 UNL     1      28.002  24.311  18.780  1.00  0.00     0.000 C 
HETATM   49  C21 UNL     1      26.704  24.030  18.004  1.00  0.00     0.002 C 
HETATM   50  C22 UNL     1      25.908  25.282  17.919  1.00  0.00     0.027 C 
ENDBRANCH  16  45
ENDBRANCH   9  12
ENDBRANCH   1   8
TORSDOF 16
ENDMDL
MODEL 4
REMARK VINA RESULT: -9.269033517      3.309      6.496
REMARK  16 active torsions:
REMARK  status: ('A' for Active; 'I' for Inactive)
REMARK    1  A    between atoms: C2_2  and  C3_3 
REMARK    2  A    between atoms: C3_3  and  C4_4 
REMARK    3  A    between atoms: C4_4  and  C5_5 
REMARK    4  A    between atoms: C5_5  and  O1_6 
REMARK    5  A    between atoms: O1_6  and  C6_7 
REMARK       I    between atoms: C6_7  and  N1_9 
REMARK    6  A    between atoms: N2_12  and  C9_13 
REMARK    7  A    between atoms: C9_13  and  O3_14 
REMARK    8  A    between atoms: C9_13  and  C10_16 
REMARK    9  A    between atoms: C10_16  and  C11_17 
REMARK   10  A    between atoms: C10_16  and  N3_22 
REMARK   11  A    between atoms: C11_17  and  C12_18 
REMARK   12  A    between atoms: C12_18  and  C13_19 
REMARK       I    between atoms: N3_22  and  C14_24 
REMARK   13  A    between atoms: C14_24  and  C15_26 
REMARK   14  A    between atoms: N5_30  and  C17_31 
REMARK   15  A    between atoms: C23_37  and  C24_38 
REMARK       I    between atoms: C24_38  and  N6_40 
REMARK   16  A    between atoms: N6_40  and  C25_42 
ROOT
HETATM    1  C25 UNL     1      22.665  26.761  16.273  1.00  0.00     0.122 C 
HETATM    2  C26 UNL     1      24.018  27.145  15.861  1.00  0.00     0.091 C 
HETATM    3  N7  UNL     1      25.090  27.437  15.517  1.00  0.00    -0.195 NA
HETATM    4  C27 UNL     1      21.789  27.932  16.542  1.00  0.00     0.046 C 
HETATM    5  C28 UNL     1      21.259  28.370  15.196  1.00  0.00     0.004 C 
HETATM    6  C29 UNL     1      21.535  27.266  14.221  1.00  0.00     0.004 C 
HETATM    7  C30 UNL     1      22.010  26.117  15.071  1.00  0.00     0.046 C 
ENDROOT
BRANCH   1   8
HETATM    8  N6  UNL     1      22.714  25.781  17.350  1.00  0.00    -0.334 N 
HETATM    9  C24 UNL     1      23.372  26.016  18.568  1.00  0.00     0.272 C 
HETATM   10  O7  UNL     1      23.908  27.192  18.644  1.00  0.00    -0.266 OA
ATOM     11  H6  UNL     1      22.249  24.884  17.214  1.00  0.00     0.164 HD
BRANCH   9  12
HETATM   12  C23 UNL     1      23.531  25.155  19.716  1.00  0.00     0.136 A 
HETATM   13  C15 UNL     1      22.464  24.748  20.514  1.00  0.00     0.082 A 
HETATM   14  C16 UNL     1      23.093  24.059  21.583  1.00  0.00     0.127 A 
HETATM   15  N4  UNL     1      24.384  24.094  21.365  1.00  0.00    -0.308 N 
HETATM   16  N5  UNL     1      24.685  24.747  20.248  1.00  0.00    -0.281 N 
ATOM     17  H4  UNL     1      25.077  23.671  21.982  1.00  0.00     0.186 HD
BRANCH  13  18
HETATM   18  C14 UNL     1      21.022  24.831  20.366  1.00  0.00     0.256 C 
HETATM   19  N3  UNL     1      20.276  24.070  19.470  1.00  0.00    -0.345 N 
ATOM     20  H3  UNL     1      20.765  23.435  18.840  1.00  0.00     0.163 HD
HETATM   21  O6  UNL     1      20.464  25.663  21.142  1.00  0.00    -0.268 OA
BRANCH  19  22
HETATM   22  C10 UNL     1      18.804  24.148  19.396  1.00  0.00     0.160 C 
BRANCH  22  23
HETATM   23  C9  UNL     1      18.457  24.612  18.045  1.00  0.00     0.137 C 
BRANCH  23  24
HETATM   24  N2  UNL     1      17.269  24.695  17.359  1.00  0.00    -0.361 N 
HETATM   25  C8  UNL     1      17.005  24.752  15.958  1.00  0.00     0.144 C 
HETATM   26  C7  UNL     1      16.277  23.488  15.532  1.00  0.00     0.148 C 
HETATM   27  N1  UNL     1      15.374  22.977  16.504  1.00  0.00    -0.325 N 
HETATM   28  C6  UNL     1      14.659  21.780  16.197  1.00  0.00     0.362 C 
HETATM   29  C32 UNL     1      15.135  23.587  17.768  1.00  0.00     0.148 C 
HETATM   30  O2  UNL     1      14.815  21.176  15.092  1.00  0.00    -0.238 OA
HETATM   31  C31 UNL     1      16.019  24.710  18.171  1.00  0.00     0.144 C 
BRANCH  28  32
HETATM   32  O1  UNL     1      13.762  21.220  17.091  1.00  0.00    -0.304 OA
BRANCH  32  33
HETATM   33  C5  UNL     1      12.903  20.153  16.857  1.00  0.00     0.180 C 
BRANCH  33  34
HETATM   34  C4  UNL     1      12.394  19.479  18.101  1.00  0.00     0.027 C 
BRANCH  34  35
HETATM   35  C3  UNL     1      13.491  19.288  19.128  1.00  0.00     0.002 C 
BRANCH  35  36
HETATM   36  C2  UNL     1      13.404  17.947  19.806  1.00  0.00    -0.004 C 
HETATM   37  C1  UNL     1      12.456  17.983  20.966  1.00  0.00     0.005 C 
ENDBRANCH  35  36
ENDBRANCH  34  35
ENDBRANCH  33  34
ENDBRANCH  32  33
ENDBRANCH  28  32
ENDBRANCH  23  24
BRANCH  23  38
HETATM   38  O3  UNL     1      19.523  25.031  17.375  1.00  0.00    -0.348 OA
ATOM     39  H3  UNL     1      20.106  25.601  17.862  1.00  0.00     0.219 HD
ENDBRANCH  23  38
ENDBRANCH  22  23
BRANCH  22  40
HETATM   40  C11 UNL     1      18.085  23.025  19.970  1.00  0.00     0.044 C 
BRANCH  40  41
HETATM   41  C12 UNL     1      18.701  21.690  19.527  1.00  0.00     0.116 C 
BRANCH  41  42
HETATM   42  C13 UNL     1      17.856  21.136  18.455  1.00  0.00     0.172 C 
HETATM   43  O4  UNL     1      16.717  20.703  18.723  1.00  0.00    -0.648 OA
HETATM   44  O5  UNL     1      18.312  21.088  17.161  1.00  0.00    -0.648 OA
ENDBRANCH  41  42
ENDBRANCH  40  41
ENDBRANCH  22  40
ENDBRANCH  19  22
ENDBRANCH  13  18
BRANCH  16  45
HETATM   45  C17 UNL     1      26.053  24.929  19.835  1.00  0.00     0.108 C 
HETATM   46  C18 UNL     1      26.972  24.572  20.954  1.00  0.00     0.027 C 
HETATM   47  C19 UNL     1      27.383  23.148  21.060  1.00  0.00     0.002 C 
HETATM   48  C20 UNL     1      27.906  22.662  19.742  1.00  0.00     0.000 C 
HETATM   49  C21 UNL     1      26.702  22.717  18.786  1.00  0.00     0.002 C 
HETATM   50  C22 UNL     1      26.335  24.137  18.549  1.00  0.00     0.027 C 
ENDBRANCH  16  45
ENDBRANCH   9  12
ENDBRANCH   1   8
TORSDOF 16
ENDMDL
MODEL 5
REMARK VINA RESULT: -9.204768584      3.256      6.352
REMARK  16 active torsions:
REMARK  status: ('A' for Active; 'I' for Inactive)
REMARK    1  A    between atoms: C2_2  and  C3_3 
REMARK    2  A    between atoms: C3_3  and  C4_4 
REMARK    3  A    between atoms: C4_4  and  C5_5 
REMARK    4  A    between atoms: C5_5  and  O1_6 
REMARK    5  A    between atoms: O1_6  and  C6_7 
REMARK       I    between atoms: C6_7  and  N1_9 
REMARK    6  A    between atoms: N2_12  and  C9_13 
REMARK    7  A    between atoms: C9_13  and  O3_14 
REMARK    8  A    between atoms: C9_13  and  C10_16 
REMARK    9  A    between atoms: C10_16  and  C11_17 
REMARK   10  A    between atoms: C10_16  and  N3_22 
REMARK   11  A    between atoms: C11_17  and  C12_18 
REMARK   12  A    between atoms: C12_18  and  C13_19 
REMARK       I    between atoms: N3_22  and  C14_24 
REMARK   13  A    between atoms: C14_24  and  C15_26 
REMARK   14  A    between atoms: N5_30  and  C17_31 
REMARK   15  A    between atoms: C23_37  and  C24_38 
REMARK       I    between atoms: C24_38  and  N6_40 
REMARK   16  A    between atoms: N6_40  and  C25_42 
ROOT
HETATM    1  C25 UNL     1      21.968  26.755  15.985  1.00  0.00     0.122 C 
HETATM    2  C26 UNL     1      23.164  27.538  15.663  1.00  0.00     0.091 C 
HETATM    3  N7  UNL     1      24.117  28.148  15.390  1.00  0.00    -0.195 NA
HETATM    4  C27 UNL     1      20.791  27.605  16.306  1.00  0.00     0.046 C 
HETATM    5  C28 UNL     1      20.185  27.992  14.977  1.00  0.00     0.004 C 
HETATM    6  C29 UNL     1      20.783  27.100  13.931  1.00  0.00     0.004 C 
HETATM    7  C30 UNL     1      21.546  26.061  14.708  1.00  0.00     0.046 C 
ENDROOT
BRANCH   1   8
HETATM    8  N6  UNL     1      22.271  25.738  16.983  1.00  0.00    -0.334 N 
HETATM    9  C24 UNL     1      22.645  26.048  18.300  1.00  0.00     0.272 C 
HETATM   10  O7  UNL     1      22.671  27.319  18.542  1.00  0.00    -0.266 OA
ATOM     11  H6  UNL     1      22.208  24.757  16.713  1.00  0.00     0.164 HD
BRANCH   9  12
HETATM   12  C23 UNL     1      22.995  25.173  19.393  1.00  0.00     0.136 A 
HETATM   13  C15 UNL     1      22.072  24.734  20.341  1.00  0.00     0.082 A 
HETATM   14  C16 UNL     1      22.871  24.040  21.286  1.00  0.00     0.127 A 
HETATM   15  N4  UNL     1      24.112  24.102  20.870  1.00  0.00    -0.308 N 
HETATM   16  N5  UNL     1      24.224  24.777  19.732  1.00  0.00    -0.281 N 
ATOM     17  H4  UNL     1      24.899  23.681  21.363  1.00  0.00     0.186 HD
BRANCH  13  18
HETATM   18  C14 UNL     1      20.624  24.793  20.422  1.00  0.00     0.256 C 
HETATM   19  N3  UNL     1      19.757  24.193  19.512  1.00  0.00    -0.345 N 
ATOM     20  H3  UNL     1      20.152  23.707  18.707  1.00  0.00     0.163 HD
HETATM   21  O6  UNL     1      20.182  25.441  21.417  1.00  0.00    -0.268 OA
BRANCH  19  22
HETATM   22  C10 UNL     1      18.290  24.231  19.667  1.00  0.00     0.160 C 
BRANCH  22  23
HETATM   23  C9  UNL     1      17.713  24.430  18.330  1.00  0.00     0.137 C 
BRANCH  23  24
HETATM   24  N2  UNL     1      16.737  23.770  17.623  1.00  0.00    -0.361 N 
HETATM   25  C8  UNL     1      16.834  22.867  16.523  1.00  0.00     0.144 C 
HETATM   26  C7  UNL     1      16.371  21.489  16.962  1.00  0.00     0.148 C 
HETATM   27  N1  UNL     1      15.307  21.501  17.905  1.00  0.00    -0.325 N 
HETATM   28  C6  UNL     1      14.819  20.250  18.388  1.00  0.00     0.362 C 
HETATM   29  C32 UNL     1      14.693  22.688  18.397  1.00  0.00     0.148 C 
HETATM   30  O2  UNL     1      15.311  19.148  17.998  1.00  0.00    -0.238 OA
HETATM   31  C31 UNL     1      15.327  23.987  18.054  1.00  0.00     0.144 C 
BRANCH  28  32
HETATM   32  O1  UNL     1      13.785  20.179  19.307  1.00  0.00    -0.304 OA
BRANCH  32  33
HETATM   33  C5  UNL     1      13.537  19.151  20.210  1.00  0.00     0.180 C 
BRANCH  33  34
HETATM   34  C4  UNL     1      12.194  18.493  20.049  1.00  0.00     0.027 C 
BRANCH  34  35
HETATM   35  C3  UNL     1      12.315  17.098  19.473  1.00  0.00     0.002 C 
BRANCH  35  36
HETATM   36  C2  UNL     1      12.478  17.117  17.976  1.00  0.00    -0.004 C 
HETATM   37  C1  UNL     1      11.351  16.403  17.296  1.00  0.00     0.005 C 
ENDBRANCH  35  36
ENDBRANCH  34  35
ENDBRANCH  33  34
ENDBRANCH  32  33
ENDBRANCH  28  32
ENDBRANCH  23  24
BRANCH  23  38
HETATM   38  O3  UNL     1      18.262  25.462  17.701  1.00  0.00    -0.348 OA
ATOM     39  H3  UNL     1      18.707  26.085  18.263  1.00  0.00     0.219 HD
ENDBRANCH  23  38
ENDBRANCH  22  23
BRANCH  22  40
HETATM   40  C11 UNL     1      17.724  23.224  20.546  1.00  0.00     0.044 C 
BRANCH  40  41
HETATM   41  C12 UNL     1      18.076  21.809  20.063  1.00  0.00     0.116 C 
BRANCH  41  42
HETATM   42  C13 UNL     1      19.321  21.399  20.736  1.00  0.00     0.172 C 
HETATM   43  O4  UNL     1      20.376  21.290  20.077  1.00  0.00    -0.648 OA
HETATM   44  O5  UNL     1      19.332  21.133  22.083  1.00  0.00    -0.648 OA
ENDBRANCH  41  42
ENDBRANCH  40  41
ENDBRANCH  22  40
ENDBRANCH  19  22
ENDBRANCH  13  18
BRANCH  16  45
HETATM   45  C17 UNL     1      25.508  24.990  19.113  1.00  0.00     0.108 C 
HETATM   46  C18 UNL     1      26.352  25.856  19.985  1.00  0.00     0.027 C 
HETATM   47  C19 UNL     1      27.167  25.174  21.025  1.00  0.00     0.002 C 
HETATM   48  C20 UNL     1      27.968  24.067  20.409  1.00  0.00     0.000 C 
HETATM   49  C21 UNL     1      26.928  23.049  19.909  1.00  0.00     0.002 C 
HETATM   50  C22 UNL     1      26.171  23.645  18.777  1.00  0.00     0.027 C 
ENDBRANCH  16  45
ENDBRANCH   9  12
ENDBRANCH   1   8
TORSDOF 16
ENDMDL
