MODEL 1
REMARK VINA RESULT: -8.624835709      0.000      0.000
REMARK  11 active torsions:
REMARK  status: ('A' for Active; 'I' for Inactive)
REMARK    1  A    between atoms: C4_11  and  O1_12 
REMARK    2  A    between atoms: C4_11  and  N4_14 
REMARK    3  A    between atoms: N4_14  and  C5_16 
REMARK    4  A    between atoms: C6_17  and  O2_18 
REMARK    5  A    between atoms: O2_18  and  C7_19 
REMARK    6  A    between atoms: C9_25  and  C10_26 
REMARK    7  A    between atoms: C11_29  and  N7_30 
REMARK    8  A    between atoms: C12_35  and  C13_36 
REMARK    9  A    between atoms: C13_36  and  N8_37 
REMARK   10  A    between atoms: C14_41  and  O6_42 
REMARK   11  A    between atoms: C15_44  and  O7_45 
ROOT
HETATM    1  C5  UNL     1      -7.587  15.520 -35.887  1.00  0.00     0.170 C 
HETATM    2  C6  UNL     1      -6.665  14.843 -34.913  1.00  0.00     0.293 C 
HETATM    3  O5  UNL     1      -5.676  14.083 -35.551  1.00  0.00    -0.349 OA
HETATM    4  C12 UNL     1      -6.307  12.925 -36.000  1.00  0.00     0.181 C 
HETATM    5  C14 UNL     1      -7.600  13.222 -36.708  1.00  0.00     0.179 C 
HETATM    6  C15 UNL     1      -7.568  14.667 -37.157  1.00  0.00     0.177 C 
ENDROOT
BRANCH   1   7
HETATM    7  N4  UNL     1      -7.178  16.885 -36.195  1.00  0.00    -0.357 N 
ATOM      8  H4  UNL     1      -6.217  17.107 -36.454  1.00  0.00     0.162 HD
BRANCH   7   9
HETATM    9  C4  UNL     1      -8.172  17.885 -36.118  1.00  0.00     0.170 C 
HETATM   10  C3  UNL     1      -8.664  18.211 -34.947  1.00  0.00     0.170 A 
HETATM   11  N3  UNL     1      -8.302  17.650 -33.681  1.00  0.00    -0.180 N 
HETATM   12  C16 UNL     1      -9.692  19.210 -34.628  1.00  0.00     0.314 A 
HETATM   13  C2  UNL     1      -8.980  18.198 -32.732  1.00  0.00     0.710 A 
ATOM     14  H3  UNL     1      -7.604  16.918 -33.549  1.00  0.00     0.184 HD
HETATM   15  N2  UNL     1      -9.130  18.138 -31.309  1.00  0.00    -0.158 N 
HETATM   16  N9  UNL     1      -9.863  19.172 -33.219  1.00  0.00    -0.043 N 
HETATM   17  C1  UNL     1     -10.116  19.088 -30.945  1.00  0.00     0.207 A 
ATOM     18  H2  UNL     1      -8.620  17.523 -30.673  1.00  0.00     0.187 HD
HETATM   19  N1  UNL     1     -10.566  19.367 -29.752  1.00  0.00    -0.369 N 
HETATM   20  N10 UNL     1     -10.571  19.730 -32.125  1.00  0.00    -0.246 N 
ATOM     21  H12 UNL     1     -10.238  18.905 -28.904  1.00  0.00     0.159 HD
ATOM     22  H11 UNL     1     -11.276  20.051 -29.491  1.00  0.00     0.159 HD
ATOM     23  H10 UNL     1     -11.281  20.461 -32.177  1.00  0.00     0.191 HD
HETATM   24  O8  UNL     1     -10.270  19.924 -35.458  1.00  0.00    -0.263 OA
BRANCH   9  25
HETATM   25  O1  UNL     1      -8.623  18.518 -37.267  1.00  0.00    -0.344 OA
ATOM     26  H1  UNL     1      -9.490  18.330 -37.608  1.00  0.00     0.219 HD
ENDBRANCH   9  25
ENDBRANCH   7   9
ENDBRANCH   1   7
BRANCH   2  27
HETATM   27  O2  UNL     1      -6.099  15.813 -34.068  1.00  0.00    -0.304 OA
BRANCH  27  28
HETATM   28  C7  UNL     1      -5.707  15.480 -32.791  1.00  0.00     0.151 C 
HETATM   29  N5  UNL     1      -4.456  15.275 -32.571  1.00  0.00    -0.357 N 
HETATM   30  C8  UNL     1      -3.995  14.921 -31.232  1.00  0.00     0.240 C 
ATOM     31  H5  UNL     1      -3.784  15.361 -33.334  1.00  0.00     0.163 HD
HETATM   32  N6  UNL     1      -4.614  15.765 -30.267  1.00  0.00    -0.391 N 
HETATM   33  C9  UNL     1      -5.985  16.087 -30.487  1.00  0.00     0.218 C 
ATOM     34  H6  UNL     1      -4.102  16.122 -29.460  1.00  0.00     0.155 HD
HETATM   35  C11 UNL     1      -6.624  15.339 -31.634  1.00  0.00     0.289 C 
BRANCH  33  36
HETATM   36  C10 UNL     1      -6.741  15.997 -29.243  1.00  0.00     0.199 C 
HETATM   37  O3  UNL     1      -6.616  15.037 -28.449  1.00  0.00    -0.646 OA
HETATM   38  O4  UNL     1      -7.633  17.001 -28.916  1.00  0.00    -0.646 OA
ENDBRANCH  33  36
BRANCH  35  39
HETATM   39  N7  UNL     1      -6.932  13.981 -31.313  1.00  0.00    -0.065 N 
ATOM     40  H73 UNL     1      -7.748  13.931 -30.705  1.00  0.00     0.275 HD
ATOM     41  H72 UNL     1      -7.297  13.492 -32.129  1.00  0.00     0.275 HD
ATOM     42  H71 UNL     1      -6.147  13.471 -30.908  1.00  0.00     0.275 HD
ENDBRANCH  35  39
ENDBRANCH  27  28
ENDBRANCH   2  27
BRANCH   6  43
HETATM   43  O7  UNL     1      -6.351  14.957 -37.800  1.00  0.00    -0.391 OA
ATOM     44  H7  UNL     1      -6.040  14.132 -38.153  1.00  0.00     0.210 HD
ENDBRANCH   6  43
BRANCH   5  45
HETATM   45  O6  UNL     1      -7.836  12.356 -37.774  1.00  0.00    -0.390 OA
ATOM     46  H6  UNL     1      -7.056  12.201 -38.296  1.00  0.00     0.210 HD
ENDBRANCH   5  45
BRANCH   4  47
HETATM   47  C13 UNL     1      -5.408  12.175 -36.940  1.00  0.00     0.264 C 
BRANCH  47  48
HETATM   48  N8  UNL     1      -4.290  13.001 -37.362  1.00  0.00    -0.077 N 
ATOM     49  H83 UNL     1      -3.993  12.776 -38.311  1.00  0.00     0.274 HD
ATOM     50  H82 UNL     1      -4.575  13.969 -37.515  1.00  0.00     0.274 HD
ATOM     51  H81 UNL     1      -3.518  12.937 -36.699  1.00  0.00     0.274 HD
ENDBRANCH  47  48
ENDBRANCH   4  47
TORSDOF 11
ENDMDL
MODEL 2
REMARK VINA RESULT: -8.575519130      2.415      7.366
REMARK  11 active torsions:
REMARK  status: ('A' for Active; 'I' for Inactive)
REMARK    1  A    between atoms: C4_11  and  O1_12 
REMARK    2  A    between atoms: C4_11  and  N4_14 
REMARK    3  A    between atoms: N4_14  and  C5_16 
REMARK    4  A    between atoms: C6_17  and  O2_18 
REMARK    5  A    between atoms: O2_18  and  C7_19 
REMARK    6  A    between atoms: C9_25  and  C10_26 
REMARK    7  A    between atoms: C11_29  and  N7_30 
REMARK    8  A    between atoms: C12_35  and  C13_36 
REMARK    9  A    between atoms: C13_36  and  N8_37 
REMARK   10  A    between atoms: C14_41  and  O6_42 
REMARK   11  A    between atoms: C15_44  and  O7_45 
ROOT
HETATM    1  C5  UNL     1      -6.429  14.071 -33.270  1.00  0.00     0.170 C 
HETATM    2  C6  UNL     1      -6.356  15.571 -33.304  1.00  0.00     0.293 C 
HETATM    3  O5  UNL     1      -5.339  16.077 -32.483  1.00  0.00    -0.349 OA
HETATM    4  C12 UNL     1      -5.810  15.973 -31.175  1.00  0.00     0.181 C 
HETATM    5  C14 UNL     1      -6.403  14.620 -30.892  1.00  0.00     0.179 C 
HETATM    6  C15 UNL     1      -5.859  13.646 -31.914  1.00  0.00     0.177 C 
ENDROOT
BRANCH   1   7
HETATM    7  N4  UNL     1      -5.675  13.444 -34.348  1.00  0.00    -0.357 N 
ATOM      8  H4  UNL     1      -4.656  13.408 -34.334  1.00  0.00     0.162 HD
BRANCH   7   9
HETATM    9  C4  UNL     1      -6.419  12.891 -35.414  1.00  0.00     0.170 C 
HETATM   10  C3  UNL     1      -6.050  13.137 -36.648  1.00  0.00     0.170 A 
HETATM   11  N3  UNL     1      -4.939  13.935 -37.066  1.00  0.00    -0.180 N 
HETATM   12  C16 UNL     1      -6.665  12.674 -37.900  1.00  0.00     0.314 A 
HETATM   13  C2  UNL     1      -4.863  13.969 -38.352  1.00  0.00     0.710 A 
ATOM     14  H3  UNL     1      -4.295  14.410 -36.434  1.00  0.00     0.184 HD
HETATM   15  N2  UNL     1      -4.058  14.534 -39.393  1.00  0.00    -0.158 N 
HETATM   16  N9  UNL     1      -5.885  13.221 -38.953  1.00  0.00    -0.043 N 
HETATM   17  C1  UNL     1      -4.609  14.116 -40.630  1.00  0.00     0.207 A 
ATOM     18  H2  UNL     1      -3.238  15.128 -39.268  1.00  0.00     0.187 HD
HETATM   19  N1  UNL     1      -4.193  14.398 -41.835  1.00  0.00    -0.369 N 
HETATM   20  N10 UNL     1      -5.740  13.303 -40.361  1.00  0.00    -0.246 N 
ATOM     21  H12 UNL     1      -3.380  14.982 -42.028  1.00  0.00     0.159 HD
ATOM     22  H11 UNL     1      -4.590  14.097 -42.725  1.00  0.00     0.159 HD
ATOM     23  H10 UNL     1      -6.340  12.858 -41.055  1.00  0.00     0.191 HD
HETATM   24  O8  UNL     1      -7.665  11.950 -37.973  1.00  0.00    -0.263 OA
BRANCH   9  25
HETATM   25  O1  UNL     1      -7.525  12.095 -35.160  1.00  0.00    -0.344 OA
ATOM     26  H1  UNL     1      -7.855  12.002 -34.274  1.00  0.00     0.219 HD
ENDBRANCH   9  25
ENDBRANCH   7   9
ENDBRANCH   1   7
BRANCH   2  27
HETATM   27  O2  UNL     1      -6.193  15.991 -34.636  1.00  0.00    -0.304 OA
BRANCH  27  28
HETATM   28  C7  UNL     1      -7.116  16.832 -35.218  1.00  0.00     0.151 C 
HETATM   29  N5  UNL     1      -7.540  16.547 -36.398  1.00  0.00    -0.357 N 
HETATM   30  C8  UNL     1      -8.519  17.409 -37.054  1.00  0.00     0.240 C 
ATOM     31  H5  UNL     1      -7.192  15.716 -36.878  1.00  0.00     0.163 HD
HETATM   32  N6  UNL     1      -9.556  17.747 -36.139  1.00  0.00    -0.391 N 
HETATM   33  C9  UNL     1      -9.161  18.009 -34.795  1.00  0.00     0.218 C 
ATOM     34  H6  UNL     1     -10.533  17.797 -36.431  1.00  0.00     0.155 HD
HETATM   35  C11 UNL     1      -7.666  18.054 -34.583  1.00  0.00     0.289 C 
BRANCH  33  36
HETATM   36  C10 UNL     1      -9.856  19.182 -34.275  1.00  0.00     0.199 C 
HETATM   37  O3  UNL     1     -10.073  20.198 -34.972  1.00  0.00    -0.646 OA
HETATM   38  O4  UNL     1     -10.296  19.185 -32.964  1.00  0.00    -0.646 OA
ENDBRANCH  33  36
BRANCH  35  39
HETATM   39  N7  UNL     1      -7.070  19.261 -35.058  1.00  0.00    -0.065 N 
ATOM     40  H73 UNL     1      -7.046  19.276 -36.077  1.00  0.00     0.275 HD
ATOM     41  H72 UNL     1      -7.684  20.057 -34.891  1.00  0.00     0.275 HD
ATOM     42  H71 UNL     1      -6.141  19.436 -34.672  1.00  0.00     0.275 HD
ENDBRANCH  35  39
ENDBRANCH  27  28
ENDBRANCH   2  27
BRANCH   6  43
HETATM   43  O7  UNL     1      -4.463  13.775 -32.025  1.00  0.00    -0.391 OA
ATOM     44  H7  UNL     1      -4.133  13.801 -31.135  1.00  0.00     0.210 HD
ENDBRANCH   6  43
BRANCH   5  45
HETATM   45  O6  UNL     1      -6.155  14.192 -29.589  1.00  0.00    -0.390 OA
ATOM     46  H6  UNL     1      -5.803  13.310 -29.557  1.00  0.00     0.210 HD
ENDBRANCH   5  45
BRANCH   4  47
HETATM   47  C13 UNL     1      -4.696  16.222 -30.201  1.00  0.00     0.264 C 
BRANCH  47  48
HETATM   48  N8  UNL     1      -5.197  16.832 -28.982  1.00  0.00    -0.077 N 
ATOM     49  H83 UNL     1      -6.194  17.036 -29.046  1.00  0.00     0.274 HD
ATOM     50  H82 UNL     1      -5.225  16.164 -28.211  1.00  0.00     0.274 HD
ATOM     51  H81 UNL     1      -4.657  17.662 -28.740  1.00  0.00     0.274 HD
ENDBRANCH  47  48
ENDBRANCH   4  47
TORSDOF 11
ENDMDL
MODEL 3
REMARK VINA RESULT: -8.381422390      2.212      7.607
REMARK  11 active torsions:
REMARK  status: ('A' for Active; 'I' for Inactive)
REMARK    1  A    between atoms: C4_11  and  O1_12 
REMARK    2  A    between atoms: C4_11  and  N4_14 
REMARK    3  A    between atoms: N4_14  and  C5_16 
REMARK    4  A    between atoms: C6_17  and  O2_18 
REMARK    5  A    between atoms: O2_18  and  C7_19 
REMARK    6  A    between atoms: C9_25  and  C10_26 
REMARK    7  A    between atoms: C11_29  and  N7_30 
REMARK    8  A    between atoms: C12_35  and  C13_36 
REMARK    9  A    between atoms: C13_36  and  N8_37 
REMARK   10  A    between atoms: C14_41  and  O6_42 
REMARK   11  A    between atoms: C15_44  and  O7_45 
ROOT
HETATM    1  C5  UNL     1      -6.412  14.139 -33.067  1.00  0.00     0.170 C 
HETATM    2  C6  UNL     1      -6.623  15.619 -32.915  1.00  0.00     0.293 C 
HETATM    3  O5  UNL     1      -5.641  16.221 -32.118  1.00  0.00    -0.349 OA
HETATM    4  C12 UNL     1      -5.950  15.883 -30.802  1.00  0.00     0.181 C 
HETATM    5  C14 UNL     1      -6.250  14.417 -30.648  1.00  0.00     0.179 C 
HETATM    6  C15 UNL     1      -5.640  13.688 -31.826  1.00  0.00     0.177 C 
ENDROOT
BRANCH   1   7
HETATM    7  N4  UNL     1      -5.667  13.796 -34.272  1.00  0.00    -0.357 N 
ATOM      8  H4  UNL     1      -4.681  14.034 -34.374  1.00  0.00     0.162 HD
BRANCH   7   9
HETATM    9  C4  UNL     1      -6.373  13.121 -35.293  1.00  0.00     0.170 C 
HETATM   10  C3  UNL     1      -5.991  13.264 -36.538  1.00  0.00     0.170 A 
HETATM   11  N3  UNL     1      -4.899  14.058 -37.013  1.00  0.00    -0.180 N 
HETATM   12  C16 UNL     1      -6.567  12.666 -37.751  1.00  0.00     0.314 A 
HETATM   13  C2  UNL     1      -4.801  13.975 -38.295  1.00  0.00     0.710 A 
ATOM     14  H3  UNL     1      -4.282  14.612 -36.418  1.00  0.00     0.184 HD
HETATM   15  N2  UNL     1      -3.996  14.468 -39.373  1.00  0.00    -0.158 N 
HETATM   16  N9  UNL     1      -5.786  13.139 -38.838  1.00  0.00    -0.043 N 
HETATM   17  C1  UNL     1      -4.511  13.918 -40.573  1.00  0.00     0.207 A 
ATOM     18  H2  UNL     1      -3.199  15.099 -39.291  1.00  0.00     0.187 HD
HETATM   19  N1  UNL     1      -4.083  14.101 -41.792  1.00  0.00    -0.369 N 
HETATM   20  N10 UNL     1      -5.619  13.095 -40.246  1.00  0.00    -0.246 N 
ATOM     21  H12 UNL     1      -3.286  14.692 -42.027  1.00  0.00     0.159 HD
ATOM     22  H11 UNL     1      -4.454  13.705 -42.656  1.00  0.00     0.159 HD
ATOM     23  H10 UNL     1      -6.192  12.567 -40.904  1.00  0.00     0.191 HD
HETATM   24  O8  UNL     1      -7.541  11.904 -37.771  1.00  0.00    -0.263 OA
BRANCH   9  25
HETATM   25  O1  UNL     1      -7.458  12.314 -34.982  1.00  0.00    -0.344 OA
ATOM     26  H1  UNL     1      -8.330  12.686 -34.925  1.00  0.00     0.219 HD
ENDBRANCH   9  25
ENDBRANCH   7   9
ENDBRANCH   1   7
BRANCH   2  27
HETATM   27  O2  UNL     1      -6.676  16.208 -34.191  1.00  0.00    -0.304 OA
BRANCH  27  28
HETATM   28  C7  UNL     1      -7.364  17.384 -34.387  1.00  0.00     0.151 C 
HETATM   29  N5  UNL     1      -7.560  18.151 -33.373  1.00  0.00    -0.357 N 
HETATM   30  C8  UNL     1      -8.285  19.409 -33.534  1.00  0.00     0.240 C 
ATOM     31  H5  UNL     1      -7.209  17.881 -32.454  1.00  0.00     0.163 HD
HETATM   32  N6  UNL     1      -7.812  20.096 -34.688  1.00  0.00    -0.391 N 
HETATM   33  C9  UNL     1      -7.511  19.295 -35.828  1.00  0.00     0.218 C 
ATOM     34  H6  UNL     1      -7.694  21.109 -34.698  1.00  0.00     0.155 HD
HETATM   35  C11 UNL     1      -7.903  17.842 -35.690  1.00  0.00     0.289 C 
BRANCH  33  36
HETATM   36  C10 UNL     1      -8.019  19.919 -37.044  1.00  0.00     0.199 C 
HETATM   37  O3  UNL     1      -7.339  20.002 -38.092  1.00  0.00    -0.646 OA
HETATM   38  O4  UNL     1      -9.298  20.445 -37.055  1.00  0.00    -0.646 OA
ENDBRANCH  33  36
BRANCH  35  39
HETATM   39  N7  UNL     1      -9.307  17.626 -35.835  1.00  0.00    -0.065 N 
ATOM     40  H73 UNL     1      -9.540  16.646 -35.678  1.00  0.00     0.275 HD
ATOM     41  H72 UNL     1      -9.819  18.048 -35.060  1.00  0.00     0.275 HD
ATOM     42  H71 UNL     1      -9.679  17.948 -36.729  1.00  0.00     0.275 HD
ENDBRANCH  35  39
ENDBRANCH  27  28
ENDBRANCH   2  27
BRANCH   6  43
HETATM   43  O7  UNL     1      -4.310  14.100 -32.027  1.00  0.00    -0.391 OA
ATOM     44  H7  UNL     1      -3.918  13.445 -32.591  1.00  0.00     0.210 HD
ENDBRANCH   6  43
BRANCH   5  45
HETATM   45  O6  UNL     1      -5.797  13.905 -29.434  1.00  0.00    -0.390 OA
ATOM     46  H6  UNL     1      -6.508  13.609 -28.877  1.00  0.00     0.210 HD
ENDBRANCH   5  45
BRANCH   4  47
HETATM   47  C13 UNL     1      -4.809  16.236 -29.892  1.00  0.00     0.264 C 
BRANCH  47  48
HETATM   48  N8  UNL     1      -5.294  16.709 -28.608  1.00  0.00    -0.077 N 
ATOM     49  H83 UNL     1      -4.664  17.398 -28.198  1.00  0.00     0.274 HD
ATOM     50  H82 UNL     1      -6.121  17.299 -28.712  1.00  0.00     0.274 HD
ATOM     51  H81 UNL     1      -5.466  15.930 -27.973  1.00  0.00     0.274 HD
ENDBRANCH  47  48
ENDBRANCH   4  47
TORSDOF 11
ENDMDL
MODEL 4
REMARK VINA RESULT: -8.351228262      2.886      8.055
REMARK  11 active torsions:
REMARK  status: ('A' for Active; 'I' for Inactive)
REMARK    1  A    between atoms: C4_11  and  O1_12 
REMARK    2  A    between atoms: C4_11  and  N4_14 
REMARK    3  A    between atoms: N4_14  and  C5_16 
REMARK    4  A    between atoms: C6_17  and  O2_18 
REMARK    5  A    between atoms: O2_18  and  C7_19 
REMARK    6  A    between atoms: C9_25  and  C10_26 
REMARK    7  A    between atoms: C11_29  and  N7_30 
REMARK    8  A    between atoms: C12_35  and  C13_36 
REMARK    9  A    between atoms: C13_36  and  N8_37 
REMARK   10  A    between atoms: C14_41  and  O6_42 
REMARK   11  A    between atoms: C15_44  and  O7_45 
ROOT
HETATM    1  C5  UNL     1      -6.607  14.069 -33.604  1.00  0.00     0.170 C 
HETATM    2  C6  UNL     1      -6.495  15.567 -33.562  1.00  0.00     0.293 C 
HETATM    3  O5  UNL     1      -5.420  16.001 -32.775  1.00  0.00    -0.349 OA
HETATM    4  C12 UNL     1      -5.819  15.837 -31.450  1.00  0.00     0.181 C 
HETATM    5  C14 UNL     1      -6.431  14.485 -31.206  1.00  0.00     0.179 C 
HETATM    6  C15 UNL     1      -5.974  13.556 -32.309  1.00  0.00     0.177 C 
ENDROOT
BRANCH   1   7
HETATM    7  N4  UNL     1      -5.933  13.485 -34.757  1.00  0.00    -0.357 N 
ATOM      8  H4  UNL     1      -5.161  13.964 -35.221  1.00  0.00     0.162 HD
BRANCH   7   9
HETATM    9  C4  UNL     1      -6.397  12.228 -35.202  1.00  0.00     0.170 C 
HETATM   10  C3  UNL     1      -5.615  11.181 -35.094  1.00  0.00     0.170 A 
HETATM   11  N3  UNL     1      -4.288  11.156 -34.558  1.00  0.00    -0.180 N 
HETATM   12  C16 UNL     1      -5.882   9.790 -35.485  1.00  0.00     0.314 A 
HETATM   13  C2  UNL     1      -3.804   9.963 -34.601  1.00  0.00     0.710 A 
ATOM     14  H3  UNL     1      -3.795  11.970 -34.191  1.00  0.00     0.184 HD
HETATM   15  N2  UNL     1      -2.613   9.244 -34.259  1.00  0.00    -0.158 N 
HETATM   16  N9  UNL     1      -4.714   9.052 -35.157  1.00  0.00    -0.043 N 
HETATM   17  C1  UNL     1      -2.817   7.888 -34.617  1.00  0.00     0.207 A 
ATOM     18  H2  UNL     1      -1.772   9.636 -33.836  1.00  0.00     0.187 HD
HETATM   19  N1  UNL     1      -1.993   6.886 -34.483  1.00  0.00    -0.369 N 
HETATM   20  N10 UNL     1      -4.117   7.766 -35.173  1.00  0.00    -0.246 N 
ATOM     21  H12 UNL     1      -1.059   6.974 -34.083  1.00  0.00     0.159 HD
ATOM     22  H11 UNL     1      -2.140   5.910 -34.741  1.00  0.00     0.159 HD
ATOM     23  H10 UNL     1      -4.544   6.908 -35.521  1.00  0.00     0.191 HD
HETATM   24  O8  UNL     1      -6.934   9.387 -35.997  1.00  0.00    -0.263 OA
BRANCH   9  25
HETATM   25  O1  UNL     1      -7.666  12.099 -35.747  1.00  0.00    -0.344 OA
ATOM     26  H1  UNL     1      -8.120  11.266 -35.710  1.00  0.00     0.219 HD
ENDBRANCH   9  25
ENDBRANCH   7   9
ENDBRANCH   1   7
BRANCH   2  27
HETATM   27  O2  UNL     1      -6.396  16.056 -34.876  1.00  0.00    -0.304 OA
BRANCH  27  28
HETATM   28  C7  UNL     1      -7.316  16.964 -35.352  1.00  0.00     0.151 C 
HETATM   29  N5  UNL     1      -7.886  16.720 -36.479  1.00  0.00    -0.357 N 
HETATM   30  C8  UNL     1      -8.869  17.654 -37.021  1.00  0.00     0.240 C 
ATOM     31  H5  UNL     1      -7.652  15.871 -36.995  1.00  0.00     0.163 HD
HETATM   32  N6  UNL     1      -9.773  18.054 -35.997  1.00  0.00    -0.391 N 
HETATM   33  C9  UNL     1      -9.216  18.276 -34.705  1.00  0.00     0.218 C 
ATOM     34  H6  UNL     1     -10.770  18.175 -36.179  1.00  0.00     0.155 HD
HETATM   35  C11 UNL     1      -7.707  18.215 -34.658  1.00  0.00     0.289 C 
BRANCH  33  36
HETATM   36  C10 UNL     1      -9.765  19.489 -34.109  1.00  0.00     0.199 C 
HETATM   37  O3  UNL     1      -9.631  20.617 -34.636  1.00  0.00    -0.646 OA
HETATM   38  O4  UNL     1     -10.462  19.406 -32.917  1.00  0.00    -0.646 OA
ENDBRANCH  33  36
BRANCH  35  39
HETATM   39  N7  UNL     1      -7.083  19.383 -35.194  1.00  0.00    -0.065 N 
ATOM     40  H73 UNL     1      -6.071  19.333 -35.086  1.00  0.00     0.275 HD
ATOM     41  H72 UNL     1      -7.145  19.390 -36.212  1.00  0.00     0.275 HD
ATOM     42  H71 UNL     1      -7.446  20.253 -34.805  1.00  0.00     0.275 HD
ENDBRANCH  35  39
ENDBRANCH  27  28
ENDBRANCH   2  27
BRANCH   6  43
HETATM   43  O7  UNL     1      -4.583  13.657 -32.493  1.00  0.00    -0.391 OA
ATOM     44  H7  UNL     1      -4.193  13.072 -31.855  1.00  0.00     0.210 HD
ENDBRANCH   6  43
BRANCH   5  45
HETATM   45  O6  UNL     1      -6.122  13.980 -29.945  1.00  0.00    -0.390 OA
ATOM     46  H6  UNL     1      -6.848  13.504 -29.557  1.00  0.00     0.210 HD
ENDBRANCH   5  45
BRANCH   4  47
HETATM   47  C13 UNL     1      -4.644  16.004 -30.530  1.00  0.00     0.264 C 
BRANCH  47  48
HETATM   48  N8  UNL     1      -5.024  16.722 -29.326  1.00  0.00    -0.077 N 
ATOM     49  H83 UNL     1      -5.946  17.148 -29.418  1.00  0.00     0.274 HD
ATOM     50  H82 UNL     1      -5.225  16.084 -28.555  1.00  0.00     0.274 HD
ATOM     51  H81 UNL     1      -4.315  17.409 -29.071  1.00  0.00     0.274 HD
ENDBRANCH  47  48
ENDBRANCH   4  47
TORSDOF 11
ENDMDL
MODEL 5
REMARK VINA RESULT: -8.255869547      3.564      6.956
REMARK  11 active torsions:
REMARK  status: ('A' for Active; 'I' for Inactive)
REMARK    1  A    between atoms: C4_11  and  O1_12 
REMARK    2  A    between atoms: C4_11  and  N4_14 
REMARK    3  A    between atoms: N4_14  and  C5_16 
REMARK    4  A    between atoms: C6_17  and  O2_18 
REMARK    5  A    between atoms: O2_18  and  C7_19 
REMARK    6  A    between atoms: C9_25  and  C10_26 
REMARK    7  A    between atoms: C11_29  and  N7_30 
REMARK    8  A    between atoms: C12_35  and  C13_36 
REMARK    9  A    between atoms: C13_36  and  N8_37 
REMARK   10  A    between atoms: C14_41  and  O6_42 
REMARK   11  A    between atoms: C15_44  and  O7_45 
ROOT
HETATM    1  C5  UNL     1      -5.975  12.823 -35.153  1.00  0.00     0.170 C 
HETATM    2  C6  UNL     1      -6.194  13.862 -34.090  1.00  0.00     0.293 C 
HETATM    3  O5  UNL     1      -7.426  14.516 -34.226  1.00  0.00    -0.349 OA
HETATM    4  C12 UNL     1      -7.276  15.407 -35.286  1.00  0.00     0.181 C 
HETATM    5  C14 UNL     1      -6.631  14.762 -36.482  1.00  0.00     0.179 C 
HETATM    6  C15 UNL     1      -6.807  13.264 -36.360  1.00  0.00     0.177 C 
ENDROOT
BRANCH   1   7
HETATM    7  N4  UNL     1      -6.377  11.488 -34.729  1.00  0.00    -0.357 N 
ATOM      8  H4  UNL     1      -7.354  11.259 -34.545  1.00  0.00     0.162 HD
BRANCH   7   9
HETATM    9  C4  UNL     1      -5.353  10.525 -34.585  1.00  0.00     0.170 C 
HETATM   10  C3  UNL     1      -5.184   9.940 -33.424  1.00  0.00     0.170 A 
HETATM   11  N3  UNL     1      -5.942  10.167 -32.232  1.00  0.00    -0.180 N 
HETATM   12  C16 UNL     1      -4.196   8.920 -33.045  1.00  0.00     0.314 A 
HETATM   13  C2  UNL     1      -5.511   9.425 -31.271  1.00  0.00     0.710 A 
ATOM     14  H3  UNL     1      -6.717  10.827 -32.154  1.00  0.00     0.184 HD
HETATM   15  N2  UNL     1      -5.777   9.143 -29.892  1.00  0.00    -0.158 N 
HETATM   16  N9  UNL     1      -4.437   8.622 -31.677  1.00  0.00    -0.043 N 
HETATM   17  C1  UNL     1      -4.847   8.160 -29.473  1.00  0.00     0.207 A 
ATOM     18  H2  UNL     1      -6.502   9.572 -29.317  1.00  0.00     0.187 HD
HETATM   19  N1  UNL     1      -4.728   7.613 -28.294  1.00  0.00    -0.369 N 
HETATM   20  N10 UNL     1      -4.016   7.835 -30.575  1.00  0.00    -0.246 N 
ATOM     21  H12 UNL     1      -5.326   7.846 -27.501  1.00  0.00     0.159 HD
ATOM     22  H11 UNL     1      -4.058   6.905 -27.992  1.00  0.00     0.159 HD
ATOM     23  H10 UNL     1      -3.253   7.157 -30.575  1.00  0.00     0.191 HD
HETATM   24  O8  UNL     1      -3.341   8.444 -33.802  1.00  0.00    -0.263 OA
BRANCH   9  25
HETATM   25  O1  UNL     1      -4.536  10.201 -35.657  1.00  0.00    -0.344 OA
ATOM     26  H1  UNL     1      -4.615  10.671 -36.479  1.00  0.00     0.219 HD
ENDBRANCH   9  25
ENDBRANCH   7   9
ENDBRANCH   1   7
BRANCH   2  27
HETATM   27  O2  UNL     1      -6.074  13.256 -32.827  1.00  0.00    -0.304 OA
BRANCH  27  28
HETATM   28  C7  UNL     1      -5.320  13.850 -31.839  1.00  0.00     0.151 C 
HETATM   29  N5  UNL     1      -4.137  14.257 -32.138  1.00  0.00    -0.357 N 
HETATM   30  C8  UNL     1      -3.303  14.893 -31.122  1.00  0.00     0.240 C 
ATOM     31  H5  UNL     1      -3.781  14.136 -33.087  1.00  0.00     0.163 HD
HETATM   32  N6  UNL     1      -4.069  15.846 -30.393  1.00  0.00    -0.391 N 
HETATM   33  C9  UNL     1      -5.413  15.485 -30.087  1.00  0.00     0.218 C 
ATOM     34  H6  UNL     1      -3.676  16.743 -30.105  1.00  0.00     0.155 HD
HETATM   35  C11 UNL     1      -5.771  14.060 -30.442  1.00  0.00     0.289 C 
BRANCH  33  36
HETATM   36  C10 UNL     1      -5.740  15.839 -28.711  1.00  0.00     0.199 C 
HETATM   37  O3  UNL     1      -5.236  16.829 -28.134  1.00  0.00    -0.646 OA
HETATM   38  O4  UNL     1      -6.638  15.060 -28.004  1.00  0.00    -0.646 OA
ENDBRANCH  33  36
BRANCH  35  39
HETATM   39  N7  UNL     1      -5.241  13.105 -29.522  1.00  0.00    -0.065 N 
ATOM     40  H73 UNL     1      -5.631  13.246 -28.591  1.00  0.00     0.275 HD
ATOM     41  H72 UNL     1      -5.605  12.173 -29.720  1.00  0.00     0.275 HD
ATOM     42  H71 UNL     1      -4.221  13.094 -29.489  1.00  0.00     0.275 HD
ENDBRANCH  35  39
ENDBRANCH  27  28
ENDBRANCH   2  27
BRANCH   6  43
HETATM   43  O7  UNL     1      -8.141  12.948 -36.045  1.00  0.00    -0.391 OA
ATOM     44  H7  UNL     1      -8.377  12.222 -36.610  1.00  0.00     0.210 HD
ENDBRANCH   6  43
BRANCH   5  45
HETATM   45  O6  UNL     1      -7.139  15.244 -37.687  1.00  0.00    -0.390 OA
ATOM     46  H6  UNL     1      -7.056  16.188 -37.764  1.00  0.00     0.210 HD
ENDBRANCH   5  45
BRANCH   4  47
HETATM   47  C13 UNL     1      -8.612  15.953 -35.699  1.00  0.00     0.264 C 
BRANCH  47  48
HETATM   48  N8  UNL     1      -8.541  17.385 -35.928  1.00  0.00    -0.077 N 
ATOM     49  H83 UNL     1      -7.677  17.782 -35.562  1.00  0.00     0.274 HD
ATOM     50  H82 UNL     1      -8.405  17.602 -36.916  1.00  0.00     0.274 HD
ATOM     51  H81 UNL     1      -9.363  17.857 -35.550  1.00  0.00     0.274 HD
ENDBRANCH  47  48
ENDBRANCH   4  47
TORSDOF 11
ENDMDL
