MODEL 1
REMARK VINA RESULT: -6.790366992      0.000      0.000
REMARK  2 active torsions:
REMARK  status: ('A' for Active; 'I' for Inactive)
REMARK       I    between atoms: C1_4  and  N3_6 
REMARK    1  A    between atoms: N4_9  and  C4_10 
REMARK    2  A    between atoms: C4_10  and  C5_11 
REMARK       I    between atoms: C5_11  and  N5_13 
ROOT
HETATM    1  N1  UNL     1      16.375   8.288  20.377  1.00  0.00    -0.374 N 
ATOM      2  H11 UNL     1      16.047   8.938  21.092  1.00  0.00     0.158 HD
ATOM      3  H12 UNL     1      15.824   7.470  20.118  1.00  0.00     0.158 HD
HETATM    4  C1  UNL     1      17.509   8.537  19.813  1.00  0.00     0.184 C 
HETATM    5  N2  UNL     1      17.962   7.639  18.826  1.00  0.00    -0.064 NA
HETATM    6  N3  UNL     1      18.271   9.670  20.171  1.00  0.00    -0.353 N 
HETATM    7  C2  UNL     1      18.008  10.396  21.398  1.00  0.00     0.156 C 
HETATM    8  C3  UNL     1      19.009  11.531  21.480  1.00  0.00     0.293 C 
HETATM    9  N4  UNL     1      20.379  11.057  21.390  1.00  0.00     0.100 N 
HETATM   10  C12 UNL     1      20.619  10.371  20.135  1.00  0.00     0.293 C 
HETATM   11  C13 UNL     1      19.347  10.167  19.340  1.00  0.00     0.156 C 
ENDROOT
BRANCH   9  12
HETATM   12  C4  UNL     1      21.223  12.259  21.393  1.00  0.00     0.374 C 
BRANCH  12  13
HETATM   13  C5  UNL     1      22.620  11.850  21.661  1.00  0.00     0.248 C 
HETATM   14  O1  UNL     1      22.902  11.165  22.688  1.00  0.00    -0.271 OA
HETATM   15  N5  UNL     1      23.658  12.221  20.774  1.00  0.00    -0.351 N 
HETATM   16  C6  UNL     1      25.000  11.786  21.089  1.00  0.00     0.126 C 
HETATM   17  C11 UNL     1      23.249  13.006  19.640  1.00  0.00     0.126 C 
HETATM   18  C7  UNL     1      25.513  10.712  20.188  1.00  0.00     0.020 C 
HETATM   19  C8  UNL     1      25.982  11.219  18.852  1.00  0.00     0.002 C 
HETATM   20  C9  UNL     1      25.360  12.541  18.480  1.00  0.00     0.002 C 
HETATM   21  C10 UNL     1      23.861  12.460  18.366  1.00  0.00     0.020 C 
ENDBRANCH  12  13
ENDBRANCH   9  12
TORSDOF 2
ENDMDL
MODEL 2
REMARK VINA RESULT: -6.785461778      1.851      2.312
REMARK  2 active torsions:
REMARK  status: ('A' for Active; 'I' for Inactive)
REMARK       I    between atoms: C1_4  and  N3_6 
REMARK    1  A    between atoms: N4_9  and  C4_10 
REMARK    2  A    between atoms: C4_10  and  C5_11 
REMARK       I    between atoms: C5_11  and  N5_13 
ROOT
HETATM    1  N1  UNL     1      14.468   8.336  22.067  1.00  0.00    -0.374 N 
ATOM      2  H11 UNL     1      14.373   8.774  22.984  1.00  0.00     0.158 HD
ATOM      3  H12 UNL     1      13.777   7.666  21.729  1.00  0.00     0.158 HD
HETATM    4  C1  UNL     1      15.491   8.661  21.349  1.00  0.00     0.184 C 
HETATM    5  N2  UNL     1      15.622   8.057  20.083  1.00  0.00    -0.064 NA
HETATM    6  N3  UNL     1      16.447   9.588  21.815  1.00  0.00    -0.353 N 
HETATM    7  C2  UNL     1      16.526   9.946  23.218  1.00  0.00     0.156 C 
HETATM    8  C3  UNL     1      17.659  10.939  23.373  1.00  0.00     0.293 C 
HETATM    9  N4  UNL     1      18.913  10.420  22.855  1.00  0.00     0.100 N 
HETATM   10  C12 UNL     1      18.812  10.110  21.441  1.00  0.00     0.293 C 
HETATM   11  C13 UNL     1      17.393  10.230  20.928  1.00  0.00     0.156 C 
ENDROOT
BRANCH   9  12
HETATM   12  C4  UNL     1      19.887  11.511  22.988  1.00  0.00     0.374 C 
BRANCH  12  13
HETATM   13  C5  UNL     1      21.249  10.940  22.873  1.00  0.00     0.248 C 
HETATM   14  O1  UNL     1      21.664  10.095  23.721  1.00  0.00    -0.271 OA
HETATM   15  N5  UNL     1      22.103  11.333  21.816  1.00  0.00    -0.351 N 
HETATM   16  C6  UNL     1      23.418  10.735  21.757  1.00  0.00     0.126 C 
HETATM   17  C11 UNL     1      21.554  12.302  20.907  1.00  0.00     0.126 C 
HETATM   18  C7  UNL     1      23.584   9.754  20.644  1.00  0.00     0.020 C 
HETATM   19  C8  UNL     1      23.807  10.395  19.302  1.00  0.00     0.002 C 
HETATM   20  C9  UNL     1      23.285  11.809  19.240  1.00  0.00     0.002 C 
HETATM   21  C10 UNL     1      21.799  11.884  19.471  1.00  0.00     0.020 C 
ENDBRANCH  12  13
ENDBRANCH   9  12
TORSDOF 2
ENDMDL
MODEL 3
REMARK VINA RESULT: -6.608861951      4.934      6.753
REMARK  2 active torsions:
REMARK  status: ('A' for Active; 'I' for Inactive)
REMARK       I    between atoms: C1_4  and  N3_6 
REMARK    1  A    between atoms: N4_9  and  C4_10 
REMARK    2  A    between atoms: C4_10  and  C5_11 
REMARK       I    between atoms: C5_11  and  N5_13 
ROOT
HETATM    1  N1  UNL     1      19.451  13.668  29.954  1.00  0.00    -0.374 N 
ATOM      2  H11 UNL     1      19.019  12.751  30.072  1.00  0.00     0.158 HD
ATOM      3  H12 UNL     1      19.224  14.440  30.580  1.00  0.00     0.158 HD
HETATM    4  C1  UNL     1      20.293  13.816  28.986  1.00  0.00     0.184 C 
HETATM    5  N2  UNL     1      20.888  15.083  28.823  1.00  0.00    -0.064 NA
HETATM    6  N3  UNL     1      20.606  12.747  28.120  1.00  0.00    -0.353 N 
HETATM    7  C2  UNL     1      19.767  11.567  28.046  1.00  0.00     0.156 C 
HETATM    8  C3  UNL     1      20.375  10.638  27.016  1.00  0.00     0.293 C 
HETATM    9  N4  UNL     1      20.546  11.287  25.728  1.00  0.00     0.100 N 
HETATM   10  C12 UNL     1      21.422  12.438  25.829  1.00  0.00     0.293 C 
HETATM   11  C13 UNL     1      21.774  12.767  27.265  1.00  0.00     0.156 C 
ENDROOT
BRANCH   9  12
HETATM   12  C4  UNL     1      21.221  10.306  24.868  1.00  0.00     0.374 C 
BRANCH  12  13
HETATM   13  C5  UNL     1      20.503  10.247  23.574  1.00  0.00     0.248 C 
HETATM   14  O1  UNL     1      19.240  10.164  23.543  1.00  0.00    -0.271 OA
HETATM   15  N5  UNL     1      21.222  10.282  22.355  1.00  0.00    -0.351 N 
HETATM   16  C6  UNL     1      20.463  10.226  21.126  1.00  0.00     0.126 C 
HETATM   17  C11 UNL     1      22.651  10.368  22.484  1.00  0.00     0.126 C 
HETATM   18  C7  UNL     1      20.431  11.517  20.378  1.00  0.00     0.020 C 
HETATM   19  C8  UNL     1      21.688  11.795  19.600  1.00  0.00     0.002 C 
HETATM   20  C9  UNL     1      22.883  11.049  20.139  1.00  0.00     0.002 C 
HETATM   21  C10 UNL     1      23.206  11.431  21.558  1.00  0.00     0.020 C 
ENDBRANCH  12  13
ENDBRANCH   9  12
TORSDOF 2
ENDMDL
MODEL 4
REMARK VINA RESULT: -6.560863988      1.320      1.679
REMARK  2 active torsions:
REMARK  status: ('A' for Active; 'I' for Inactive)
REMARK       I    between atoms: C1_4  and  N3_6 
REMARK    1  A    between atoms: N4_9  and  C4_10 
REMARK    2  A    between atoms: C4_10  and  C5_11 
REMARK       I    between atoms: C5_11  and  N5_13 
ROOT
HETATM    1  N1  UNL     1      15.180   9.765  22.787  1.00  0.00    -0.374 N 
ATOM      2  H11 UNL     1      15.489  10.659  23.171  1.00  0.00     0.158 HD
ATOM      3  H12 UNL     1      14.352   9.295  23.152  1.00  0.00     0.158 HD
HETATM    4  C1  UNL     1      15.872   9.252  21.825  1.00  0.00     0.184 C 
HETATM    5  N2  UNL     1      15.445   8.019  21.296  1.00  0.00    -0.064 NA
HETATM    6  N3  UNL     1      17.017   9.904  21.320  1.00  0.00    -0.353 N 
HETATM    7  C2  UNL     1      17.666  10.967  22.062  1.00  0.00     0.156 C 
HETATM    8  C3  UNL     1      18.861  11.426  21.251  1.00  0.00     0.293 C 
HETATM    9  N4  UNL     1      19.761  10.331  20.937  1.00  0.00     0.100 N 
HETATM   10  C12 UNL     1      19.092   9.304  20.161  1.00  0.00     0.293 C 
HETATM   11  C13 UNL     1      17.603   9.552  20.045  1.00  0.00     0.156 C 
ENDROOT
BRANCH   9  12
HETATM   12  C4  UNL     1      20.810  10.902  20.083  1.00  0.00     0.374 C 
BRANCH  12  13
HETATM   13  C5  UNL     1      22.087  10.883  20.833  1.00  0.00     0.248 C 
HETATM   14  O1  UNL     1      22.149  10.351  21.980  1.00  0.00    -0.271 OA
HETATM   15  N5  UNL     1      23.253  11.461  20.276  1.00  0.00    -0.351 N 
HETATM   16  C6  UNL     1      24.468  11.405  21.057  1.00  0.00     0.126 C 
HETATM   17  C11 UNL     1      23.088  12.050  18.975  1.00  0.00     0.126 C 
HETATM   18  C7  UNL     1      25.485  10.453  20.521  1.00  0.00     0.020 C 
HETATM   19  C8  UNL     1      26.254  10.990  19.345  1.00  0.00     0.002 C 
HETATM   20  C9  UNL     1      25.515  12.084  18.617  1.00  0.00     0.002 C 
HETATM   21  C10 UNL     1      24.204  11.612  18.048  1.00  0.00     0.020 C 
ENDBRANCH  12  13
ENDBRANCH   9  12
TORSDOF 2
ENDMDL
MODEL 5
REMARK VINA RESULT: -6.449007681      4.309      6.328
REMARK  2 active torsions:
REMARK  status: ('A' for Active; 'I' for Inactive)
REMARK       I    between atoms: C1_4  and  N3_6 
REMARK    1  A    between atoms: N4_9  and  C4_10 
REMARK    2  A    between atoms: C4_10  and  C5_11 
REMARK       I    between atoms: C5_11  and  N5_13 
ROOT
HETATM    1  N1  UNL     1      15.496   8.009  20.050  1.00  0.00    -0.374 N 
ATOM      2  H11 UNL     1      14.857   8.355  20.767  1.00  0.00     0.158 HD
ATOM      3  H12 UNL     1      15.196   7.308  19.373  1.00  0.00     0.158 HD
HETATM    4  C1  UNL     1      16.695   8.489  20.031  1.00  0.00     0.184 C 
HETATM    5  N2  UNL     1      17.576   8.010  19.041  1.00  0.00    -0.064 NA
HETATM    6  N3  UNL     1      17.109   9.459  20.968  1.00  0.00    -0.353 N 
HETATM    7  C2  UNL     1      16.356   9.701  22.183  1.00  0.00     0.156 C 
HETATM    8  C3  UNL     1      17.081  10.779  22.962  1.00  0.00     0.293 C 
HETATM    9  N4  UNL     1      18.466  10.427  23.221  1.00  0.00     0.100 N 
HETATM   10  C12 UNL     1      19.201  10.232  21.986  1.00  0.00     0.293 C 
HETATM   11  C13 UNL     1      18.297  10.260  20.770  1.00  0.00     0.156 C 
ENDROOT
BRANCH   9  12
HETATM   12  C4  UNL     1      19.059  11.590  23.895  1.00  0.00     0.374 C 
BRANCH  12  13
HETATM   13  C5  UNL     1      19.833  11.109  25.063  1.00  0.00     0.248 C 
HETATM   14  O1  UNL     1      20.911  10.466  24.898  1.00  0.00    -0.271 OA
HETATM   15  N5  UNL     1      19.375  11.363  26.378  1.00  0.00    -0.351 N 
HETATM   16  C6  UNL     1      20.178  10.872  27.475  1.00  0.00     0.126 C 
HETATM   17  C11 UNL     1      18.139  12.091  26.471  1.00  0.00     0.126 C 
HETATM   18  C7  UNL     1      20.893  11.946  28.226  1.00  0.00     0.020 C 
HETATM   19  C8  UNL     1      20.015  12.693  29.192  1.00  0.00     0.002 C 
HETATM   20  C9  UNL     1      18.552  12.609  28.833  1.00  0.00     0.002 C 
HETATM   21  C10 UNL     1      18.256  13.210  27.485  1.00  0.00     0.020 C 
ENDBRANCH  12  13
ENDBRANCH   9  12
TORSDOF 2
ENDMDL
