MODEL 1
REMARK VINA RESULT: -9.510807535      0.000      0.000
REMARK  6 active torsions:
REMARK  status: ('A' for Active; 'I' for Inactive)
REMARK    1  A    between atoms: C2_2  and  O1_3 
REMARK    2  A    between atoms: O1_3  and  C3_4 
REMARK       I    between atoms: C3_4  and  N1_6 
REMARK    3  A    between atoms: N1_6  and  C4_8 
REMARK    4  A    between atoms: C4_8  and  C5_9 
REMARK    5  A    between atoms: C4_8  and  C12_22 
REMARK       I    between atoms: C5_9  and  N2_11 
REMARK    6  A    between atoms: C10_17  and  C11_18 
ROOT
HETATM    1  C4  UNL     1      40.055  66.116  40.219  1.00  0.00     0.183 C 
ENDROOT
BRANCH   1   2
HETATM    2  N1  UNL     1      38.791  66.731  39.771  1.00  0.00    -0.323 N 
HETATM    3  C3  UNL     1      37.788  66.999  40.725  1.00  0.00     0.361 C 
HETATM    4  O2  UNL     1      37.963  66.721  41.945  1.00  0.00    -0.238 OA
ATOM      5  H1  UNL     1      38.644  66.957  38.788  1.00  0.00     0.165 HD
BRANCH   3   6
HETATM    6  O1  UNL     1      36.569  67.575  40.399  1.00  0.00    -0.304 OA
BRANCH   6   7
HETATM    7  C2  UNL     1      35.590  66.843  39.690  1.00  0.00     0.176 C 
HETATM    8  C1  UNL     1      35.526  65.451  40.295  1.00  0.00     0.034 C 
ENDBRANCH   6   7
ENDBRANCH   3   6
ENDBRANCH   1   2
BRANCH   1   9
HETATM    9  C5  UNL     1      40.984  67.192  40.647  1.00  0.00     0.243 C 
HETATM   10  O3  UNL     1      40.729  68.398  40.264  1.00  0.00    -0.271 OA
HETATM   11  N2  UNL     1      42.137  67.028  41.450  1.00  0.00    -0.334 N 
HETATM   12  C6  UNL     1      42.577  65.799  42.016  1.00  0.00     0.164 C 
HETATM   13  C10 UNL     1      42.950  68.219  41.713  1.00  0.00     0.195 C 
HETATM   14  C7  UNL     1      43.088  65.865  43.425  1.00  0.00     0.188 C 
HETATM   15  F1  UNL     1      42.134  65.383  44.333  1.00  0.00    -0.248 F 
HETATM   16  C8  UNL     1      43.608  67.169  43.884  1.00  0.00     0.041 C 
HETATM   17  C9  UNL     1      43.028  68.365  43.200  1.00  0.00     0.037 C 
BRANCH  13  18
HETATM   18  C11 UNL     1      44.273  68.172  41.024  1.00  0.00     0.407 C 
HETATM   19  F2  UNL     1      44.667  69.494  40.820  1.00  0.00    -0.169 F 
HETATM   20  F3  UNL     1      45.270  67.563  41.720  1.00  0.00    -0.169 F 
HETATM   21  F4  UNL     1      44.096  67.635  39.763  1.00  0.00    -0.169 F 
ENDBRANCH  13  18
ENDBRANCH   1   9
BRANCH   1  22
HETATM   22  C12 UNL     1      40.660  65.412  39.022  1.00  0.00     0.018 C 
HETATM   23  C13 UNL     1      40.582  63.925  39.086  1.00  0.00     0.013 C 
HETATM   24  C14 UNL     1      39.151  63.536  38.687  1.00  0.00     0.079 C 
HETATM   25  C15 UNL     1      39.127  63.622  37.169  1.00  0.00     0.243 C 
HETATM   26  F5  UNL     1      39.718  62.444  36.716  1.00  0.00    -0.206 F 
HETATM   27  F6  UNL     1      37.845  63.627  36.675  1.00  0.00    -0.206 F 
HETATM   28  C16 UNL     1      39.945  64.802  36.706  1.00  0.00     0.079 C 
HETATM   29  C17 UNL     1      39.923  65.873  37.767  1.00  0.00     0.013 C 
ENDBRANCH   1  22
TORSDOF 6
ENDMDL
MODEL 2
REMARK VINA RESULT: -9.479120936      2.522      4.293
REMARK  6 active torsions:
REMARK  status: ('A' for Active; 'I' for Inactive)
REMARK    1  A    between atoms: C2_2  and  O1_3 
REMARK    2  A    between atoms: O1_3  and  C3_4 
REMARK       I    between atoms: C3_4  and  N1_6 
REMARK    3  A    between atoms: N1_6  and  C4_8 
REMARK    4  A    between atoms: C4_8  and  C5_9 
REMARK    5  A    between atoms: C4_8  and  C12_22 
REMARK       I    between atoms: C5_9  and  N2_11 
REMARK    6  A    between atoms: C10_17  and  C11_18 
ROOT
HETATM    1  C4  UNL     1      40.117  66.413  40.150  1.00  0.00     0.183 C 
ENDROOT
BRANCH   1   2
HETATM    2  N1  UNL     1      40.373  66.456  38.698  1.00  0.00    -0.323 N 
HETATM    3  C3  UNL     1      40.827  67.659  38.121  1.00  0.00     0.361 C 
HETATM    4  O2  UNL     1      41.015  68.688  38.830  1.00  0.00    -0.238 OA
ATOM      5  H1  UNL     1      40.223  65.629  38.121  1.00  0.00     0.165 HD
BRANCH   3   6
HETATM    6  O1  UNL     1      41.095  67.794  36.767  1.00  0.00    -0.304 OA
BRANCH   6   7
HETATM    7  C2  UNL     1      40.073  68.153  35.859  1.00  0.00     0.176 C 
HETATM    8  C1  UNL     1      40.681  68.185  34.467  1.00  0.00     0.034 C 
ENDBRANCH   6   7
ENDBRANCH   3   6
ENDBRANCH   1   2
BRANCH   1   9
HETATM    9  C5  UNL     1      41.319  65.871  40.831  1.00  0.00     0.243 C 
HETATM   10  O3  UNL     1      41.593  64.620  40.669  1.00  0.00    -0.271 OA
HETATM   11  N2  UNL     1      42.213  66.600  41.651  1.00  0.00    -0.334 N 
HETATM   12  C6  UNL     1      42.127  67.993  41.927  1.00  0.00     0.164 C 
HETATM   13  C10 UNL     1      43.313  65.857  42.274  1.00  0.00     0.195 C 
HETATM   14  C7  UNL     1      43.423  68.749  41.927  1.00  0.00     0.188 C 
HETATM   15  F1  UNL     1      43.580  69.485  40.744  1.00  0.00    -0.248 F 
HETATM   16  C8  UNL     1      44.647  67.971  42.204  1.00  0.00     0.041 C 
HETATM   17  C9  UNL     1      44.581  66.523  41.838  1.00  0.00     0.037 C 
BRANCH  13  18
HETATM   18  C11 UNL     1      43.154  65.734  43.753  1.00  0.00     0.407 C 
HETATM   19  F2  UNL     1      43.935  64.649  44.151  1.00  0.00    -0.169 F 
HETATM   20  F3  UNL     1      43.569  66.809  44.474  1.00  0.00    -0.169 F 
HETATM   21  F4  UNL     1      41.848  65.376  44.029  1.00  0.00    -0.169 F 
ENDBRANCH  13  18
ENDBRANCH   1   9
BRANCH   1  22
HETATM   22  C12 UNL     1      38.967  65.453  40.375  1.00  0.00     0.018 C 
HETATM   23  C13 UNL     1      38.039  65.858  41.469  1.00  0.00     0.013 C 
HETATM   24  C14 UNL     1      37.119  66.945  40.892  1.00  0.00     0.079 C 
HETATM   25  C15 UNL     1      36.076  66.190  40.084  1.00  0.00     0.243 C 
HETATM   26  F5  UNL     1      35.154  65.710  41.012  1.00  0.00    -0.206 F 
HETATM   27  F6  UNL     1      35.380  67.022  39.240  1.00  0.00    -0.206 F 
HETATM   28  C16 UNL     1      36.720  65.026  39.370  1.00  0.00     0.079 C 
HETATM   29  C17 UNL     1      38.163  65.353  39.082  1.00  0.00     0.013 C 
ENDBRANCH   1  22
TORSDOF 6
ENDMDL
MODEL 3
REMARK VINA RESULT: -9.357150714      1.929      2.446
REMARK  6 active torsions:
REMARK  status: ('A' for Active; 'I' for Inactive)
REMARK    1  A    between atoms: C2_2  and  O1_3 
REMARK    2  A    between atoms: O1_3  and  C3_4 
REMARK       I    between atoms: C3_4  and  N1_6 
REMARK    3  A    between atoms: N1_6  and  C4_8 
REMARK    4  A    between atoms: C4_8  and  C5_9 
REMARK    5  A    between atoms: C4_8  and  C12_22 
REMARK       I    between atoms: C5_9  and  N2_11 
REMARK    6  A    between atoms: C10_17  and  C11_18 
ROOT
HETATM    1  C4  UNL     1      40.695  66.858  38.646  1.00  0.00     0.183 C 
ENDROOT
BRANCH   1   2
HETATM    2  N1  UNL     1      39.491  66.346  39.326  1.00  0.00    -0.323 N 
HETATM    3  C3  UNL     1      39.367  64.958  39.540  1.00  0.00     0.361 C 
HETATM    4  O2  UNL     1      40.269  64.160  39.160  1.00  0.00    -0.238 OA
ATOM      5  H1  UNL     1      38.759  66.985  39.635  1.00  0.00     0.165 HD
BRANCH   3   6
HETATM    6  O1  UNL     1      38.272  64.385  40.170  1.00  0.00    -0.304 OA
BRANCH   6   7
HETATM    7  C2  UNL     1      37.434  65.155  41.008  1.00  0.00     0.176 C 
HETATM    8  C1  UNL     1      36.160  65.455  40.237  1.00  0.00     0.034 C 
ENDBRANCH   6   7
ENDBRANCH   3   6
ENDBRANCH   1   2
BRANCH   1   9
HETATM    9  C5  UNL     1      41.378  67.821  39.546  1.00  0.00     0.243 C 
HETATM   10  O3  UNL     1      41.287  69.078  39.267  1.00  0.00    -0.271 OA
HETATM   11  N2  UNL     1      42.129  67.495  40.701  1.00  0.00    -0.334 N 
HETATM   12  C6  UNL     1      42.320  66.182  41.215  1.00  0.00     0.164 C 
HETATM   13  C10 UNL     1      42.769  68.600  41.421  1.00  0.00     0.195 C 
HETATM   14  C7  UNL     1      42.241  66.038  42.706  1.00  0.00     0.188 C 
HETATM   15  F1  UNL     1      41.011  65.489  43.097  1.00  0.00    -0.248 F 
HETATM   16  C8  UNL     1      42.534  67.242  43.508  1.00  0.00     0.041 C 
HETATM   17  C9  UNL     1      42.261  68.545  42.828  1.00  0.00     0.037 C 
BRANCH  13  18
HETATM   18  C11 UNL     1      44.256  68.578  41.298  1.00  0.00     0.407 C 
HETATM   19  F2  UNL     1      44.658  69.890  41.052  1.00  0.00    -0.169 F 
HETATM   20  F3  UNL     1      44.926  68.158  42.404  1.00  0.00    -0.169 F 
HETATM   21  F4  UNL     1      44.594  67.864  40.164  1.00  0.00    -0.169 F 
ENDBRANCH  13  18
ENDBRANCH   1   9
BRANCH   1  22
HETATM   22  C12 UNL     1      40.232  67.604  37.412  1.00  0.00     0.018 C 
HETATM   23  C13 UNL     1      40.625  66.961  36.126  1.00  0.00     0.013 C 
HETATM   24  C14 UNL     1      39.643  65.804  35.889  1.00  0.00     0.079 C 
HETATM   25  C15 UNL     1      38.383  66.461  35.347  1.00  0.00     0.243 C 
HETATM   26  F5  UNL     1      38.634  66.704  33.999  1.00  0.00    -0.206 F 
HETATM   27  F6  UNL     1      37.302  65.613  35.394  1.00  0.00    -0.206 F 
HETATM   28  C16 UNL     1      38.140  67.771  36.056  1.00  0.00     0.079 C 
HETATM   29  C17 UNL     1      38.709  67.699  37.450  1.00  0.00     0.013 C 
ENDBRANCH   1  22
TORSDOF 6
ENDMDL
MODEL 4
REMARK VINA RESULT: -9.317037395      2.111      3.522
REMARK  6 active torsions:
REMARK  status: ('A' for Active; 'I' for Inactive)
REMARK    1  A    between atoms: C2_2  and  O1_3 
REMARK    2  A    between atoms: O1_3  and  C3_4 
REMARK       I    between atoms: C3_4  and  N1_6 
REMARK    3  A    between atoms: N1_6  and  C4_8 
REMARK    4  A    between atoms: C4_8  and  C5_9 
REMARK    5  A    between atoms: C4_8  and  C12_22 
REMARK       I    between atoms: C5_9  and  N2_11 
REMARK    6  A    between atoms: C10_17  and  C11_18 
ROOT
HETATM    1  C4  UNL     1      40.156  67.040  39.391  1.00  0.00     0.183 C 
ENDROOT
BRANCH   1   2
HETATM    2  N1  UNL     1      40.388  65.584  39.435  1.00  0.00    -0.323 N 
HETATM    3  C3  UNL     1      40.306  64.843  38.238  1.00  0.00     0.361 C 
HETATM    4  O2  UNL     1      40.038  65.411  37.142  1.00  0.00    -0.238 OA
ATOM      5  H1  UNL     1      40.604  65.119  40.317  1.00  0.00     0.165 HD
BRANCH   3   6
HETATM    6  O1  UNL     1      40.509  63.473  38.181  1.00  0.00    -0.304 OA
BRANCH   6   7
HETATM    7  C2  UNL     1      39.469  62.573  38.507  1.00  0.00     0.176 C 
HETATM    8  C1  UNL     1      39.723  62.066  39.917  1.00  0.00     0.034 C 
ENDBRANCH   6   7
ENDBRANCH   3   6
ENDBRANCH   1   2
BRANCH   1   9
HETATM    9  C5  UNL     1      41.337  67.729  39.968  1.00  0.00     0.243 C 
HETATM   10  O3  UNL     1      41.605  68.920  39.549  1.00  0.00    -0.271 OA
HETATM   11  N2  UNL     1      42.211  67.206  40.950  1.00  0.00    -0.334 N 
HETATM   12  C6  UNL     1      42.076  65.937  41.580  1.00  0.00     0.164 C 
HETATM   13  C10 UNL     1      43.354  68.035  41.345  1.00  0.00     0.195 C 
HETATM   14  C7  UNL     1      42.352  65.897  43.054  1.00  0.00     0.188 C 
HETATM   15  F1  UNL     1      41.160  65.849  43.791  1.00  0.00    -0.248 F 
HETATM   16  C8  UNL     1      43.237  66.948  43.594  1.00  0.00     0.041 C 
HETATM   17  C9  UNL     1      43.250  68.230  42.825  1.00  0.00     0.037 C 
BRANCH  13  18
HETATM   18  C11 UNL     1      44.656  67.470  40.884  1.00  0.00     0.407 C 
HETATM   19  F2  UNL     1      45.486  67.409  42.003  1.00  0.00    -0.169 F 
HETATM   20  F3  UNL     1      44.595  66.214  40.365  1.00  0.00    -0.169 F 
HETATM   21  F4  UNL     1      45.251  68.375  40.025  1.00  0.00    -0.169 F 
ENDBRANCH  13  18
ENDBRANCH   1   9
BRANCH   1  22
HETATM   22  C12 UNL     1      38.957  67.330  40.270  1.00  0.00     0.018 C 
HETATM   23  C13 UNL     1      37.777  67.867  39.535  1.00  0.00     0.013 C 
HETATM   24  C14 UNL     1      37.089  66.669  38.862  1.00  0.00     0.079 C 
HETATM   25  C15 UNL     1      36.286  66.003  39.968  1.00  0.00     0.243 C 
HETATM   26  F5  UNL     1      35.127  66.765  40.104  1.00  0.00    -0.206 F 
HETATM   27  F6  UNL     1      35.879  64.739  39.617  1.00  0.00    -0.206 F 
HETATM   28  C16 UNL     1      37.062  66.037  41.262  1.00  0.00     0.079 C 
HETATM   29  C17 UNL     1      38.539  66.033  40.959  1.00  0.00     0.013 C 
ENDBRANCH   1  22
TORSDOF 6
ENDMDL
MODEL 5
REMARK VINA RESULT: -9.130768667      2.315      4.212
REMARK  6 active torsions:
REMARK  status: ('A' for Active; 'I' for Inactive)
REMARK    1  A    between atoms: C2_2  and  O1_3 
REMARK    2  A    between atoms: O1_3  and  C3_4 
REMARK       I    between atoms: C3_4  and  N1_6 
REMARK    3  A    between atoms: N1_6  and  C4_8 
REMARK    4  A    between atoms: C4_8  and  C5_9 
REMARK    5  A    between atoms: C4_8  and  C12_22 
REMARK       I    between atoms: C5_9  and  N2_11 
REMARK    6  A    between atoms: C10_17  and  C11_18 
ROOT
HETATM    1  C4  UNL     1      40.478  66.674  39.734  1.00  0.00     0.183 C 
ENDROOT
BRANCH   1   2
HETATM    2  N1  UNL     1      40.014  65.665  38.763  1.00  0.00    -0.323 N 
HETATM    3  C3  UNL     1      40.160  65.926  37.386  1.00  0.00     0.361 C 
HETATM    4  O2  UNL     1      40.681  67.004  36.982  1.00  0.00    -0.238 OA
ATOM      5  H1  UNL     1      39.593  64.793  39.083  1.00  0.00     0.165 HD
BRANCH   3   6
HETATM    6  O1  UNL     1      39.755  65.038  36.400  1.00  0.00    -0.304 OA
BRANCH   6   7
HETATM    7  C2  UNL     1      38.760  64.069  36.664  1.00  0.00     0.176 C 
HETATM    8  C1  UNL     1      39.442  62.713  36.731  1.00  0.00     0.034 C 
ENDBRANCH   6   7
ENDBRANCH   3   6
ENDBRANCH   1   2
BRANCH   1   9
HETATM    9  C5  UNL     1      41.528  66.065  40.589  1.00  0.00     0.243 C 
HETATM   10  O3  UNL     1      41.720  64.792  40.496  1.00  0.00    -0.271 OA
HETATM   11  N2  UNL     1      42.357  66.752  41.507  1.00  0.00    -0.334 N 
HETATM   12  C6  UNL     1      42.347  68.157  41.734  1.00  0.00     0.164 C 
HETATM   13  C10 UNL     1      43.298  65.950  42.296  1.00  0.00     0.195 C 
HETATM   14  C7  UNL     1      43.687  68.811  41.897  1.00  0.00     0.188 C 
HETATM   15  F1  UNL     1      44.064  69.491  40.730  1.00  0.00    -0.248 F 
HETATM   16  C8  UNL     1      44.795  67.952  42.360  1.00  0.00     0.041 C 
HETATM   17  C9  UNL     1      44.663  66.501  42.024  1.00  0.00     0.037 C 
BRANCH  13  18
HETATM   18  C11 UNL     1      42.929  65.892  43.740  1.00  0.00     0.407 C 
HETATM   19  F2  UNL     1      43.539  64.752  44.264  1.00  0.00    -0.169 F 
HETATM   20  F3  UNL     1      43.345  66.947  44.490  1.00  0.00    -0.169 F 
HETATM   21  F4  UNL     1      41.569  65.667  43.840  1.00  0.00    -0.169 F 
ENDBRANCH  13  18
ENDBRANCH   1   9
BRANCH   1  22
HETATM   22  C12 UNL     1      39.296  67.030  40.611  1.00  0.00     0.018 C 
HETATM   23  C13 UNL     1      38.255  67.849  39.928  1.00  0.00     0.013 C 
HETATM   24  C14 UNL     1      37.423  66.885  39.069  1.00  0.00     0.079 C 
HETATM   25  C15 UNL     1      36.468  66.212  40.042  1.00  0.00     0.243 C 
HETATM   26  F5  UNL     1      35.439  67.126  40.254  1.00  0.00    -0.206 F 
HETATM   27  F6  UNL     1      35.887  65.092  39.498  1.00  0.00    -0.206 F 
HETATM   28  C16 UNL     1      37.172  65.939  41.349  1.00  0.00     0.079 C 
HETATM   29  C17 UNL     1      38.644  65.736  41.091  1.00  0.00     0.013 C 
ENDBRANCH   1  22
TORSDOF 6
ENDMDL
