MODEL 1
REMARK VINA RESULT: -9.903765918      0.000      0.000
REMARK  4 active torsions:
REMARK  status: ('A' for Active; 'I' for Inactive)
REMARK       I    between atoms: C1_2  and  N1_3 
REMARK    1  A    between atoms: C1_2  and  C8_16 
REMARK    2  A    between atoms: N1_3  and  C2_5 
REMARK    3  A    between atoms: C11_19  and  N2_20 
REMARK    4  A    between atoms: C15_25  and  C16_26 
ROOT
HETATM    1  O1  UNL     1      40.083  68.755  40.218  1.00  0.00    -0.273 OA
HETATM    2  C1  UNL     1      40.682  68.162  39.294  1.00  0.00     0.226 C 
HETATM    3  N1  UNL     1      41.874  67.435  39.626  1.00  0.00    -0.322 N 
ATOM      4  H1  UNL     1      42.378  66.944  38.887  1.00  0.00     0.169 HD
ENDROOT
BRANCH   2   5
HETATM    5  C8  UNL     1      40.172  68.212  37.905  1.00  0.00     0.078 C 
HETATM    6  C9  UNL     1      40.950  67.264  37.061  1.00  0.00     0.016 C 
HETATM    7  C10 UNL     1      40.520  67.200  35.632  1.00  0.00     0.026 C 
HETATM    8  C11 UNL     1      39.067  67.383  35.369  1.00  0.00     0.084 C 
HETATM    9  C17 UNL     1      38.262  68.052  36.425  1.00  0.00     0.026 C 
HETATM   10  C18 UNL     1      38.703  67.868  37.828  1.00  0.00     0.016 C 
BRANCH   8  11
HETATM   11  N2  UNL     1      38.384  66.228  34.901  1.00  0.00    -0.378 N 
HETATM   12  C12 UNL     1      37.688  66.287  33.682  1.00  0.00     0.085 C 
HETATM   13  C13 UNL     1      36.211  65.957  33.823  1.00  0.00     0.212 C 
HETATM   14  O2  UNL     1      35.959  64.866  34.610  1.00  0.00    -0.384 OA
HETATM   15  C14 UNL     1      37.057  64.269  35.165  1.00  0.00     0.195 C 
HETATM   16  C15 UNL     1      37.987  65.262  35.854  1.00  0.00     0.136 C 
BRANCH  16  17
HETATM   17  C16 UNL     1      39.129  64.449  36.422  1.00  0.00     0.249 C 
HETATM   18  F6  UNL     1      39.060  64.553  37.797  1.00  0.00    -0.253 F 
ENDBRANCH  16  17
ENDBRANCH   8  11
ENDBRANCH   2   5
BRANCH   3  19
HETATM   19  C2  UNL     1      42.363  67.381  40.942  1.00  0.00     0.119 A 
HETATM   20  C3  UNL     1      43.293  68.307  41.356  1.00  0.00     0.188 A 
HETATM   21  F1  UNL     1      43.750  69.271  40.520  1.00  0.00    -0.200 F 
HETATM   22  C4  UNL     1      43.791  68.270  42.665  1.00  0.00     0.199 A 
HETATM   23  F2  UNL     1      44.714  69.195  43.060  1.00  0.00    -0.199 F 
HETATM   24  C5  UNL     1      43.352  67.312  43.532  1.00  0.00     0.199 A 
HETATM   25  F3  UNL     1      43.824  67.263  44.801  1.00  0.00    -0.199 F 
HETATM   26  C6  UNL     1      42.420  66.374  43.136  1.00  0.00     0.199 A 
HETATM   27  F4  UNL     1      41.983  65.421  43.997  1.00  0.00    -0.199 F 
HETATM   28  C7  UNL     1      41.932  66.423  41.827  1.00  0.00     0.188 A 
HETATM   29  F5  UNL     1      41.016  65.493  41.454  1.00  0.00    -0.200 F 
ENDBRANCH   3  19
TORSDOF 4
ENDMDL
MODEL 2
REMARK VINA RESULT: -9.873241624      0.067      2.010
REMARK  4 active torsions:
REMARK  status: ('A' for Active; 'I' for Inactive)
REMARK       I    between atoms: C1_2  and  N1_3 
REMARK    1  A    between atoms: C1_2  and  C8_16 
REMARK    2  A    between atoms: N1_3  and  C2_5 
REMARK    3  A    between atoms: C11_19  and  N2_20 
REMARK    4  A    between atoms: C15_25  and  C16_26 
ROOT
HETATM    1  O1  UNL     1      40.078  68.789  40.269  1.00  0.00    -0.273 OA
HETATM    2  C1  UNL     1      40.662  68.192  39.338  1.00  0.00     0.226 C 
HETATM    3  N1  UNL     1      41.859  67.466  39.652  1.00  0.00    -0.322 N 
ATOM      4  H1  UNL     1      42.351  66.973  38.907  1.00  0.00     0.169 HD
ENDROOT
BRANCH   2   5
HETATM    5  C8  UNL     1      40.128  68.237  37.957  1.00  0.00     0.078 C 
HETATM    6  C9  UNL     1      40.931  67.331  37.090  1.00  0.00     0.016 C 
HETATM    7  C10 UNL     1      40.482  67.266  35.668  1.00  0.00     0.026 C 
HETATM    8  C11 UNL     1      39.019  67.392  35.429  1.00  0.00     0.084 C 
HETATM    9  C17 UNL     1      38.204  68.015  36.505  1.00  0.00     0.026 C 
HETATM   10  C18 UNL     1      38.674  67.834  37.898  1.00  0.00     0.016 C 
BRANCH   8  11
HETATM   11  N2  UNL     1      38.376  66.215  34.958  1.00  0.00    -0.378 N 
HETATM   12  C12 UNL     1      37.686  66.250  33.734  1.00  0.00     0.085 C 
HETATM   13  C13 UNL     1      36.220  65.874  33.867  1.00  0.00     0.212 C 
HETATM   14  O2  UNL     1      35.999  64.775  34.653  1.00  0.00    -0.384 OA
HETATM   15  C14 UNL     1      37.112  64.215  35.215  1.00  0.00     0.195 C 
HETATM   16  C15 UNL     1      38.005  65.237  35.909  1.00  0.00     0.136 C 
BRANCH  16  17
HETATM   17  C16 UNL     1      39.169  64.462  36.484  1.00  0.00     0.249 C 
HETATM   18  F6  UNL     1      39.038  64.487  37.858  1.00  0.00    -0.253 F 
ENDBRANCH  16  17
ENDBRANCH   8  11
ENDBRANCH   2   5
BRANCH   3  19
HETATM   19  C2  UNL     1      42.371  67.418  40.959  1.00  0.00     0.119 A 
HETATM   20  C3  UNL     1      41.918  66.452  41.829  1.00  0.00     0.188 A 
HETATM   21  F1  UNL     1      40.985  65.545  41.451  1.00  0.00    -0.200 F 
HETATM   22  C4  UNL     1      42.418  66.389  43.136  1.00  0.00     0.199 A 
HETATM   23  F2  UNL     1      41.958  65.426  43.986  1.00  0.00    -0.199 F 
HETATM   24  C5  UNL     1      43.358  67.289  43.548  1.00  0.00     0.199 A 
HETATM   25  F3  UNL     1      43.852  67.240  44.809  1.00  0.00    -0.199 F 
HETATM   26  C6  UNL     1      43.826  68.265  42.692  1.00  0.00     0.199 A 
HETATM   27  F4  UNL     1      44.759  69.160  43.100  1.00  0.00    -0.199 F 
HETATM   28  C7  UNL     1      43.318  68.317  41.390  1.00  0.00     0.188 A 
HETATM   29  F5  UNL     1      43.787  69.283  40.562  1.00  0.00    -0.200 F 
ENDBRANCH   3  19
TORSDOF 4
ENDMDL
MODEL 3
REMARK VINA RESULT: -9.532825127      2.804      8.453
REMARK  4 active torsions:
REMARK  status: ('A' for Active; 'I' for Inactive)
REMARK       I    between atoms: C1_2  and  N1_3 
REMARK    1  A    between atoms: C1_2  and  C8_16 
REMARK    2  A    between atoms: N1_3  and  C2_5 
REMARK    3  A    between atoms: C11_19  and  N2_20 
REMARK    4  A    between atoms: C15_25  and  C16_26 
ROOT
HETATM    1  O1  UNL     1      37.185  66.258  38.418  1.00  0.00    -0.273 OA
HETATM    2  C1  UNL     1      38.404  65.988  38.490  1.00  0.00     0.226 C 
HETATM    3  N1  UNL     1      39.118  65.774  37.264  1.00  0.00    -0.322 N 
ATOM      4  H1  UNL     1      40.113  65.552  37.300  1.00  0.00     0.169 HD
ENDROOT
BRANCH   2   5
HETATM    5  C8  UNL     1      39.083  65.894  39.802  1.00  0.00     0.078 C 
HETATM    6  C9  UNL     1      40.379  65.182  39.636  1.00  0.00     0.016 C 
HETATM    7  C10 UNL     1      41.180  65.037  40.888  1.00  0.00     0.026 C 
HETATM    8  C11 UNL     1      41.084  66.153  41.868  1.00  0.00     0.084 C 
HETATM    9  C17 UNL     1      39.905  67.053  41.763  1.00  0.00     0.026 C 
HETATM   10  C18 UNL     1      39.328  67.254  40.413  1.00  0.00     0.016 C 
BRANCH   8  11
HETATM   11  N2  UNL     1      42.267  66.924  42.028  1.00  0.00    -0.378 N 
HETATM   12  C12 UNL     1      42.577  67.914  41.081  1.00  0.00     0.085 C 
HETATM   13  C13 UNL     1      43.926  67.699  40.415  1.00  0.00     0.212 C 
HETATM   14  O2  UNL     1      44.927  67.363  41.286  1.00  0.00    -0.384 OA
HETATM   15  C14 UNL     1      44.556  67.243  42.597  1.00  0.00     0.195 C 
HETATM   16  C15 UNL     1      43.322  66.368  42.786  1.00  0.00     0.136 C 
BRANCH  16  17
HETATM   17  C16 UNL     1      43.058  66.325  44.275  1.00  0.00     0.249 C 
HETATM   18  F6  UNL     1      42.663  65.039  44.583  1.00  0.00    -0.253 F 
ENDBRANCH  16  17
ENDBRANCH   8  11
ENDBRANCH   2   5
BRANCH   3  19
HETATM   19  C2  UNL     1      38.481  65.863  36.014  1.00  0.00     0.119 A 
HETATM   20  C3  UNL     1      38.641  66.998  35.252  1.00  0.00     0.188 A 
HETATM   21  F1  UNL     1      39.400  68.035  35.682  1.00  0.00    -0.200 F 
HETATM   22  C4  UNL     1      38.015  67.103  34.003  1.00  0.00     0.199 A 
HETATM   23  F2  UNL     1      38.183  68.235  33.260  1.00  0.00    -0.199 F 
HETATM   24  C5  UNL     1      37.243  66.076  33.542  1.00  0.00     0.199 A 
HETATM   25  F3  UNL     1      36.631  66.163  32.336  1.00  0.00    -0.199 F 
HETATM   26  C6  UNL     1      37.069  64.930  34.291  1.00  0.00     0.199 A 
HETATM   27  F4  UNL     1      36.302  63.909  33.834  1.00  0.00    -0.199 F 
HETATM   28  C7  UNL     1      37.700  64.839  35.535  1.00  0.00     0.188 A 
HETATM   29  F5  UNL     1      37.519  63.706  36.259  1.00  0.00    -0.200 F 
ENDBRANCH   3  19
TORSDOF 4
ENDMDL
MODEL 4
REMARK VINA RESULT: -9.512625293      2.798      8.687
REMARK  4 active torsions:
REMARK  status: ('A' for Active; 'I' for Inactive)
REMARK       I    between atoms: C1_2  and  N1_3 
REMARK    1  A    between atoms: C1_2  and  C8_16 
REMARK    2  A    between atoms: N1_3  and  C2_5 
REMARK    3  A    between atoms: C11_19  and  N2_20 
REMARK    4  A    between atoms: C15_25  and  C16_26 
ROOT
HETATM    1  O1  UNL     1      37.195  66.352  38.398  1.00  0.00    -0.273 OA
HETATM    2  C1  UNL     1      38.404  66.040  38.473  1.00  0.00     0.226 C 
HETATM    3  N1  UNL     1      39.110  65.785  37.250  1.00  0.00    -0.322 N 
ATOM      4  H1  UNL     1      40.096  65.528  37.290  1.00  0.00     0.169 HD
ENDROOT
BRANCH   2   5
HETATM    5  C8  UNL     1      39.080  65.939  39.787  1.00  0.00     0.078 C 
HETATM    6  C9  UNL     1      40.374  65.222  39.621  1.00  0.00     0.016 C 
HETATM    7  C10 UNL     1      41.171  65.070  40.874  1.00  0.00     0.026 C 
HETATM    8  C11 UNL     1      41.078  66.184  41.857  1.00  0.00     0.084 C 
HETATM    9  C17 UNL     1      39.903  67.089  41.752  1.00  0.00     0.026 C 
HETATM   10  C18 UNL     1      39.329  67.296  40.402  1.00  0.00     0.016 C 
BRANCH   8  11
HETATM   11  N2  UNL     1      42.263  66.950  42.023  1.00  0.00    -0.378 N 
HETATM   12  C12 UNL     1      42.575  67.948  41.084  1.00  0.00     0.085 C 
HETATM   13  C13 UNL     1      43.922  67.735  40.413  1.00  0.00     0.212 C 
HETATM   14  O2  UNL     1      44.923  67.387  41.279  1.00  0.00    -0.384 OA
HETATM   15  C14 UNL     1      44.555  67.255  42.589  1.00  0.00     0.195 C 
HETATM   16  C15 UNL     1      43.319  66.382  42.773  1.00  0.00     0.136 C 
BRANCH  16  17
HETATM   17  C16 UNL     1      43.058  66.327  44.261  1.00  0.00     0.249 C 
HETATM   18  F6  UNL     1      42.662  65.038  44.559  1.00  0.00    -0.253 F 
ENDBRANCH  16  17
ENDBRANCH   8  11
ENDBRANCH   2   5
BRANCH   3  19
HETATM   19  C2  UNL     1      38.476  65.880  36.000  1.00  0.00     0.119 A 
HETATM   20  C3  UNL     1      37.674  64.849  35.567  1.00  0.00     0.188 A 
HETATM   21  F1  UNL     1      37.482  63.740  36.322  1.00  0.00    -0.200 F 
HETATM   22  C4  UNL     1      37.032  64.927  34.324  1.00  0.00     0.199 A 
HETATM   23  F2  UNL     1      36.241  63.896  33.909  1.00  0.00    -0.199 F 
HETATM   24  C5  UNL     1      37.205  66.030  33.539  1.00  0.00     0.199 A 
HETATM   25  F3  UNL     1      36.592  66.121  32.334  1.00  0.00    -0.199 F 
HETATM   26  C6  UNL     1      38.005  67.076  33.954  1.00  0.00     0.199 A 
HETATM   27  F4  UNL     1      38.178  68.172  33.175  1.00  0.00    -0.199 F 
HETATM   28  C7  UNL     1      38.639  66.984  35.197  1.00  0.00     0.188 A 
HETATM   29  F5  UNL     1      39.423  68.019  35.590  1.00  0.00    -0.200 F 
ENDBRANCH   3  19
TORSDOF 4
ENDMDL
MODEL 5
REMARK VINA RESULT: -9.435793845      2.656      8.362
REMARK  4 active torsions:
REMARK  status: ('A' for Active; 'I' for Inactive)
REMARK       I    between atoms: C1_2  and  N1_3 
REMARK    1  A    between atoms: C1_2  and  C8_16 
REMARK    2  A    between atoms: N1_3  and  C2_5 
REMARK    3  A    between atoms: C11_19  and  N2_20 
REMARK    4  A    between atoms: C15_25  and  C16_26 
ROOT
HETATM    1  O1  UNL     1      37.522  66.419  38.935  1.00  0.00    -0.273 OA
HETATM    2  C1  UNL     1      38.744  66.153  38.927  1.00  0.00     0.226 C 
HETATM    3  N1  UNL     1      39.371  65.911  37.659  1.00  0.00    -0.322 N 
ATOM      4  H1  UNL     1      40.367  65.692  37.631  1.00  0.00     0.169 HD
ENDROOT
BRANCH   2   5
HETATM    5  C8  UNL     1      39.514  66.093  40.191  1.00  0.00     0.078 C 
HETATM    6  C9  UNL     1      40.869  65.540  39.915  1.00  0.00     0.016 C 
HETATM    7  C10 UNL     1      41.761  65.445  41.109  1.00  0.00     0.026 C 
HETATM    8  C11 UNL     1      41.605  66.509  42.138  1.00  0.00     0.084 C 
HETATM    9  C17 UNL     1      40.329  67.271  42.142  1.00  0.00     0.026 C 
HETATM   10  C18 UNL     1      39.645  67.450  40.840  1.00  0.00     0.016 C 
BRANCH   8  11
HETATM   11  N2  UNL     1      42.703  67.404  42.257  1.00  0.00    -0.378 N 
HETATM   12  C12 UNL     1      43.019  67.941  43.516  1.00  0.00     0.085 C 
HETATM   13  C13 UNL     1      42.983  69.460  43.542  1.00  0.00     0.212 C 
HETATM   14  O2  UNL     1      43.590  70.048  42.465  1.00  0.00    -0.384 OA
HETATM   15  C14 UNL     1      44.100  69.189  41.531  1.00  0.00     0.195 C 
HETATM   16  C15 UNL     1      43.103  68.118  41.104  1.00  0.00     0.136 C 
BRANCH  16  17
HETATM   17  C16 UNL     1      43.809  67.271  40.069  1.00  0.00     0.249 C 
HETATM   18  F6  UNL     1      44.872  66.656  40.700  1.00  0.00    -0.253 F 
ENDBRANCH  16  17
ENDBRANCH   8  11
ENDBRANCH   2   5
BRANCH   3  19
HETATM   19  C2  UNL     1      38.648  65.968  36.456  1.00  0.00     0.119 A 
HETATM   20  C3  UNL     1      38.646  67.132  35.722  1.00  0.00     0.188 A 
HETATM   21  F1  UNL     1      39.326  68.228  36.135  1.00  0.00    -0.200 F 
HETATM   22  C4  UNL     1      37.931  67.206  34.519  1.00  0.00     0.199 A 
HETATM   23  F2  UNL     1      37.938  68.367  33.803  1.00  0.00    -0.199 F 
HETATM   24  C5  UNL     1      37.234  66.120  34.075  1.00  0.00     0.199 A 
HETATM   25  F3  UNL     1      36.538  66.175  32.913  1.00  0.00    -0.199 F 
HETATM   26  C6  UNL     1      37.223  64.943  34.797  1.00  0.00     0.199 A 
HETATM   27  F4  UNL     1      36.531  63.863  34.357  1.00  0.00    -0.199 F 
HETATM   28  C7  UNL     1      37.941  64.883  35.995  1.00  0.00     0.188 A 
HETATM   29  F5  UNL     1      37.919  63.720  36.693  1.00  0.00    -0.200 F 
ENDBRANCH   3  19
TORSDOF 4
ENDMDL
