MODEL 1
REMARK VINA RESULT: -9.328024058      0.000      0.000
REMARK  4 active torsions:
REMARK  status: ('A' for Active; 'I' for Inactive)
REMARK    1  A    between atoms: C2_3  and  C3_4 
REMARK    2  A    between atoms: C2_3  and  N3_19 
REMARK    3  A    between atoms: C3_4  and  N2_5 
REMARK       I    between atoms: N2_5  and  C4_7 
REMARK    4  A    between atoms: C4_7  and  C5_9 
ROOT
HETATM    1  N1  UNL     1      39.905  63.206  37.711  1.00  0.00    -0.195 NA
HETATM    2  C1  UNL     1      39.191  63.993  37.238  1.00  0.00     0.086 C 
HETATM    3  C2  UNL     1      38.262  64.988  36.653  1.00  0.00     0.205 C 
ENDROOT
BRANCH   3   4
HETATM    4  C3  UNL     1      37.808  65.868  37.807  1.00  0.00     0.162 C 
BRANCH   4   5
HETATM    5  N2  UNL     1      38.773  65.808  38.916  1.00  0.00    -0.354 N 
HETATM    6  C4  UNL     1      39.355  66.976  39.399  1.00  0.00     0.256 C 
HETATM    7  O1  UNL     1      38.993  68.059  38.797  1.00  0.00    -0.267 OA
ATOM      8  H2  UNL     1      39.015  64.909  39.332  1.00  0.00     0.162 HD
BRANCH   6   9
HETATM    9  C5  UNL     1      40.308  67.155  40.470  1.00  0.00     0.094 A 
HETATM   10  C6  UNL     1      40.019  67.004  41.803  1.00  0.00     0.054 A 
HETATM   11 CL1  UNL     1      38.384  66.674  42.392  1.00  0.00    -0.083 Cl
HETATM   12  C7  UNL     1      40.978  67.138  42.815  1.00  0.00     0.050 A 
HETATM   13  C8  UNL     1      42.262  67.435  42.429  1.00  0.00     0.060 A 
HETATM   14 CL2  UNL     1      43.508  67.614  43.651  1.00  0.00    -0.082 Cl
HETATM   15  C9  UNL     1      42.572  67.591  41.097  1.00  0.00     0.095 A 
HETATM   16 CL3  UNL     1      44.231  67.977  40.602  1.00  0.00    -0.079 Cl
HETATM   17  C10 UNL     1      41.635  67.461  40.112  1.00  0.00     0.157 A 
HETATM   18  F1  UNL     1      41.969  67.621  38.793  1.00  0.00    -0.203 F 
ENDBRANCH   6   9
ENDBRANCH   4   5
ENDBRANCH   3   4
BRANCH   3  19
HETATM   19  N3  UNL     1      38.967  65.801  35.720  1.00  0.00    -0.395 N 
HETATM   20  C11 UNL     1      40.376  65.868  35.903  1.00  0.00     0.124 C 
HETATM   21  C12 UNL     1      40.977  67.224  35.716  1.00  0.00     0.098 C 
HETATM   22  C13 UNL     1      40.457  67.968  34.520  1.00  0.00     0.246 C 
HETATM   23  F2  UNL     1      40.343  69.317  34.852  1.00  0.00    -0.206 F 
HETATM   24  F3  UNL     1      41.317  67.909  33.438  1.00  0.00    -0.206 F 
HETATM   25  C14 UNL     1      39.083  67.512  34.089  1.00  0.00     0.098 C 
HETATM   26  C15 UNL     1      38.381  67.050  35.377  1.00  0.00     0.124 C 
ENDBRANCH   3  19
TORSDOF 4
ENDMDL
MODEL 2
REMARK VINA RESULT: -9.086878487      0.343      1.205
REMARK  4 active torsions:
REMARK  status: ('A' for Active; 'I' for Inactive)
REMARK    1  A    between atoms: C2_3  and  C3_4 
REMARK    2  A    between atoms: C2_3  and  N3_19 
REMARK    3  A    between atoms: C3_4  and  N2_5 
REMARK       I    between atoms: N2_5  and  C4_7 
REMARK    4  A    between atoms: C4_7  and  C5_9 
ROOT
HETATM    1  N1  UNL     1      40.053  63.166  37.372  1.00  0.00    -0.195 NA
HETATM    2  C1  UNL     1      39.334  64.031  37.078  1.00  0.00     0.086 C 
HETATM    3  C2  UNL     1      38.397  65.121  36.714  1.00  0.00     0.205 C 
ENDROOT
BRANCH   3   4
HETATM    4  C3  UNL     1      37.740  65.560  38.013  1.00  0.00     0.162 C 
BRANCH   4   5
HETATM    5  N2  UNL     1      38.734  65.649  39.094  1.00  0.00    -0.354 N 
HETATM    6  C4  UNL     1      39.156  66.892  39.555  1.00  0.00     0.256 C 
HETATM    7  O1  UNL     1      38.624  67.906  38.959  1.00  0.00    -0.267 OA
ATOM      8  H2  UNL     1      39.115  64.797  39.506  1.00  0.00     0.162 HD
BRANCH   6   9
HETATM    9  C5  UNL     1      40.102  67.215  40.597  1.00  0.00     0.094 A 
HETATM   10  C6  UNL     1      39.842  67.126  41.941  1.00  0.00     0.054 A 
HETATM   11 CL1  UNL     1      38.246  66.704  42.577  1.00  0.00    -0.083 Cl
HETATM   12  C7  UNL     1      40.799  67.401  42.927  1.00  0.00     0.050 A 
HETATM   13  C8  UNL     1      42.050  67.777  42.502  1.00  0.00     0.060 A 
HETATM   14 CL2  UNL     1      43.290  68.132  43.690  1.00  0.00    -0.082 Cl
HETATM   15  C9  UNL     1      42.330  67.872  41.158  1.00  0.00     0.095 A 
HETATM   16 CL3  UNL     1      43.947  68.358  40.613  1.00  0.00    -0.079 Cl
HETATM   17  C10 UNL     1      41.396  67.604  40.199  1.00  0.00     0.157 A 
HETATM   18  F1  UNL     1      41.701  67.706  38.867  1.00  0.00    -0.203 F 
ENDBRANCH   6   9
ENDBRANCH   4   5
ENDBRANCH   3   4
BRANCH   3  19
HETATM   19  N3  UNL     1      39.133  66.222  36.191  1.00  0.00    -0.395 N 
HETATM   20  C11 UNL     1      38.390  67.132  35.388  1.00  0.00     0.124 C 
HETATM   21  C12 UNL     1      39.096  67.625  34.165  1.00  0.00     0.098 C 
HETATM   22  C13 UNL     1      40.530  68.006  34.395  1.00  0.00     0.246 C 
HETATM   23  F2  UNL     1      41.275  67.621  33.281  1.00  0.00    -0.206 F 
HETATM   24  F3  UNL     1      40.706  69.372  34.523  1.00  0.00    -0.206 F 
HETATM   25  C14 UNL     1      41.146  67.310  35.586  1.00  0.00     0.098 C 
HETATM   26  C15 UNL     1      40.432  65.952  35.682  1.00  0.00     0.124 C 
ENDBRANCH   3  19
TORSDOF 4
ENDMDL
MODEL 3
REMARK VINA RESULT: -9.020309770      3.913      7.515
REMARK  4 active torsions:
REMARK  status: ('A' for Active; 'I' for Inactive)
REMARK    1  A    between atoms: C2_3  and  C3_4 
REMARK    2  A    between atoms: C2_3  and  N3_19 
REMARK    3  A    between atoms: C3_4  and  N2_5 
REMARK       I    between atoms: N2_5  and  C4_7 
REMARK    4  A    between atoms: C4_7  and  C5_9 
ROOT
HETATM    1  N1  UNL     1      38.553  65.063  40.930  1.00  0.00    -0.195 NA
HETATM    2  C1  UNL     1      39.619  65.419  40.631  1.00  0.00     0.086 C 
HETATM    3  C2  UNL     1      40.969  65.873  40.223  1.00  0.00     0.205 C 
ENDROOT
BRANCH   3   4
HETATM    4  C3  UNL     1      40.759  67.141  39.411  1.00  0.00     0.162 C 
BRANCH   4   5
HETATM    5  N2  UNL     1      40.488  66.816  38.002  1.00  0.00    -0.354 N 
HETATM    6  C4  UNL     1      39.268  67.160  37.429  1.00  0.00     0.256 C 
HETATM    7  O1  UNL     1      38.436  67.748  38.221  1.00  0.00    -0.267 OA
ATOM      8  H2  UNL     1      41.197  66.339  37.444  1.00  0.00     0.162 HD
BRANCH   6   9
HETATM    9  C5  UNL     1      38.793  66.951  36.081  1.00  0.00     0.094 A 
HETATM   10  C6  UNL     1      39.166  67.706  34.998  1.00  0.00     0.054 A 
HETATM   11 CL1  UNL     1      40.209  69.128  35.140  1.00  0.00    -0.083 Cl
HETATM   12  C7  UNL     1      38.724  67.446  33.694  1.00  0.00     0.050 A 
HETATM   13  C8  UNL     1      37.876  66.380  33.517  1.00  0.00     0.060 A 
HETATM   14 CL2  UNL     1      37.290  66.005  31.907  1.00  0.00    -0.082 Cl
HETATM   15  C9  UNL     1      37.490  65.611  34.591  1.00  0.00     0.095 A 
HETATM   16 CL3  UNL     1      36.395  64.235  34.360  1.00  0.00    -0.079 Cl
HETATM   17  C10 UNL     1      37.923  65.866  35.861  1.00  0.00     0.157 A 
HETATM   18  F1  UNL     1      37.523  65.084  36.914  1.00  0.00    -0.203 F 
ENDBRANCH   6   9
ENDBRANCH   4   5
ENDBRANCH   3   4
BRANCH   3  19
HETATM   19  N3  UNL     1      41.727  66.205  41.383  1.00  0.00    -0.395 N 
HETATM   20  C11 UNL     1      41.610  67.550  41.830  1.00  0.00     0.124 C 
HETATM   21  C12 UNL     1      42.887  68.183  42.283  1.00  0.00     0.098 C 
HETATM   22  C13 UNL     1      43.738  67.299  43.147  1.00  0.00     0.246 C 
HETATM   23  F2  UNL     1      45.077  67.517  42.822  1.00  0.00    -0.206 F 
HETATM   24  F3  UNL     1      43.617  67.592  44.494  1.00  0.00    -0.206 F 
HETATM   25  C14 UNL     1      43.476  65.827  42.932  1.00  0.00     0.098 C 
HETATM   26  C15 UNL     1      43.052  65.697  41.459  1.00  0.00     0.124 C 
ENDBRANCH   3  19
TORSDOF 4
ENDMDL
MODEL 4
REMARK VINA RESULT: -8.753634807      1.269      1.775
REMARK  4 active torsions:
REMARK  status: ('A' for Active; 'I' for Inactive)
REMARK    1  A    between atoms: C2_3  and  C3_4 
REMARK    2  A    between atoms: C2_3  and  N3_19 
REMARK    3  A    between atoms: C3_4  and  N2_5 
REMARK       I    between atoms: N2_5  and  C4_7 
REMARK    4  A    between atoms: C4_7  and  C5_9 
ROOT
HETATM    1  N1  UNL     1      37.531  63.648  35.095  1.00  0.00    -0.195 NA
HETATM    2  C1  UNL     1      37.703  64.506  35.860  1.00  0.00     0.086 C 
HETATM    3  C2  UNL     1      37.909  65.586  36.853  1.00  0.00     0.205 C 
ENDROOT
BRANCH   3   4
HETATM    4  C3  UNL     1      38.570  64.931  38.055  1.00  0.00     0.162 C 
BRANCH   4   5
HETATM    5  N2  UNL     1      38.953  65.942  39.053  1.00  0.00    -0.354 N 
HETATM    6  C4  UNL     1      40.156  65.822  39.743  1.00  0.00     0.256 C 
HETATM    7  O1  UNL     1      40.856  64.779  39.446  1.00  0.00    -0.267 OA
ATOM      8  H2  UNL     1      38.337  66.733  39.238  1.00  0.00     0.162 HD
BRANCH   6   9
HETATM    9  C5  UNL     1      40.732  66.686  40.746  1.00  0.00     0.094 A 
HETATM   10  C6  UNL     1      40.210  66.880  42.000  1.00  0.00     0.054 A 
HETATM   11 CL1  UNL     1      38.675  66.167  42.515  1.00  0.00    -0.083 Cl
HETATM   12  C7  UNL     1      40.821  67.690  42.967  1.00  0.00     0.050 A 
HETATM   13  C8  UNL     1      41.996  68.308  42.619  1.00  0.00     0.060 A 
HETATM   14 CL2  UNL     1      42.808  69.333  43.788  1.00  0.00    -0.082 Cl
HETATM   15  C9  UNL     1      42.535  68.126  41.366  1.00  0.00     0.095 A 
HETATM   16 CL3  UNL     1      44.054  68.927  40.919  1.00  0.00    -0.079 Cl
HETATM   17  C10 UNL     1      41.939  67.337  40.424  1.00  0.00     0.157 A 
HETATM   18  F1  UNL     1      42.496  67.173  39.184  1.00  0.00    -0.203 F 
ENDBRANCH   6   9
ENDBRANCH   4   5
ENDBRANCH   3   4
BRANCH   3  19
HETATM   19  N3  UNL     1      38.808  66.554  36.320  1.00  0.00    -0.395 N 
HETATM   20  C11 UNL     1      38.234  67.500  35.426  1.00  0.00     0.124 C 
HETATM   21  C12 UNL     1      39.066  67.826  34.227  1.00  0.00     0.098 C 
HETATM   22  C13 UNL     1      40.522  68.038  34.527  1.00  0.00     0.246 C 
HETATM   23  F2  UNL     1      41.273  67.498  33.484  1.00  0.00    -0.206 F 
HETATM   24  F3  UNL     1      40.863  69.377  34.594  1.00  0.00    -0.206 F 
HETATM   25  C14 UNL     1      40.975  67.344  35.790  1.00  0.00     0.098 C 
HETATM   26  C15 UNL     1      40.088  66.093  35.911  1.00  0.00     0.124 C 
ENDBRANCH   3  19
TORSDOF 4
ENDMDL
MODEL 5
REMARK VINA RESULT: -8.689317249      3.728      7.152
REMARK  4 active torsions:
REMARK  status: ('A' for Active; 'I' for Inactive)
REMARK    1  A    between atoms: C2_3  and  C3_4 
REMARK    2  A    between atoms: C2_3  and  N3_19 
REMARK    3  A    between atoms: C3_4  and  N2_5 
REMARK       I    between atoms: N2_5  and  C4_7 
REMARK    4  A    between atoms: C4_7  and  C5_9 
ROOT
HETATM    1  N1  UNL     1      39.299  68.785  40.121  1.00  0.00    -0.195 NA
HETATM    2  C1  UNL     1      39.556  67.841  40.750  1.00  0.00     0.086 C 
HETATM    3  C2  UNL     1      39.858  66.629  41.547  1.00  0.00     0.205 C 
ENDROOT
BRANCH   3   4
HETATM    4  C3  UNL     1      39.551  65.445  40.643  1.00  0.00     0.162 C 
BRANCH   4   5
HETATM    5  N2  UNL     1      38.893  65.893  39.406  1.00  0.00    -0.354 N 
HETATM    6  C4  UNL     1      39.362  65.461  38.169  1.00  0.00     0.256 C 
HETATM    7  O1  UNL     1      40.388  64.680  38.215  1.00  0.00    -0.267 OA
ATOM      8  H2  UNL     1      38.091  66.521  39.455  1.00  0.00     0.162 HD
BRANCH   6   9
HETATM    9  C5  UNL     1      38.874  65.761  36.843  1.00  0.00     0.094 A 
HETATM   10  C6  UNL     1      39.286  66.828  36.085  1.00  0.00     0.054 A 
HETATM   11 CL1  UNL     1      40.404  68.056  36.695  1.00  0.00    -0.083 Cl
HETATM   12  C7  UNL     1      38.828  67.064  34.782  1.00  0.00     0.050 A 
HETATM   13  C8  UNL     1      37.924  66.171  34.261  1.00  0.00     0.060 A 
HETATM   14 CL2  UNL     1      37.316  66.413  32.634  1.00  0.00    -0.082 Cl
HETATM   15  C9  UNL     1      37.499  65.094  35.006  1.00  0.00     0.095 A 
HETATM   16 CL3  UNL     1      36.331  63.943  34.331  1.00  0.00    -0.079 Cl
HETATM   17  C10 UNL     1      37.946  64.866  36.276  1.00  0.00     0.157 A 
HETATM   18  F1  UNL     1      37.508  63.787  36.997  1.00  0.00    -0.203 F 
ENDBRANCH   6   9
ENDBRANCH   4   5
ENDBRANCH   3   4
BRANCH   3  19
HETATM   19  N3  UNL     1      41.247  66.603  41.861  1.00  0.00    -0.395 N 
HETATM   20  C11 UNL     1      41.768  67.792  42.442  1.00  0.00     0.124 C 
HETATM   21  C12 UNL     1      43.115  68.207  41.941  1.00  0.00     0.098 C 
HETATM   22  C13 UNL     1      44.098  67.080  41.813  1.00  0.00     0.246 C 
HETATM   23  F2  UNL     1      44.870  67.292  40.671  1.00  0.00    -0.206 F 
HETATM   24  F3  UNL     1      44.985  67.022  42.872  1.00  0.00    -0.206 F 
HETATM   25  C14 UNL     1      43.437  65.732  41.642  1.00  0.00     0.098 C 
HETATM   26  C15 UNL     1      42.117  66.013  40.904  1.00  0.00     0.124 C 
ENDBRANCH   3  19
TORSDOF 4
ENDMDL
