MODEL 1
REMARK VINA RESULT: -9.032776457      0.000      0.000
REMARK  5 active torsions:
REMARK  status: ('A' for Active; 'I' for Inactive)
REMARK    1  A    between atoms: C1_2  and  C2_3 
REMARK       I    between atoms: C1_2  and  N1_16 
REMARK    2  A    between atoms: C2_3  and  O2_4 
REMARK    3  A    between atoms: O2_4  and  C3_5 
REMARK    4  A    between atoms: N1_16  and  C9_18 
REMARK    5  A    between atoms: C12_24  and  C13_25 
ROOT
HETATM    1  O1  UNL     1      37.226  64.484  33.094  1.00  0.00    -0.266 OA
HETATM    2  C1  UNL     1      36.728  64.898  34.129  1.00  0.00     0.281 C 
HETATM    3  N1  UNL     1      36.500  63.992  35.260  1.00  0.00    -0.154 N 
ATOM      4  H1  UNL     1      35.647  63.442  35.362  1.00  0.00     0.187 HD
ENDROOT
BRANCH   2   5
HETATM    5  C2  UNL     1      36.315  66.264  34.375  1.00  0.00     0.217 C 
BRANCH   5   6
HETATM    6  O2  UNL     1      37.165  67.270  34.666  1.00  0.00    -0.311 OA
BRANCH   6   7
HETATM    7  C3  UNL     1      38.164  67.446  35.577  1.00  0.00     0.157 A 
HETATM    8  C4  UNL     1      39.504  67.253  35.162  1.00  0.00     0.194 A 
HETATM    9  F1  UNL     1      39.656  66.886  33.838  1.00  0.00    -0.200 F 
HETATM   10  C5  UNL     1      40.581  67.411  35.978  1.00  0.00     0.198 A 
HETATM   11  F2  UNL     1      41.845  67.201  35.500  1.00  0.00    -0.199 F 
HETATM   12  C6  UNL     1      40.390  67.774  37.283  1.00  0.00     0.182 A 
HETATM   13  F3  UNL     1      41.387  67.963  38.167  1.00  0.00    -0.201 F 
HETATM   14  C7  UNL     1      39.091  67.968  37.718  1.00  0.00     0.117 A 
HETATM   15 CL1  UNL     1      38.827  68.426  39.373  1.00  0.00    -0.077 Cl
HETATM   16  C8  UNL     1      37.995  67.813  36.898  1.00  0.00     0.178 A 
HETATM   17  F4  UNL     1      36.745  68.081  37.398  1.00  0.00    -0.201 F 
ENDBRANCH   6   7
ENDBRANCH   5   6
ENDBRANCH   2   5
BRANCH   3  18
HETATM   18  C9  UNL     1      37.468  63.947  36.118  1.00  0.00     0.685 A 
HETATM   19  N2  UNL     1      38.658  63.378  35.852  1.00  0.00    -0.200 N 
HETATM   20  C10 UNL     1      39.659  63.372  36.774  1.00  0.00     0.132 A 
ATOM     21  H2  UNL     1      38.813  62.943  34.942  1.00  0.00     0.183 HD
HETATM   22  C11 UNL     1      39.481  63.954  38.009  1.00  0.00     0.073 A 
HETATM   23 CL2  UNL     1      40.795  63.941  39.177  1.00  0.00    -0.081 Cl
HETATM   24  C12 UNL     1      38.251  64.544  38.280  1.00  0.00     0.053 A 
HETATM   25  N3  UNL     1      37.314  64.516  37.337  1.00  0.00    -0.193 N 
ATOM     26  H3  UNL     1      36.417  64.954  37.548  1.00  0.00     0.184 HD
BRANCH  24  27
HETATM   27  C13 UNL     1      38.078  65.182  39.618  1.00  0.00     0.038 A 
HETATM   28  C14 UNL     1      36.632  65.329  40.160  1.00  0.00     0.011 A 
HETATM   29  C15 UNL     1      37.585  64.356  40.753  1.00  0.00     0.011 A 
ENDBRANCH  24  27
ENDBRANCH   3  18
TORSDOF 5
ENDMDL
MODEL 2
REMARK VINA RESULT: -8.855160794      2.935      4.163
REMARK  5 active torsions:
REMARK  status: ('A' for Active; 'I' for Inactive)
REMARK    1  A    between atoms: C1_2  and  C2_3 
REMARK       I    between atoms: C1_2  and  N1_16 
REMARK    2  A    between atoms: C2_3  and  O2_4 
REMARK    3  A    between atoms: O2_4  and  C3_5 
REMARK    4  A    between atoms: N1_16  and  C9_18 
REMARK    5  A    between atoms: C12_24  and  C13_25 
ROOT
HETATM    1  O1  UNL     1      35.716  64.894  39.973  1.00  0.00    -0.266 OA
HETATM    2  C1  UNL     1      36.215  66.005  40.062  1.00  0.00     0.281 C 
HETATM    3  N1  UNL     1      36.986  66.383  41.252  1.00  0.00    -0.154 N 
ATOM      4  H1  UNL     1      36.553  66.783  42.084  1.00  0.00     0.187 HD
ENDROOT
BRANCH   2   5
HETATM    5  C2  UNL     1      36.124  67.049  39.062  1.00  0.00     0.217 C 
BRANCH   5   6
HETATM    6  O2  UNL     1      36.478  66.892  37.771  1.00  0.00    -0.311 OA
BRANCH   6   7
HETATM    7  C3  UNL     1      37.665  66.851  37.101  1.00  0.00     0.157 A 
HETATM    8  C4  UNL     1      38.314  65.602  36.947  1.00  0.00     0.194 A 
HETATM    9  F1  UNL     1      37.657  64.529  37.519  1.00  0.00    -0.200 F 
HETATM   10  C5  UNL     1      39.494  65.437  36.289  1.00  0.00     0.198 A 
HETATM   11  F2  UNL     1      40.060  64.196  36.188  1.00  0.00    -0.199 F 
HETATM   12  C6  UNL     1      40.116  66.524  35.737  1.00  0.00     0.182 A 
HETATM   13  F3  UNL     1      41.278  66.466  35.062  1.00  0.00    -0.201 F 
HETATM   14  C7  UNL     1      39.505  67.758  35.874  1.00  0.00     0.117 A 
HETATM   15 CL1  UNL     1      40.280  69.150  35.182  1.00  0.00    -0.077 Cl
HETATM   16  C8  UNL     1      38.309  67.934  36.534  1.00  0.00     0.178 A 
HETATM   17  F4  UNL     1      37.746  69.185  36.574  1.00  0.00    -0.201 F 
ENDBRANCH   6   7
ENDBRANCH   5   6
ENDBRANCH   2   5
BRANCH   3  18
HETATM   18  C9  UNL     1      38.258  66.167  41.160  1.00  0.00     0.685 A 
HETATM   19  N2  UNL     1      39.179  66.947  41.756  1.00  0.00    -0.200 N 
HETATM   20  C10 UNL     1      40.508  66.672  41.654  1.00  0.00     0.132 A 
ATOM     21  H2  UNL     1      38.875  67.759  42.294  1.00  0.00     0.183 HD
HETATM   22  C11 UNL     1      40.949  65.581  40.938  1.00  0.00     0.073 A 
HETATM   23 CL2  UNL     1      42.671  65.245  40.832  1.00  0.00    -0.081 Cl
HETATM   24  C12 UNL     1      39.994  64.776  40.326  1.00  0.00     0.053 A 
HETATM   25  N3  UNL     1      38.711  65.098  40.462  1.00  0.00    -0.193 N 
ATOM     26  H3  UNL     1      38.021  64.498  40.010  1.00  0.00     0.184 HD
BRANCH  24  27
HETATM   27  C13 UNL     1      40.486  63.591  39.564  1.00  0.00     0.038 A 
HETATM   28  C14 UNL     1      40.139  62.186  40.120  1.00  0.00     0.011 A 
HETATM   29  C15 UNL     1      39.500  62.707  38.885  1.00  0.00     0.011 A 
ENDBRANCH  24  27
ENDBRANCH   3  18
TORSDOF 5
ENDMDL
MODEL 3
REMARK VINA RESULT: -8.798542587      1.179      2.144
REMARK  5 active torsions:
REMARK  status: ('A' for Active; 'I' for Inactive)
REMARK    1  A    between atoms: C1_2  and  C2_3 
REMARK       I    between atoms: C1_2  and  N1_16 
REMARK    2  A    between atoms: C2_3  and  O2_4 
REMARK    3  A    between atoms: O2_4  and  C3_5 
REMARK    4  A    between atoms: N1_16  and  C9_18 
REMARK    5  A    between atoms: C12_24  and  C13_25 
ROOT
HETATM    1  O1  UNL     1      37.194  64.440  33.114  1.00  0.00    -0.266 OA
HETATM    2  C1  UNL     1      36.670  64.816  34.151  1.00  0.00     0.281 C 
HETATM    3  N1  UNL     1      36.516  63.898  35.284  1.00  0.00    -0.154 N 
ATOM      4  H1  UNL     1      35.707  63.285  35.391  1.00  0.00     0.187 HD
ENDROOT
BRANCH   2   5
HETATM    5  C2  UNL     1      36.156  66.148  34.396  1.00  0.00     0.217 C 
BRANCH   5   6
HETATM    6  O2  UNL     1      36.928  67.217  34.678  1.00  0.00    -0.311 OA
BRANCH   6   7
HETATM    7  C3  UNL     1      38.057  67.414  35.417  1.00  0.00     0.157 A 
HETATM    8  C4  UNL     1      37.922  67.759  36.784  1.00  0.00     0.194 A 
HETATM    9  F1  UNL     1      36.619  67.870  37.231  1.00  0.00    -0.200 F 
HETATM   10  C5  UNL     1      38.975  67.968  37.620  1.00  0.00     0.198 A 
HETATM   11  F2  UNL     1      38.761  68.303  38.929  1.00  0.00    -0.199 F 
HETATM   12  C6  UNL     1      40.251  67.850  37.141  1.00  0.00     0.182 A 
HETATM   13  F3  UNL     1      41.357  68.029  37.885  1.00  0.00    -0.201 F 
HETATM   14  C7  UNL     1      40.413  67.516  35.807  1.00  0.00     0.117 A 
HETATM   15 CL1  UNL     1      42.025  67.363  35.179  1.00  0.00    -0.077 Cl
HETATM   16  C8  UNL     1      39.354  67.298  34.954  1.00  0.00     0.178 A 
HETATM   17  F4  UNL     1      39.606  66.916  33.661  1.00  0.00    -0.201 F 
ENDBRANCH   6   7
ENDBRANCH   5   6
ENDBRANCH   2   5
BRANCH   3  18
HETATM   18  C9  UNL     1      37.487  63.928  36.138  1.00  0.00     0.685 A 
HETATM   19  N2  UNL     1      38.710  63.430  35.875  1.00  0.00    -0.200 N 
HETATM   20  C10 UNL     1      39.713  63.502  36.793  1.00  0.00     0.132 A 
ATOM     21  H2  UNL     1      38.888  62.990  34.972  1.00  0.00     0.183 HD
HETATM   22  C11 UNL     1      39.504  64.093  38.020  1.00  0.00     0.073 A 
HETATM   23 CL2  UNL     1      40.820  64.181  39.181  1.00  0.00    -0.081 Cl
HETATM   24  C12 UNL     1      38.239  64.609  38.286  1.00  0.00     0.053 A 
HETATM   25  N3  UNL     1      37.302  64.507  37.349  1.00  0.00    -0.193 N 
ATOM     26  H3  UNL     1      36.380  64.891  37.556  1.00  0.00     0.184 HD
BRANCH  24  27
HETATM   27  C13 UNL     1      38.032  65.257  39.614  1.00  0.00     0.038 A 
HETATM   28  C14 UNL     1      36.589  65.281  40.182  1.00  0.00     0.011 A 
HETATM   29  C15 UNL     1      37.638  64.414  40.776  1.00  0.00     0.011 A 
ENDBRANCH  24  27
ENDBRANCH   3  18
TORSDOF 5
ENDMDL
MODEL 4
REMARK VINA RESULT: -8.714477701      1.580      2.696
REMARK  5 active torsions:
REMARK  status: ('A' for Active; 'I' for Inactive)
REMARK    1  A    between atoms: C1_2  and  C2_3 
REMARK       I    between atoms: C1_2  and  N1_16 
REMARK    2  A    between atoms: C2_3  and  O2_4 
REMARK    3  A    between atoms: O2_4  and  C3_5 
REMARK    4  A    between atoms: N1_16  and  C9_18 
REMARK    5  A    between atoms: C12_24  and  C13_25 
ROOT
HETATM    1  O1  UNL     1      37.515  65.025  33.758  1.00  0.00    -0.266 OA
HETATM    2  C1  UNL     1      37.797  65.748  34.700  1.00  0.00     0.281 C 
HETATM    3  N1  UNL     1      37.189  65.527  36.017  1.00  0.00    -0.154 N 
ATOM      4  H1  UNL     1      36.297  65.941  36.288  1.00  0.00     0.187 HD
ENDROOT
BRANCH   2   5
HETATM    5  C2  UNL     1      38.720  66.864  34.657  1.00  0.00     0.217 C 
BRANCH   5   6
HETATM    6  O2  UNL     1      38.719  67.881  35.541  1.00  0.00    -0.311 OA
BRANCH   6   7
HETATM    7  C3  UNL     1      39.054  68.007  36.857  1.00  0.00     0.157 A 
HETATM    8  C4  UNL     1      38.034  68.315  37.791  1.00  0.00     0.194 A 
HETATM    9  F1  UNL     1      36.773  68.469  37.247  1.00  0.00    -0.200 F 
HETATM   10  C5  UNL     1      38.248  68.453  39.127  1.00  0.00     0.198 A 
HETATM   11  F2  UNL     1      37.209  68.756  39.964  1.00  0.00    -0.199 F 
HETATM   12  C6  UNL     1      39.511  68.294  39.629  1.00  0.00     0.182 A 
HETATM   13  F3  UNL     1      39.824  68.402  40.933  1.00  0.00    -0.201 F 
HETATM   14  C7  UNL     1      40.527  67.994  38.739  1.00  0.00     0.117 A 
HETATM   15 CL1  UNL     1      42.139  67.792  39.356  1.00  0.00    -0.077 Cl
HETATM   16  C8  UNL     1      40.321  67.849  37.385  1.00  0.00     0.178 A 
HETATM   17  F4  UNL     1      41.377  67.496  36.583  1.00  0.00    -0.201 F 
ENDBRANCH   6   7
ENDBRANCH   5   6
ENDBRANCH   2   5
BRANCH   3  18
HETATM   18  C9  UNL     1      37.876  64.766  36.806  1.00  0.00     0.685 A 
HETATM   19  N2  UNL     1      38.788  63.882  36.362  1.00  0.00    -0.200 N 
HETATM   20  C10 UNL     1      39.507  63.115  37.228  1.00  0.00     0.132 A 
ATOM     21  H2  UNL     1      38.944  63.784  35.359  1.00  0.00     0.183 HD
HETATM   22  C11 UNL     1      39.321  63.227  38.588  1.00  0.00     0.073 A 
HETATM   23 CL2  UNL     1      40.270  62.231  39.682  1.00  0.00    -0.081 Cl
HETATM   24  C12 UNL     1      38.379  64.144  39.043  1.00  0.00     0.053 A 
HETATM   25  N3  UNL     1      37.709  64.862  38.147  1.00  0.00    -0.193 N 
ATOM     26  H3  UNL     1      37.023  65.532  38.494  1.00  0.00     0.184 HD
BRANCH  24  27
HETATM   27  C13 UNL     1      38.198  64.262  40.519  1.00  0.00     0.038 A 
HETATM   28  C14 UNL     1      38.963  65.398  41.247  1.00  0.00     0.011 A 
HETATM   29  C15 UNL     1      37.489  65.449  41.068  1.00  0.00     0.011 A 
ENDBRANCH  24  27
ENDBRANCH   3  18
TORSDOF 5
ENDMDL
MODEL 5
REMARK VINA RESULT: -8.677468916      4.118      5.186
REMARK  5 active torsions:
REMARK  status: ('A' for Active; 'I' for Inactive)
REMARK    1  A    between atoms: C1_2  and  C2_3 
REMARK       I    between atoms: C1_2  and  N1_16 
REMARK    2  A    between atoms: C2_3  and  O2_4 
REMARK    3  A    between atoms: O2_4  and  C3_5 
REMARK    4  A    between atoms: N1_16  and  C9_18 
REMARK    5  A    between atoms: C12_24  and  C13_25 
ROOT
HETATM    1  O1  UNL     1      40.351  62.736  39.939  1.00  0.00    -0.266 OA
HETATM    2  C1  UNL     1      39.974  63.729  39.337  1.00  0.00     0.281 C 
HETATM    3  N1  UNL     1      39.635  64.957  40.063  1.00  0.00    -0.154 N 
ATOM      4  H1  UNL     1      38.703  65.137  40.438  1.00  0.00     0.187 HD
ENDROOT
BRANCH   2   5
HETATM    5  C2  UNL     1      39.818  63.831  37.900  1.00  0.00     0.217 C 
BRANCH   5   6
HETATM    6  O2  UNL     1      40.166  64.914  37.176  1.00  0.00    -0.311 OA
BRANCH   6   7
HETATM    7  C3  UNL     1      39.553  65.659  36.214  1.00  0.00     0.157 A 
HETATM    8  C4  UNL     1      40.240  66.778  35.681  1.00  0.00     0.194 A 
HETATM    9  F1  UNL     1      41.493  67.003  36.220  1.00  0.00    -0.200 F 
HETATM   10  C5  UNL     1      39.734  67.586  34.711  1.00  0.00     0.198 A 
HETATM   11  F2  UNL     1      40.460  68.651  34.252  1.00  0.00    -0.199 F 
HETATM   12  C6  UNL     1      38.489  67.333  34.203  1.00  0.00     0.182 A 
HETATM   13  F3  UNL     1      37.904  68.065  33.238  1.00  0.00    -0.201 F 
HETATM   14  C7  UNL     1      37.794  66.247  34.706  1.00  0.00     0.117 A 
HETATM   15 CL1  UNL     1      36.211  65.909  34.075  1.00  0.00    -0.077 Cl
HETATM   16  C8  UNL     1      38.299  65.420  35.685  1.00  0.00     0.178 A 
HETATM   17  F4  UNL     1      37.564  64.333  36.085  1.00  0.00    -0.201 F 
ENDBRANCH   6   7
ENDBRANCH   5   6
ENDBRANCH   2   5
BRANCH   3  18
HETATM   18  C9  UNL     1      40.613  65.795  40.190  1.00  0.00     0.685 A 
HETATM   19  N2  UNL     1      40.768  66.867  39.391  1.00  0.00    -0.200 N 
HETATM   20  C10 UNL     1      41.799  67.739  39.572  1.00  0.00     0.132 A 
ATOM     21  H2  UNL     1      40.102  67.030  38.635  1.00  0.00     0.183 HD
HETATM   22  C11 UNL     1      42.712  67.547  40.584  1.00  0.00     0.073 A 
HETATM   23 CL2  UNL     1      44.026  68.694  40.801  1.00  0.00    -0.081 Cl
HETATM   24  C12 UNL     1      42.547  66.440  41.409  1.00  0.00     0.053 A 
HETATM   25  N3  UNL     1      41.521  65.626  41.181  1.00  0.00    -0.193 N 
ATOM     26  H3  UNL     1      41.410  64.819  41.794  1.00  0.00     0.184 HD
BRANCH  24  27
HETATM   27  C13 UNL     1      43.538  66.253  42.509  1.00  0.00     0.038 A 
HETATM   28  C14 UNL     1      43.330  67.074  43.808  1.00  0.00     0.011 A 
HETATM   29  C15 UNL     1      43.099  65.607  43.776  1.00  0.00     0.011 A 
ENDBRANCH  24  27
ENDBRANCH   3  18
TORSDOF 5
ENDMDL
