MODEL 1
REMARK VINA RESULT: -4.975059168      0.000      0.000
REMARK  3 active torsions:
REMARK  status: ('A' for Active; 'I' for Inactive)
REMARK    1  A    between atoms: N1_2  and  C2_4 
REMARK    2  A    between atoms: C5_9  and  C6_10 
REMARK    3  A    between atoms: C6_10  and  N3_11 
ROOT
HETATM    1  C2  UNL     1      27.811 -18.138  33.823  1.00  0.00     0.120 A 
HETATM    2  N2  UNL     1      28.267 -18.353  35.112  1.00  0.00    -0.345 N 
ATOM      3  H2  UNL     1      28.591 -19.280  35.388  1.00  0.00     0.167 HD
HETATM    4  C3  UNL     1      28.283 -17.358  35.991  1.00  0.00     0.016 A 
HETATM    5  C4  UNL     1      28.775 -17.619  37.361  1.00  0.00     0.069 C 
HETATM    6  C5  UNL     1      27.854 -16.086  35.671  1.00  0.00     0.001 A 
HETATM    7  C8  UNL     1      27.406 -15.871  34.406  1.00  0.00     0.042 A 
HETATM    8 BR1  UNL     1      26.802 -14.162  33.887  1.00  0.00    -0.049 Br
HETATM    9  C9  UNL     1      27.375 -16.904  33.450  1.00  0.00     0.072 A 
HETATM   10 BR2  UNL     1      26.721 -16.472  31.701  1.00  0.00    -0.046 Br
ENDROOT
BRANCH   6  11
HETATM   11  C6  UNL     1      27.903 -15.050  36.691  1.00  0.00     0.164 C 
BRANCH  11  12
HETATM   12  N3  UNL     1      26.662 -14.772  37.377  1.00  0.00    -0.363 N 
HETATM   13  C7  UNL     1      26.590 -14.836  38.674  1.00  0.00     0.197 C 
HETATM   14  N4  UNL     1      25.364 -14.557  39.300  1.00  0.00    -0.067 NA
HETATM   15  N5  UNL     1      27.725 -15.178  39.450  1.00  0.00    -0.067 NA
ATOM     16  H3  UNL     1      25.833 -14.522  36.837  1.00  0.00     0.162 HD
ENDBRANCH  11  12
ENDBRANCH   6  11
BRANCH   1  17
HETATM   17  N1  UNL     1      27.825 -19.129  33.045  1.00  0.00    -0.380 N 
HETATM   18  C1  UNL     1      27.853 -20.511  33.240  1.00  0.00     0.147 C 
ATOM     19  H1  UNL     1      27.813 -18.864  32.060  1.00  0.00     0.160 HD
ENDBRANCH   1  17
TORSDOF 3
ENDMDL
MODEL 2
REMARK VINA RESULT: -4.780829571      4.073      5.106
REMARK  3 active torsions:
REMARK  status: ('A' for Active; 'I' for Inactive)
REMARK    1  A    between atoms: N1_2  and  C2_4 
REMARK    2  A    between atoms: C5_9  and  C6_10 
REMARK    3  A    between atoms: C6_10  and  N3_11 
ROOT
HETATM    1  C2  UNL     1      31.585 -14.817  36.607  1.00  0.00     0.120 A 
HETATM    2  N2  UNL     1      30.474 -15.020  37.408  1.00  0.00    -0.345 N 
ATOM      3  H2  UNL     1      30.578 -15.477  38.314  1.00  0.00     0.167 HD
HETATM    4  C3  UNL     1      29.275 -14.621  37.003  1.00  0.00     0.016 A 
HETATM    5  C4  UNL     1      28.107 -14.852  37.881  1.00  0.00     0.069 C 
HETATM    6  C5  UNL     1      29.078 -13.999  35.787  1.00  0.00     0.001 A 
HETATM    7  C8  UNL     1      30.166 -13.798  34.998  1.00  0.00     0.042 A 
HETATM    8 BR1  UNL     1      29.985 -12.954  33.321  1.00  0.00    -0.049 Br
HETATM    9  C9  UNL     1      31.452 -14.208  35.398  1.00  0.00     0.072 A 
HETATM   10 BR2  UNL     1      32.905 -13.868  34.194  1.00  0.00    -0.046 Br
ENDROOT
BRANCH   6  11
HETATM   11  C6  UNL     1      27.732 -13.592  35.415  1.00  0.00     0.164 C 
BRANCH  11  12
HETATM   12  N3  UNL     1      27.308 -12.291  35.879  1.00  0.00    -0.363 N 
HETATM   13  C7  UNL     1      26.872 -11.395  35.042  1.00  0.00     0.197 C 
HETATM   14  N4  UNL     1      26.471 -10.144  35.537  1.00  0.00    -0.067 NA
HETATM   15  N5  UNL     1      26.802 -11.670  33.654  1.00  0.00    -0.067 NA
ATOM     16  H3  UNL     1      27.350 -12.073  36.874  1.00  0.00     0.162 HD
ENDBRANCH  11  12
ENDBRANCH   6  11
BRANCH   1  17
HETATM   17  N1  UNL     1      32.690 -15.222  37.058  1.00  0.00    -0.380 N 
HETATM   18  C1  UNL     1      33.470 -16.356  36.829  1.00  0.00     0.147 C 
ATOM     19  H1  UNL     1      33.103 -14.582  37.737  1.00  0.00     0.160 HD
ENDBRANCH   1  17
TORSDOF 3
ENDMDL
MODEL 3
REMARK VINA RESULT: -4.769529064      3.497      4.098
REMARK  3 active torsions:
REMARK  status: ('A' for Active; 'I' for Inactive)
REMARK    1  A    between atoms: N1_2  and  C2_4 
REMARK    2  A    between atoms: C5_9  and  C6_10 
REMARK    3  A    between atoms: C6_10  and  N3_11 
ROOT
HETATM    1  C2  UNL     1      25.888 -15.758  33.319  1.00  0.00     0.120 A 
HETATM    2  N2  UNL     1      26.417 -15.696  34.597  1.00  0.00    -0.345 N 
ATOM      3  H2  UNL     1      26.360 -16.509  35.210  1.00  0.00     0.167 HD
HETATM    4  C3  UNL     1      26.997 -14.582  35.028  1.00  0.00     0.016 A 
HETATM    5  C4  UNL     1      27.552 -14.546  36.398  1.00  0.00     0.069 C 
HETATM    6  C5  UNL     1      27.101 -13.454  34.240  1.00  0.00     0.001 A 
HETATM    7  C8  UNL     1      26.583 -13.512  32.984  1.00  0.00     0.042 A 
HETATM    8 BR1  UNL     1      26.682 -12.014  31.843  1.00  0.00    -0.049 Br
HETATM    9  C9  UNL     1      25.961 -14.677  32.497  1.00  0.00     0.072 A 
HETATM   10 BR2  UNL     1      25.271 -14.630  30.709  1.00  0.00    -0.046 Br
ENDROOT
BRANCH   6  11
HETATM   11  C6  UNL     1      27.751 -12.273  34.785  1.00  0.00     0.164 C 
BRANCH  11  12
HETATM   12  N3  UNL     1      26.890 -11.317  35.443  1.00  0.00    -0.363 N 
HETATM   13  C7  UNL     1      26.971 -10.048  35.168  1.00  0.00     0.197 C 
HETATM   14  N4  UNL     1      26.115  -9.155  35.831  1.00  0.00    -0.067 NA
HETATM   15  N5  UNL     1      27.903  -9.569  34.216  1.00  0.00    -0.067 NA
ATOM     16  H3  UNL     1      26.210 -11.642  36.131  1.00  0.00     0.162 HD
ENDBRANCH  11  12
ENDBRANCH   6  11
BRANCH   1  17
HETATM   17  N1  UNL     1      25.353 -16.848  32.980  1.00  0.00    -0.380 N 
HETATM   18  C1  UNL     1      25.842 -18.037  32.435  1.00  0.00     0.147 C 
ATOM     19  H1  UNL     1      24.346 -16.865  33.139  1.00  0.00     0.160 HD
ENDBRANCH   1  17
TORSDOF 3
ENDMDL
MODEL 4
REMARK VINA RESULT: -4.748010987      4.154      5.427
REMARK  3 active torsions:
REMARK  status: ('A' for Active; 'I' for Inactive)
REMARK    1  A    between atoms: N1_2  and  C2_4 
REMARK    2  A    between atoms: C5_9  and  C6_10 
REMARK    3  A    between atoms: C6_10  and  N3_11 
ROOT
HETATM    1  C2  UNL     1      30.815 -14.843  36.513  1.00  0.00     0.120 A 
HETATM    2  N2  UNL     1      30.952 -13.771  35.648  1.00  0.00    -0.345 N 
ATOM      3  H2  UNL     1      31.884 -13.441  35.393  1.00  0.00     0.167 HD
HETATM    4  C3  UNL     1      29.879 -13.171  35.149  1.00  0.00     0.016 A 
HETATM    5  C4  UNL     1      30.058 -12.028  34.228  1.00  0.00     0.069 C 
HETATM    6  C5  UNL     1      28.597 -13.577  35.461  1.00  0.00     0.001 A 
HETATM    7  C8  UNL     1      28.458 -14.629  36.310  1.00  0.00     0.042 A 
HETATM    8 BR1  UNL     1      26.742 -15.247  36.788  1.00  0.00    -0.049 Br
HETATM    9  C9  UNL     1      29.575 -15.288  36.857  1.00  0.00     0.072 A 
HETATM   10 BR2  UNL     1      29.245 -16.758  38.041  1.00  0.00    -0.046 Br
ENDROOT
BRANCH   6  11
HETATM   11  C6  UNL     1      27.472 -12.868  34.873  1.00  0.00     0.164 C 
BRANCH  11  12
HETATM   12  N3  UNL     1      26.959 -11.748  35.628  1.00  0.00    -0.363 N 
HETATM   13  C7  UNL     1      26.771 -10.592  35.061  1.00  0.00     0.197 C 
HETATM   14  N4  UNL     1      26.271  -9.531  35.833  1.00  0.00    -0.067 NA
HETATM   15  N5  UNL     1      27.062 -10.400  33.688  1.00  0.00    -0.067 NA
ATOM     16  H3  UNL     1      26.742 -11.865  36.618  1.00  0.00     0.162 HD
ENDBRANCH  11  12
ENDBRANCH   6  11
BRANCH   1  17
HETATM   17  N1  UNL     1      31.878 -15.362  36.946  1.00  0.00    -0.380 N 
HETATM   18  C1  UNL     1      33.232 -15.046  36.813  1.00  0.00     0.147 C 
ATOM     19  H1  UNL     1      31.715 -16.191  37.517  1.00  0.00     0.160 HD
ENDBRANCH   1  17
TORSDOF 3
ENDMDL
MODEL 5
REMARK VINA RESULT: -4.734694485      3.005      3.722
REMARK  3 active torsions:
REMARK  status: ('A' for Active; 'I' for Inactive)
REMARK    1  A    between atoms: N1_2  and  C2_4 
REMARK    2  A    between atoms: C5_9  and  C6_10 
REMARK    3  A    between atoms: C6_10  and  N3_11 
ROOT
HETATM    1  C2  UNL     1      31.539 -16.680  35.711  1.00  0.00     0.120 A 
HETATM    2  N2  UNL     1      30.559 -17.483  36.270  1.00  0.00    -0.345 N 
ATOM      3  H2  UNL     1      30.734 -18.480  36.402  1.00  0.00     0.167 HD
HETATM    4  C3  UNL     1      29.393 -16.963  36.633  1.00  0.00     0.016 A 
HETATM    5  C4  UNL     1      28.366 -17.847  37.226  1.00  0.00     0.069 C 
HETATM    6  C5  UNL     1      29.104 -15.623  36.475  1.00  0.00     0.001 A 
HETATM    7  C8  UNL     1      30.064 -14.831  35.928  1.00  0.00     0.042 A 
HETATM    8 BR1  UNL     1      29.750 -12.989  35.678  1.00  0.00    -0.049 Br
HETATM    9  C9  UNL     1      31.311 -15.351  35.532  1.00  0.00     0.072 A 
HETATM   10 BR2  UNL     1      32.578 -14.130  34.772  1.00  0.00    -0.046 Br
ENDROOT
BRANCH   6  11
HETATM   11  C6  UNL     1      27.803 -15.129  36.899  1.00  0.00     0.164 C 
BRANCH  11  12
HETATM   12  N3  UNL     1      27.660 -14.836  38.306  1.00  0.00    -0.363 N 
HETATM   13  C7  UNL     1      26.584 -15.181  38.952  1.00  0.00     0.197 C 
HETATM   14  N4  UNL     1      26.487 -14.876  40.319  1.00  0.00    -0.067 NA
HETATM   15  N5  UNL     1      25.526 -15.855  38.294  1.00  0.00    -0.067 NA
ATOM     16  H3  UNL     1      28.410 -14.352  38.799  1.00  0.00     0.162 HD
ENDBRANCH  11  12
ENDBRANCH   6  11
BRANCH   1  17
HETATM   17  N1  UNL     1      32.619 -17.244  35.391  1.00  0.00    -0.380 N 
HETATM   18  C1  UNL     1      33.778 -17.583  36.093  1.00  0.00     0.147 C 
ATOM     19  H1  UNL     1      32.654 -17.512  34.408  1.00  0.00     0.160 HD
ENDBRANCH   1  17
TORSDOF 3
ENDMDL
