MODEL 1
REMARK VINA RESULT: -4.896672903      0.000      0.000
REMARK  4 active torsions:
REMARK  status: ('A' for Active; 'I' for Inactive)
REMARK    1  A    between atoms: C3_5  and  N2_6 
REMARK    2  A    between atoms: C4_11  and  N4_12 
REMARK    3  A    between atoms: N4_12  and  C5_14 
REMARK    4  A    between atoms: C5_14  and  C6_15 
ROOT
HETATM    1  C1  UNL     1      29.368 -16.102  34.604  1.00  0.00     0.070 C 
HETATM    2  C2  UNL     1      28.590 -15.211  35.506  1.00  0.00     0.043 A 
HETATM    3  N1  UNL     1      28.261 -13.947  35.174  1.00  0.00    -0.195 N 
ATOM      4  H1  UNL     1      28.551 -13.572  34.270  1.00  0.00     0.184 HD
HETATM    5  C3  UNL     1      27.555 -13.171  36.019  1.00  0.00     0.677 A 
HETATM    6  N3  UNL     1      27.155 -13.639  37.224  1.00  0.00    -0.176 N 
ATOM      7  H3  UNL     1      26.620 -13.038  37.851  1.00  0.00     0.186 HD
HETATM    8  C4  UNL     1      27.462 -14.904  37.601  1.00  0.00     0.136 A 
HETATM    9  C7  UNL     1      28.193 -15.710  36.731  1.00  0.00     0.077 A 
HETATM   10 BR2  UNL     1      28.656 -17.503  37.207  1.00  0.00    -0.045 Br
ENDROOT
BRANCH   8  11
HETATM   11  N4  UNL     1      27.112 -15.403  38.730  1.00  0.00    -0.374 N 
ATOM     12  H4  UNL     1      27.679 -16.146  39.137  1.00  0.00     0.161 HD
BRANCH  11  13
HETATM   13  C5  UNL     1      25.954 -14.952  39.436  1.00  0.00     0.132 C 
BRANCH  13  14
HETATM   14  C6  UNL     1      26.306 -14.958  40.930  1.00  0.00     0.104 C 
HETATM   15 BR1  UNL     1      24.820 -14.194  41.904  1.00  0.00    -0.095 Br
ENDBRANCH  13  14
ENDBRANCH  11  13
ENDBRANCH   8  11
BRANCH   5  16
HETATM   16  N2  UNL     1      27.266 -11.958  35.645  1.00  0.00    -0.234 N 
ATOM     17  H22 UNL     1      26.298 -11.640  35.602  1.00  0.00     0.174 HD
ATOM     18  H21 UNL     1      28.035 -11.334  35.395  1.00  0.00     0.174 HD
ENDBRANCH   5  16
TORSDOF 4
ENDMDL
MODEL 2
REMARK VINA RESULT: -4.614522438      1.466      1.527
REMARK  4 active torsions:
REMARK  status: ('A' for Active; 'I' for Inactive)
REMARK    1  A    between atoms: C3_5  and  N2_6 
REMARK    2  A    between atoms: C4_11  and  N4_12 
REMARK    3  A    between atoms: N4_12  and  C5_14 
REMARK    4  A    between atoms: C5_14  and  C6_15 
ROOT
HETATM    1  C1  UNL     1      30.772 -13.554  34.830  1.00  0.00     0.070 C 
HETATM    2  C2  UNL     1      29.474 -13.355  35.531  1.00  0.00     0.043 A 
HETATM    3  N1  UNL     1      28.674 -12.297  35.293  1.00  0.00    -0.195 N 
ATOM      4  H1  UNL     1      28.957 -11.597  34.606  1.00  0.00     0.184 HD
HETATM    5  C3  UNL     1      27.506 -12.151  35.948  1.00  0.00     0.677 A 
HETATM    6  N3  UNL     1      27.104 -13.063  36.863  1.00  0.00    -0.176 N 
ATOM      7  H3  UNL     1      26.216 -12.938  37.350  1.00  0.00     0.186 HD
HETATM    8  C4  UNL     1      27.875 -14.143  37.135  1.00  0.00     0.136 A 
HETATM    9  C7  UNL     1      29.084 -14.299  36.461  1.00  0.00     0.077 A 
HETATM   10 BR2  UNL     1      30.216 -15.801  36.802  1.00  0.00    -0.045 Br
ENDROOT
BRANCH   8  11
HETATM   11  N4  UNL     1      27.547 -15.041  37.992  1.00  0.00    -0.374 N 
ATOM     12  H4  UNL     1      28.126 -15.876  38.078  1.00  0.00     0.161 HD
BRANCH  11  13
HETATM   13  C5  UNL     1      26.397 -14.909  38.831  1.00  0.00     0.132 C 
BRANCH  13  14
HETATM   14  C6  UNL     1      26.877 -15.062  40.280  1.00  0.00     0.104 C 
HETATM   15 BR1  UNL     1      25.418 -14.576  41.454  1.00  0.00    -0.095 Br
ENDBRANCH  13  14
ENDBRANCH  11  13
ENDBRANCH   8  11
BRANCH   5  16
HETATM   16  N2  UNL     1      26.775 -11.109  35.677  1.00  0.00    -0.234 N 
ATOM     17  H22 UNL     1      27.191 -10.266  35.283  1.00  0.00     0.174 HD
ATOM     18  H21 UNL     1      25.774 -11.159  35.870  1.00  0.00     0.174 HD
ENDBRANCH   5  16
TORSDOF 4
ENDMDL
MODEL 3
REMARK VINA RESULT: -4.579825064      2.827      3.834
REMARK  4 active torsions:
REMARK  status: ('A' for Active; 'I' for Inactive)
REMARK    1  A    between atoms: C3_5  and  N2_6 
REMARK    2  A    between atoms: C4_11  and  N4_12 
REMARK    3  A    between atoms: N4_12  and  C5_14 
REMARK    4  A    between atoms: C5_14  and  C6_15 
ROOT
HETATM    1  C1  UNL     1      26.867 -11.790  31.505  1.00  0.00     0.070 C 
HETATM    2  C2  UNL     1      26.927 -11.775  32.992  1.00  0.00     0.043 A 
HETATM    3  N1  UNL     1      26.813 -10.642  33.714  1.00  0.00    -0.195 N 
ATOM      4  H1  UNL     1      26.680  -9.752  33.234  1.00  0.00     0.184 HD
HETATM    5  C3  UNL     1      26.872 -10.670  35.059  1.00  0.00     0.677 A 
HETATM    6  N3  UNL     1      27.047 -11.836  35.724  1.00  0.00    -0.176 N 
ATOM      7  H3  UNL     1      27.089 -11.839  36.743  1.00  0.00     0.186 HD
HETATM    8  C4  UNL     1      27.165 -13.000  35.041  1.00  0.00     0.136 A 
HETATM    9  C7  UNL     1      27.105 -12.977  33.649  1.00  0.00     0.077 A 
HETATM   10 BR2  UNL     1      27.266 -14.586  32.630  1.00  0.00    -0.045 Br
ENDROOT
BRANCH   8  11
HETATM   11  N4  UNL     1      27.333 -14.135  35.615  1.00  0.00    -0.374 N 
ATOM     12  H4  UNL     1      27.285 -14.984  35.052  1.00  0.00     0.161 HD
BRANCH  11  13
HETATM   13  C5  UNL     1      27.584 -14.251  37.018  1.00  0.00     0.132 C 
BRANCH  13  14
HETATM   14  C6  UNL     1      26.768 -15.448  37.524  1.00  0.00     0.104 C 
HETATM   15 BR1  UNL     1      25.917 -14.938  39.185  1.00  0.00    -0.095 Br
ENDBRANCH  13  14
ENDBRANCH  11  13
ENDBRANCH   8  11
BRANCH   5  16
HETATM   16  N2  UNL     1      26.757  -9.545  35.703  1.00  0.00    -0.234 N 
ATOM     17  H22 UNL     1      26.129  -9.462  36.502  1.00  0.00     0.174 HD
ATOM     18  H21 UNL     1      27.312  -8.749  35.387  1.00  0.00     0.174 HD
ENDBRANCH   5  16
TORSDOF 4
ENDMDL
MODEL 4
REMARK VINA RESULT: -4.526457042      3.934      5.500
REMARK  4 active torsions:
REMARK  status: ('A' for Active; 'I' for Inactive)
REMARK    1  A    between atoms: C3_5  and  N2_6 
REMARK    2  A    between atoms: C4_11  and  N4_12 
REMARK    3  A    between atoms: N4_12  and  C5_14 
REMARK    4  A    between atoms: C5_14  and  C6_15 
ROOT
HETATM    1  C1  UNL     1      28.109 -17.683  35.207  1.00  0.00     0.070 C 
HETATM    2  C2  UNL     1      28.704 -16.774  36.224  1.00  0.00     0.043 A 
HETATM    3  N1  UNL     1      28.094 -16.490  37.392  1.00  0.00    -0.195 N 
ATOM      4  H1  UNL     1      27.187 -16.908  37.600  1.00  0.00     0.184 HD
HETATM    5  C3  UNL     1      28.665 -15.661  38.288  1.00  0.00     0.677 A 
HETATM    6  N3  UNL     1      29.868 -15.092  38.040  1.00  0.00    -0.176 N 
ATOM      7  H3  UNL     1      30.286 -14.467  38.730  1.00  0.00     0.186 HD
HETATM    8  C4  UNL     1      30.519 -15.349  36.880  1.00  0.00     0.136 A 
HETATM    9  C7  UNL     1      29.933 -16.204  35.950  1.00  0.00     0.077 A 
HETATM   10 BR2  UNL     1      30.802 -16.604  34.296  1.00  0.00    -0.045 Br
ENDROOT
BRANCH   8  11
HETATM   11  N4  UNL     1      31.660 -14.838  36.590  1.00  0.00    -0.374 N 
ATOM     12  H4  UNL     1      31.713 -14.140  35.849  1.00  0.00     0.161 HD
BRANCH  11  13
HETATM   13  C5  UNL     1      32.860 -15.216  37.270  1.00  0.00     0.132 C 
BRANCH  13  14
HETATM   14  C6  UNL     1      33.944 -15.399  36.200  1.00  0.00     0.104 C 
HETATM   15 BR1  UNL     1      34.948 -16.997  36.627  1.00  0.00    -0.095 Br
ENDBRANCH  13  14
ENDBRANCH  11  13
ENDBRANCH   8  11
BRANCH   5  16
HETATM   16  N2  UNL     1      28.030 -15.423  39.398  1.00  0.00    -0.234 N 
ATOM     17  H22 UNL     1      27.249 -16.011  39.691  1.00  0.00     0.174 HD
ATOM     18  H21 UNL     1      28.333 -14.633  39.968  1.00  0.00     0.174 HD
ENDBRANCH   5  16
TORSDOF 4
ENDMDL
MODEL 5
REMARK VINA RESULT: -4.470300780      3.751      6.915
REMARK  4 active torsions:
REMARK  status: ('A' for Active; 'I' for Inactive)
REMARK    1  A    between atoms: C3_5  and  N2_6 
REMARK    2  A    between atoms: C4_11  and  N4_12 
REMARK    3  A    between atoms: N4_12  and  C5_14 
REMARK    4  A    between atoms: C5_14  and  C6_15 
ROOT
HETATM    1  C1  UNL     1      24.937 -13.315  45.159  1.00  0.00     0.070 C 
HETATM    2  C2  UNL     1      25.861 -13.754  44.078  1.00  0.00     0.043 A 
HETATM    3  N1  UNL     1      27.201 -13.649  44.180  1.00  0.00    -0.195 N 
ATOM      4  H1  UNL     1      27.612 -13.254  45.026  1.00  0.00     0.184 HD
HETATM    5  C3  UNL     1      28.005 -14.057  43.179  1.00  0.00     0.677 A 
HETATM    6  N3  UNL     1      27.490 -14.585  42.044  1.00  0.00    -0.176 N 
ATOM      7  H3  UNL     1      28.113 -14.890  41.296  1.00  0.00     0.186 HD
HETATM    8  C4  UNL     1      26.149 -14.711  41.898  1.00  0.00     0.136 A 
HETATM    9  C7  UNL     1      25.313 -14.289  42.929  1.00  0.00     0.077 A 
HETATM   10 BR2  UNL     1      23.413 -14.441  42.781  1.00  0.00    -0.045 Br
ENDROOT
BRANCH   8  11
HETATM   11  N4  UNL     1      25.602 -15.202  40.846  1.00  0.00    -0.374 N 
ATOM     12  H4  UNL     1      25.132 -16.105  40.911  1.00  0.00     0.161 HD
BRANCH  11  13
HETATM   13  C5  UNL     1      25.631 -14.528  39.586  1.00  0.00     0.132 C 
BRANCH  13  14
HETATM   14  C6  UNL     1      26.115 -15.543  38.543  1.00  0.00     0.104 C 
HETATM   15 BR1  UNL     1      28.048 -15.470  38.482  1.00  0.00    -0.095 Br
ENDBRANCH  13  14
ENDBRANCH  11  13
ENDBRANCH   8  11
BRANCH   5  16
HETATM   16  N2  UNL     1      29.291 -13.931  43.333  1.00  0.00    -0.234 N 
ATOM     17  H22 UNL     1      29.783 -14.441  44.066  1.00  0.00     0.174 HD
ATOM     18  H21 UNL     1      29.794 -13.308  42.699  1.00  0.00     0.174 HD
ENDBRANCH   5  16
TORSDOF 4
ENDMDL
