MODEL 1
REMARK VINA RESULT: -6.947360951      0.000      0.000
REMARK  6 active torsions:
REMARK  status: ('A' for Active; 'I' for Inactive)
REMARK    1  A    between atoms: C2_3  and  C3_4 
REMARK    2  A    between atoms: C3_4  and  N2_5 
REMARK    3  A    between atoms: N2_5  and  O1_6 
REMARK    4  A    between atoms: N2_5  and  C4_8 
REMARK    5  A    between atoms: C4_8  and  C5_9 
REMARK    6  A    between atoms: C5_9  and  C6_10 
ROOT
HETATM    1  N2  UNL     1      27.264 -15.620  38.871  1.00  0.00    -0.183 NA
ENDROOT
BRANCH   1   2
HETATM    2  C3  UNL     1      27.493 -14.871  37.676  1.00  0.00     0.180 C 
BRANCH   2   3
HETATM    3  C2  UNL     1      28.710 -15.357  36.973  1.00  0.00     0.051 A 
HETATM    4  C1  UNL     1      28.771 -16.074  35.783  1.00  0.00     0.090 A 
HETATM    5  N1  UNL     1      27.665 -16.489  34.994  1.00  0.00    -0.099 NA
HETATM    6  C11 UNL     1      30.092 -16.317  35.492  1.00  0.00     0.071 A 
HETATM    7  C10 UNL     1      30.816 -15.743  36.513  1.00  0.00     0.099 A 
HETATM    8 BR2  UNL     1      30.847 -17.238  34.026  1.00  0.00    -0.046 Br
HETATM    9  N4  UNL     1      29.974 -15.164  37.405  1.00  0.00    -0.350 N 
HETATM   10 BR1  UNL     1      32.709 -15.741  36.680  1.00  0.00    -0.030 Br
ATOM     11  H4  UNL     1      30.248 -14.668  38.253  1.00  0.00     0.166 HD
ENDBRANCH   2   3
ENDBRANCH   1   2
BRANCH   1  12
HETATM   12  O1  UNL     1      28.247 -15.268  39.764  1.00  0.00    -0.312 OA
ATOM     13  H1  UNL     1      27.971 -15.578  40.619  1.00  0.00     0.237 HD
ENDBRANCH   1  12
BRANCH   1  14
HETATM   14  C4  UNL     1      26.009 -15.434  39.447  1.00  0.00     0.206 C 
BRANCH  14  15
HETATM   15  C5  UNL     1      26.000 -15.073  40.711  1.00  0.00    -0.126 C 
BRANCH  15  16
HETATM   16  C6  UNL     1      25.856 -14.711  41.939  1.00  0.00     0.053 C 
HETATM   17  C7  UNL     1      24.591 -14.574  42.626  1.00  0.00     0.072 C 
HETATM   18  C8  UNL     1      25.065 -14.529  44.088  1.00  0.00     0.128 C 
HETATM   19  N3  UNL     1      26.378 -13.920  44.017  1.00  0.00    -0.356 N 
HETATM   20  C9  UNL     1      26.960 -14.394  42.796  1.00  0.00     0.255 C 
ATOM     21  H3  UNL     1      26.801 -13.287  44.695  1.00  0.00     0.162 HD
HETATM   22  O2  UNL     1      28.179 -14.500  42.554  1.00  0.00    -0.267 OA
ENDBRANCH  15  16
ENDBRANCH  14  15
ENDBRANCH   1  14
TORSDOF 6
ENDMDL
MODEL 2
REMARK VINA RESULT: -6.798223188      1.516      1.554
REMARK  6 active torsions:
REMARK  status: ('A' for Active; 'I' for Inactive)
REMARK    1  A    between atoms: C2_3  and  C3_4 
REMARK    2  A    between atoms: C3_4  and  N2_5 
REMARK    3  A    between atoms: N2_5  and  O1_6 
REMARK    4  A    between atoms: N2_5  and  C4_8 
REMARK    5  A    between atoms: C4_8  and  C5_9 
REMARK    6  A    between atoms: C5_9  and  C6_10 
ROOT
HETATM    1  N2  UNL     1      26.882 -15.775  39.113  1.00  0.00    -0.183 NA
ENDROOT
BRANCH   1   2
HETATM    2  C3  UNL     1      26.832 -16.270  37.774  1.00  0.00     0.180 C 
BRANCH   2   3
HETATM    3  C2  UNL     1      27.985 -15.763  36.981  1.00  0.00     0.051 A 
HETATM    4  C1  UNL     1      29.103 -16.476  36.563  1.00  0.00     0.090 A 
HETATM    5  N1  UNL     1      29.367 -17.849  36.815  1.00  0.00    -0.099 NA
HETATM    6  C11 UNL     1      29.919 -15.625  35.857  1.00  0.00     0.071 A 
HETATM    7  C10 UNL     1      29.283 -14.404  35.858  1.00  0.00     0.099 A 
HETATM    8 BR2  UNL     1      31.580 -15.970  35.028  1.00  0.00    -0.046 Br
HETATM    9  N4  UNL     1      28.114 -14.494  36.539  1.00  0.00    -0.350 N 
HETATM   10 BR1  UNL     1      29.916 -12.811  35.039  1.00  0.00    -0.030 Br
ATOM     11  H4  UNL     1      27.448 -13.737  36.691  1.00  0.00     0.166 HD
ENDBRANCH   2   3
ENDBRANCH   1   2
BRANCH   1  12
HETATM   12  O1  UNL     1      28.130 -15.231  39.298  1.00  0.00    -0.312 OA
ATOM     13  H1  UNL     1      28.580 -15.774  39.935  1.00  0.00     0.237 HD
ENDBRANCH   1  12
BRANCH   1  14
HETATM   14  C4  UNL     1      25.903 -14.834  39.426  1.00  0.00     0.206 C 
BRANCH  14  15
HETATM   15  C5  UNL     1      25.662 -14.651  40.706  1.00  0.00    -0.126 C 
BRANCH  15  16
HETATM   16  C6  UNL     1      25.552 -14.519  41.983  1.00  0.00     0.053 C 
HETATM   17  C7  UNL     1      24.304 -14.454  42.709  1.00  0.00     0.072 C 
HETATM   18  C8  UNL     1      24.797 -14.706  44.144  1.00  0.00     0.128 C 
HETATM   19  N3  UNL     1      26.139 -14.159  44.160  1.00  0.00    -0.356 N 
HETATM   20  C9  UNL     1      26.681 -14.422  42.860  1.00  0.00     0.255 C 
ATOM     21  H3  UNL     1      26.602 -13.685  44.935  1.00  0.00     0.162 HD
HETATM   22  O2  UNL     1      27.890 -14.539  42.576  1.00  0.00    -0.267 OA
ENDBRANCH  15  16
ENDBRANCH  14  15
ENDBRANCH   1  14
TORSDOF 6
ENDMDL
MODEL 3
REMARK VINA RESULT: -6.737459716      1.563      1.764
REMARK  6 active torsions:
REMARK  status: ('A' for Active; 'I' for Inactive)
REMARK    1  A    between atoms: C2_3  and  C3_4 
REMARK    2  A    between atoms: C3_4  and  N2_5 
REMARK    3  A    between atoms: N2_5  and  O1_6 
REMARK    4  A    between atoms: N2_5  and  C4_8 
REMARK    5  A    between atoms: C4_8  and  C5_9 
REMARK    6  A    between atoms: C5_9  and  C6_10 
ROOT
HETATM    1  N2  UNL     1      27.667 -15.048  38.324  1.00  0.00    -0.183 NA
ENDROOT
BRANCH   1   2
HETATM    2  C3  UNL     1      28.199 -16.354  38.095  1.00  0.00     0.180 C 
BRANCH   2   3
HETATM    3  C2  UNL     1      29.365 -16.295  37.173  1.00  0.00     0.051 A 
HETATM    4  C1  UNL     1      29.525 -16.968  35.966  1.00  0.00     0.090 A 
HETATM    5  N1  UNL     1      28.591 -17.856  35.369  1.00  0.00    -0.099 NA
HETATM    6  C11 UNL     1      30.748 -16.627  35.441  1.00  0.00     0.071 A 
HETATM    7  C10 UNL     1      31.315 -15.750  36.339  1.00  0.00     0.099 A 
HETATM    8 BR2  UNL     1      31.562 -17.194  33.833  1.00  0.00    -0.046 Br
HETATM    9  N4  UNL     1      30.473 -15.554  37.384  1.00  0.00    -0.350 N 
HETATM   10 BR1  UNL     1      33.016 -14.921  36.172  1.00  0.00    -0.030 Br
ATOM     11  H4  UNL     1      30.647 -14.952  38.188  1.00  0.00     0.166 HD
ENDBRANCH   2   3
ENDBRANCH   1   2
BRANCH   1  12
HETATM   12  O1  UNL     1      27.619 -14.412  37.107  1.00  0.00    -0.312 OA
ATOM     13  H1  UNL     1      26.743 -14.056  37.012  1.00  0.00     0.237 HD
ENDBRANCH   1  12
BRANCH   1  14
HETATM   14  C4  UNL     1      26.409 -15.025  38.922  1.00  0.00     0.206 C 
BRANCH  14  15
HETATM   15  C5  UNL     1      26.384 -15.197  40.226  1.00  0.00    -0.126 C 
BRANCH  15  16
HETATM   16  C6  UNL     1      26.396 -15.235  41.513  1.00  0.00     0.053 C 
HETATM   17  C7  UNL     1      27.551 -15.534  42.328  1.00  0.00     0.072 C 
HETATM   18  C8  UNL     1      27.065 -15.041  43.702  1.00  0.00     0.128 C 
HETATM   19  N3  UNL     1      25.631 -15.243  43.665  1.00  0.00    -0.356 N 
HETATM   20  C9  UNL     1      25.235 -14.976  42.314  1.00  0.00     0.255 C 
ATOM     21  H3  UNL     1      25.028 -15.519  44.440  1.00  0.00     0.162 HD
HETATM   22  O2  UNL     1      24.108 -14.596  41.938  1.00  0.00    -0.267 OA
ENDBRANCH  15  16
ENDBRANCH  14  15
ENDBRANCH   1  14
TORSDOF 6
ENDMDL
MODEL 4
REMARK VINA RESULT: -6.729731794      2.017      2.148
REMARK  6 active torsions:
REMARK  status: ('A' for Active; 'I' for Inactive)
REMARK    1  A    between atoms: C2_3  and  C3_4 
REMARK    2  A    between atoms: C3_4  and  N2_5 
REMARK    3  A    between atoms: N2_5  and  O1_6 
REMARK    4  A    between atoms: N2_5  and  C4_8 
REMARK    5  A    between atoms: C4_8  and  C5_9 
REMARK    6  A    between atoms: C5_9  and  C6_10 
ROOT
HETATM    1  N2  UNL     1      26.846 -14.974  39.071  1.00  0.00    -0.183 NA
ENDROOT
BRANCH   1   2
HETATM    2  C3  UNL     1      26.854 -15.937  38.016  1.00  0.00     0.180 C 
BRANCH   2   3
HETATM    3  C2  UNL     1      27.989 -15.691  37.086  1.00  0.00     0.051 A 
HETATM    4  C1  UNL     1      28.952 -16.602  36.665  1.00  0.00     0.090 A 
HETATM    5  N1  UNL     1      29.041 -17.967  37.048  1.00  0.00    -0.099 NA
HETATM    6  C11 UNL     1      29.811 -15.957  35.808  1.00  0.00     0.071 A 
HETATM    7  C10 UNL     1      29.357 -14.660  35.722  1.00  0.00     0.099 A 
HETATM    8 BR2  UNL     1      31.324 -16.629  34.898  1.00  0.00    -0.046 Br
HETATM    9  N4  UNL     1      28.255 -14.506  36.496  1.00  0.00    -0.350 N 
HETATM   10 BR1  UNL     1      30.131 -13.270  34.684  1.00  0.00    -0.030 Br
ATOM     11  H4  UNL     1      27.720 -13.646  36.613  1.00  0.00     0.166 HD
ENDBRANCH   2   3
ENDBRANCH   1   2
BRANCH   1  12
HETATM   12  O1  UNL     1      25.548 -14.550  39.221  1.00  0.00    -0.312 OA
ATOM     13  H1  UNL     1      25.565 -13.792  39.794  1.00  0.00     0.237 HD
ENDBRANCH   1  12
BRANCH   1  14
HETATM   14  C4  UNL     1      27.338 -15.436  40.290  1.00  0.00     0.206 C 
BRANCH  14  15
HETATM   15  C5  UNL     1      26.572 -15.232  41.339  1.00  0.00    -0.126 C 
BRANCH  15  16
HETATM   16  C6  UNL     1      25.872 -15.148  42.418  1.00  0.00     0.053 C 
HETATM   17  C7  UNL     1      26.298 -15.589  43.726  1.00  0.00     0.072 C 
HETATM   18  C8  UNL     1      25.263 -14.881  44.616  1.00  0.00     0.128 C 
HETATM   19  N3  UNL     1      24.078 -14.800  43.787  1.00  0.00    -0.356 N 
HETATM   20  C9  UNL     1      24.551 -14.591  42.451  1.00  0.00     0.255 C 
ATOM     21  H3  UNL     1      23.107 -14.876  44.090  1.00  0.00     0.162 HD
HETATM   22  O2  UNL     1      23.925 -14.035  41.526  1.00  0.00    -0.267 OA
ENDBRANCH  15  16
ENDBRANCH  14  15
ENDBRANCH   1  14
TORSDOF 6
ENDMDL
MODEL 5
REMARK VINA RESULT: -6.579393724      2.165      2.390
REMARK  6 active torsions:
REMARK  status: ('A' for Active; 'I' for Inactive)
REMARK    1  A    between atoms: C2_3  and  C3_4 
REMARK    2  A    between atoms: C3_4  and  N2_5 
REMARK    3  A    between atoms: N2_5  and  O1_6 
REMARK    4  A    between atoms: N2_5  and  C4_8 
REMARK    5  A    between atoms: C4_8  and  C5_9 
REMARK    6  A    between atoms: C5_9  and  C6_10 
ROOT
HETATM    1  N2  UNL     1      27.825 -15.945  38.449  1.00  0.00    -0.183 NA
ENDROOT
BRANCH   1   2
HETATM    2  C3  UNL     1      27.809 -16.350  37.079  1.00  0.00     0.180 C 
BRANCH   2   3
HETATM    3  C2  UNL     1      28.700 -15.483  36.261  1.00  0.00     0.051 A 
HETATM    4  C1  UNL     1      29.932 -15.817  35.710  1.00  0.00     0.090 A 
HETATM    5  N1  UNL     1      30.591 -17.070  35.820  1.00  0.00    -0.099 NA
HETATM    6  C11 UNL     1      30.412 -14.722  35.031  1.00  0.00     0.071 A 
HETATM    7  C10 UNL     1      29.462 -13.737  35.182  1.00  0.00     0.099 A 
HETATM    8 BR2  UNL     1      32.025 -14.521  34.069  1.00  0.00    -0.046 Br
HETATM    9  N4  UNL     1      28.429 -14.204  35.927  1.00  0.00    -0.350 N 
HETATM   10 BR1  UNL     1      29.550 -11.978  34.469  1.00  0.00    -0.030 Br
ATOM     11  H4  UNL     1      27.594 -13.680  36.188  1.00  0.00     0.166 HD
ENDBRANCH   2   3
ENDBRANCH   1   2
BRANCH   1  12
HETATM   12  O1  UNL     1      28.958 -15.190  38.634  1.00  0.00    -0.312 OA
ATOM     13  H1  UNL     1      29.402 -15.536  39.399  1.00  0.00     0.237 HD
ENDBRANCH   1  12
BRANCH   1  14
HETATM   14  C4  UNL     1      26.704 -15.227  38.859  1.00  0.00     0.206 C 
BRANCH  14  15
HETATM   15  C5  UNL     1      26.475 -15.200  40.154  1.00  0.00    -0.126 C 
BRANCH  15  16
HETATM   16  C6  UNL     1      26.382 -15.203  41.439  1.00  0.00     0.053 C 
HETATM   17  C7  UNL     1      27.425 -15.616  42.350  1.00  0.00     0.072 C 
HETATM   18  C8  UNL     1      26.898 -15.030  43.671  1.00  0.00     0.128 C 
HETATM   19  N3  UNL     1      25.457 -15.060  43.522  1.00  0.00    -0.356 N 
HETATM   20  C9  UNL     1      25.203 -14.785  42.139  1.00  0.00     0.255 C 
ATOM     21  H3  UNL     1      24.766 -15.239  44.250  1.00  0.00     0.162 HD
HETATM   22  O2  UNL     1      24.163 -14.283  41.666  1.00  0.00    -0.267 OA
ENDBRANCH  15  16
ENDBRANCH  14  15
ENDBRANCH   1  14
TORSDOF 6
ENDMDL
