MODEL 1
REMARK VINA RESULT: -5.919485259      0.000      0.000
REMARK  3 active torsions:
REMARK  status: ('A' for Active; 'I' for Inactive)
REMARK    1  A    between atoms: N1_1  and  C1_5 
REMARK    2  A    between atoms: N2_10  and  C6_11 
REMARK    3  A    between atoms: C6_11  and  C7_12 
ROOT
HETATM    1  C1  UNL     1       3.683 -14.824 -20.869  1.00  0.00     0.417 C 
HETATM    2  C2  UNL     1       2.710 -13.696 -21.039  1.00  0.00     0.065 C 
HETATM    3  C3  UNL     1       2.954 -12.838 -22.232  1.00  0.00     0.005 C 
HETATM    4  C4  UNL     1       4.384 -12.702 -22.632  1.00  0.00     0.030 C 
HETATM    5  C5  UNL     1       5.199 -13.946 -22.350  1.00  0.00     0.275 C 
HETATM    6  N2  UNL     1       5.017 -14.267 -20.961  1.00  0.00     0.119 N 
ENDROOT
BRANCH   1   7
HETATM    7  N1  UNL     1       3.421 -15.581 -19.703  1.00  0.00    -0.048 N 
ATOM      8  H13 UNL     1       4.131 -15.418 -18.989  1.00  0.00     0.276 HD
ATOM      9  H12 UNL     1       2.606 -15.223 -19.205  1.00  0.00     0.276 HD
ATOM     10  H11 UNL     1       3.323 -16.576 -19.906  1.00  0.00     0.276 HD
ENDBRANCH   1   7
BRANCH   6  11
HETATM   11  C6  UNL     1       5.961 -15.220 -20.451  1.00  0.00     0.279 C 
BRANCH  11  12
HETATM   12  C7  UNL     1       7.385 -14.885 -20.702  1.00  0.00     0.014 A 
HETATM   13  C8  UNL     1       8.355 -15.942 -20.163  1.00  0.00     0.007 A 
HETATM   14  C9  UNL     1       8.305 -14.569 -19.514  1.00  0.00     0.007 A 
ENDBRANCH  11  12
ENDBRANCH   6  11
TORSDOF 3
ENDMDL
MODEL 2
REMARK VINA RESULT: -4.559546250      0.944      1.098
REMARK  3 active torsions:
REMARK  status: ('A' for Active; 'I' for Inactive)
REMARK    1  A    between atoms: N1_1  and  C1_5 
REMARK    2  A    between atoms: N2_10  and  C6_11 
REMARK    3  A    between atoms: C6_11  and  C7_12 
ROOT
HETATM    1  C1  UNL     1       3.732 -14.364 -20.786  1.00  0.00     0.417 C 
HETATM    2  C2  UNL     1       2.434 -13.659 -21.044  1.00  0.00     0.065 C 
HETATM    3  C3  UNL     1       2.316 -13.049 -22.399  1.00  0.00     0.005 C 
HETATM    4  C4  UNL     1       3.597 -12.567 -22.990  1.00  0.00     0.030 C 
HETATM    5  C5  UNL     1       4.791 -13.403 -22.581  1.00  0.00     0.275 C 
HETATM    6  N2  UNL     1       4.802 -13.454 -21.144  1.00  0.00     0.119 N 
ENDROOT
BRANCH   1   7
HETATM    7  N1  UNL     1       3.799 -14.891 -19.475  1.00  0.00    -0.048 N 
ATOM      8  H13 UNL     1       2.876 -14.922 -19.041  1.00  0.00     0.276 HD
ATOM      9  H12 UNL     1       4.004 -15.891 -19.489  1.00  0.00     0.276 HD
ATOM     10  H11 UNL     1       4.464 -14.385 -18.891  1.00  0.00     0.276 HD
ENDBRANCH   1   7
BRANCH   6  11
HETATM   11  C6  UNL     1       6.033 -13.932 -20.584  1.00  0.00     0.279 C 
BRANCH  11  12
HETATM   12  C7  UNL     1       6.783 -14.882 -21.442  1.00  0.00     0.014 A 
HETATM   13  C8  UNL     1       6.585 -16.346 -21.035  1.00  0.00     0.007 A 
HETATM   14  C9  UNL     1       7.942 -15.690 -20.840  1.00  0.00     0.007 A 
ENDBRANCH  11  12
ENDBRANCH   6  11
TORSDOF 3
ENDMDL
MODEL 3
REMARK VINA RESULT: -4.390236615      1.147      2.316
REMARK  3 active torsions:
REMARK  status: ('A' for Active; 'I' for Inactive)
REMARK    1  A    between atoms: N1_1  and  C1_5 
REMARK    2  A    between atoms: N2_10  and  C6_11 
REMARK    3  A    between atoms: C6_11  and  C7_12 
ROOT
HETATM    1  C1  UNL     1       4.149 -13.495 -21.926  1.00  0.00     0.417 C 
HETATM    2  C2  UNL     1       2.712 -13.770 -22.253  1.00  0.00     0.065 C 
HETATM    3  C3  UNL     1       1.940 -14.429 -21.161  1.00  0.00     0.005 C 
HETATM    4  C4  UNL     1       2.732 -15.343 -20.289  1.00  0.00     0.030 C 
HETATM    5  C5  UNL     1       4.167 -14.897 -20.110  1.00  0.00     0.275 C 
HETATM    6  N2  UNL     1       4.726 -14.725 -21.423  1.00  0.00     0.119 N 
ENDROOT
BRANCH   1   7
HETATM    7  N1  UNL     1       4.836 -12.902 -23.011  1.00  0.00    -0.048 N 
ATOM      8  H13 UNL     1       5.723 -13.374 -23.190  1.00  0.00     0.276 HD
ATOM      9  H12 UNL     1       4.369 -13.098 -23.897  1.00  0.00     0.276 HD
ATOM     10  H11 UNL     1       4.972 -11.900 -22.877  1.00  0.00     0.276 HD
ENDBRANCH   1   7
BRANCH   6  11
HETATM   11  C6  UNL     1       6.156 -14.616 -21.442  1.00  0.00     0.279 C 
BRANCH  11  12
HETATM   12  C7  UNL     1       6.849 -15.284 -20.312  1.00  0.00     0.014 A 
HETATM   13  C8  UNL     1       8.095 -14.528 -19.839  1.00  0.00     0.007 A 
HETATM   14  C9  UNL     1       8.251 -15.872 -20.530  1.00  0.00     0.007 A 
ENDBRANCH  11  12
ENDBRANCH   6  11
TORSDOF 3
ENDMDL
MODEL 4
REMARK VINA RESULT: -3.957013512      0.984      2.092
REMARK  3 active torsions:
REMARK  status: ('A' for Active; 'I' for Inactive)
REMARK    1  A    between atoms: N1_1  and  C1_5 
REMARK    2  A    between atoms: N2_10  and  C6_11 
REMARK    3  A    between atoms: C6_11  and  C7_12 
ROOT
HETATM    1  C1  UNL     1       5.295 -14.055 -21.682  1.00  0.00     0.417 C 
HETATM    2  C2  UNL     1       4.057 -13.459 -22.283  1.00  0.00     0.065 C 
HETATM    3  C3  UNL     1       2.922 -13.291 -21.332  1.00  0.00     0.005 C 
HETATM    4  C4  UNL     1       2.850 -14.309 -20.245  1.00  0.00     0.030 C 
HETATM    5  C5  UNL     1       4.212 -14.799 -19.801  1.00  0.00     0.275 C 
HETATM    6  N2  UNL     1       4.902 -15.257 -20.976  1.00  0.00     0.119 N 
ENDROOT
BRANCH   1   7
HETATM    7  N1  UNL     1       6.323 -14.222 -22.639  1.00  0.00    -0.048 N 
ATOM      8  H13 UNL     1       7.227 -14.364 -22.189  1.00  0.00     0.276 HD
ATOM      9  H12 UNL     1       6.239 -15.118 -23.120  1.00  0.00     0.276 HD
ATOM     10  H11 UNL     1       6.358 -13.448 -23.303  1.00  0.00     0.276 HD
ENDBRANCH   1   7
BRANCH   6  11
HETATM   11  C6  UNL     1       6.071 -16.043 -20.700  1.00  0.00     0.279 C 
BRANCH  11  12
HETATM   12  C7  UNL     1       7.352 -15.296 -20.753  1.00  0.00     0.014 A 
HETATM   13  C8  UNL     1       8.517 -16.055 -20.108  1.00  0.00     0.007 A 
HETATM   14  C9  UNL     1       7.986 -14.794 -19.447  1.00  0.00     0.007 A 
ENDBRANCH  11  12
ENDBRANCH   6  11
TORSDOF 3
ENDMDL
MODEL 5
REMARK VINA RESULT: -3.907194707      1.448      4.299
REMARK  3 active torsions:
REMARK  status: ('A' for Active; 'I' for Inactive)
REMARK    1  A    between atoms: N1_1  and  C1_5 
REMARK    2  A    between atoms: N2_10  and  C6_11 
REMARK    3  A    between atoms: C6_11  and  C7_12 
ROOT
HETATM    1  C1  UNL     1       4.760 -14.820 -20.157  1.00  0.00     0.417 C 
HETATM    2  C2  UNL     1       5.311 -16.206 -20.311  1.00  0.00     0.065 C 
HETATM    3  C3  UNL     1       6.645 -16.276 -20.973  1.00  0.00     0.005 C 
HETATM    4  C4  UNL     1       6.903 -15.216 -21.990  1.00  0.00     0.030 C 
HETATM    5  C5  UNL     1       6.233 -13.900 -21.658  1.00  0.00     0.275 C 
HETATM    6  N2  UNL     1       4.836 -14.174 -21.452  1.00  0.00     0.119 N 
ENDROOT
BRANCH   1   7
HETATM    7  N1  UNL     1       3.481 -14.821 -19.554  1.00  0.00    -0.048 N 
ATOM      8  H13 UNL     1       2.813 -15.360 -20.104  1.00  0.00     0.276 HD
ATOM      9  H12 UNL     1       3.474 -15.379 -18.700  1.00  0.00     0.276 HD
ATOM     10  H11 UNL     1       3.138 -13.875 -19.381  1.00  0.00     0.276 HD
ENDBRANCH   1   7
BRANCH   6  11
HETATM   11  C6  UNL     1       4.005 -13.005 -21.444  1.00  0.00     0.279 C 
BRANCH  11  12
HETATM   12  C7  UNL     1       2.967 -12.969 -22.504  1.00  0.00     0.014 A 
HETATM   13  C8  UNL     1       1.546 -12.825 -21.950  1.00  0.00     0.007 A 
HETATM   14  C9  UNL     1       1.963 -14.126 -22.616  1.00  0.00     0.007 A 
ENDBRANCH  11  12
ENDBRANCH   6  11
TORSDOF 3
ENDMDL
