MODEL 1
REMARK VINA RESULT: -4.733996806      0.000      0.000
REMARK  1 active torsions:
REMARK  status: ('A' for Active; 'I' for Inactive)
REMARK    1  A    between atoms: C6_6  and  N1_7 
ROOT
HETATM    1  C1  UNL     1      21.685  14.530  13.123  1.00  0.00     0.010 C 
HETATM    2  C2  UNL     1      22.487  14.472  11.862  1.00  0.00    -0.017 C 
HETATM    3  C3  UNL     1      21.643  14.728  10.619  1.00  0.00     0.004 C 
HETATM    4  C4  UNL     1      22.541  14.762   9.419  1.00  0.00     0.002 C 
HETATM    5  C5  UNL     1      23.451  13.584   9.302  1.00  0.00     0.033 C 
HETATM    6  C6  UNL     1      24.166  13.266  10.587  1.00  0.00     0.183 C 
HETATM    7  C7  UNL     1      23.094  13.076  11.656  1.00  0.00     0.037 C 
ENDROOT
BRANCH   6   8
HETATM    8  N1  UNL     1      24.969  12.097  10.460  1.00  0.00    -0.075 N 
ATOM      9  H13 UNL     1      25.158  11.674  11.369  1.00  0.00     0.274 HD
ATOM     10  H12 UNL     1      24.448  11.330  10.035  1.00  0.00     0.274 HD
ATOM     11  H11 UNL     1      25.831  12.290   9.952  1.00  0.00     0.274 HD
ENDBRANCH   6   8
TORSDOF 1
ENDMDL
MODEL 2
REMARK VINA RESULT: -4.615141414      1.434      2.251
REMARK  1 active torsions:
REMARK  status: ('A' for Active; 'I' for Inactive)
REMARK    1  A    between atoms: C6_6  and  N1_7 
ROOT
HETATM    1  C1  UNL     1      24.754  12.412  13.082  1.00  0.00     0.010 C 
HETATM    2  C2  UNL     1      24.074  13.305  12.093  1.00  0.00    -0.017 C 
HETATM    3  C3  UNL     1      22.589  13.479  12.386  1.00  0.00     0.004 C 
HETATM    4  C4  UNL     1      22.015  14.472  11.419  1.00  0.00     0.002 C 
HETATM    5  C5  UNL     1      22.322  14.180   9.988  1.00  0.00     0.033 C 
HETATM    6  C6  UNL     1      23.775  13.871   9.750  1.00  0.00     0.183 C 
HETATM    7  C7  UNL     1      24.140  12.715  10.676  1.00  0.00     0.037 C 
ENDROOT
BRANCH   6   8
HETATM    8  N1  UNL     1      24.019  13.528   8.390  1.00  0.00    -0.075 N 
ATOM      9  H13 UNL     1      23.537  12.668   8.130  1.00  0.00     0.274 HD
ATOM     10  H12 UNL     1      23.550  14.172   7.753  1.00  0.00     0.274 HD
ATOM     11  H11 UNL     1      25.018  13.470   8.194  1.00  0.00     0.274 HD
ENDBRANCH   6   8
TORSDOF 1
ENDMDL
MODEL 3
REMARK VINA RESULT: -4.363699831      1.936      2.706
REMARK  1 active torsions:
REMARK  status: ('A' for Active; 'I' for Inactive)
REMARK    1  A    between atoms: C6_6  and  N1_7 
ROOT
HETATM    1  C1  UNL     1      23.258  12.630  13.585  1.00  0.00     0.010 C 
HETATM    2  C2  UNL     1      23.185  12.846  12.106  1.00  0.00    -0.017 C 
HETATM    3  C3  UNL     1      24.561  12.899  11.454  1.00  0.00     0.004 C 
HETATM    4  C4  UNL     1      24.392  13.004   9.967  1.00  0.00     0.002 C 
HETATM    5  C5  UNL     1      23.471  14.096   9.533  1.00  0.00     0.033 C 
HETATM    6  C6  UNL     1      22.174  14.108  10.294  1.00  0.00     0.183 C 
HETATM    7  C7  UNL     1      22.530  14.195  11.775  1.00  0.00     0.037 C 
ENDROOT
BRANCH   6   8
HETATM    8  N1  UNL     1      21.351  15.202   9.904  1.00  0.00    -0.075 N 
ATOM      9  H13 UNL     1      21.717  16.087  10.255  1.00  0.00     0.274 HD
ATOM     10  H12 UNL     1      21.424  15.386   8.903  1.00  0.00     0.274 HD
ATOM     11  H11 UNL     1      20.382  15.059  10.188  1.00  0.00     0.274 HD
ENDBRANCH   6   8
TORSDOF 1
ENDMDL
MODEL 4
REMARK VINA RESULT: -4.362528511      1.133      2.570
REMARK  1 active torsions:
REMARK  status: ('A' for Active; 'I' for Inactive)
REMARK    1  A    between atoms: C6_6  and  N1_7 
ROOT
HETATM    1  C1  UNL     1      22.225  15.044   9.519  1.00  0.00     0.010 C 
HETATM    2  C2  UNL     1      22.492  14.091  10.641  1.00  0.00    -0.017 C 
HETATM    3  C3  UNL     1      21.884  14.554  11.959  1.00  0.00     0.004 C 
HETATM    4  C4  UNL     1      22.102  13.492  12.996  1.00  0.00     0.002 C 
HETATM    5  C5  UNL     1      23.517  13.029  13.109  1.00  0.00     0.033 C 
HETATM    6  C6  UNL     1      24.140  12.715  11.777  1.00  0.00     0.183 C 
HETATM    7  C7  UNL     1      23.999  13.966  10.914  1.00  0.00     0.037 C 
ENDROOT
BRANCH   6   8
HETATM    8  N1  UNL     1      25.508  12.346  11.915  1.00  0.00    -0.075 N 
ATOM      9  H13 UNL     1      25.617  11.541  12.532  1.00  0.00     0.274 HD
ATOM     10  H12 UNL     1      25.874  11.937  11.055  1.00  0.00     0.274 HD
ATOM     11  H11 UNL     1      26.078  13.134  12.225  1.00  0.00     0.274 HD
ENDBRANCH   6   8
TORSDOF 1
ENDMDL
MODEL 5
REMARK VINA RESULT: -4.279386305      1.388      2.301
REMARK  1 active torsions:
REMARK  status: ('A' for Active; 'I' for Inactive)
REMARK    1  A    between atoms: C6_6  and  N1_7 
ROOT
HETATM    1  C1  UNL     1      21.796  14.925  12.639  1.00  0.00     0.010 C 
HETATM    2  C2  UNL     1      22.523  13.907  11.819  1.00  0.00    -0.017 C 
HETATM    3  C3  UNL     1      23.709  13.300  12.558  1.00  0.00     0.004 C 
HETATM    4  C4  UNL     1      24.309  12.217  11.711  1.00  0.00     0.002 C 
HETATM    5  C5  UNL     1      24.615  12.635  10.311  1.00  0.00     0.033 C 
HETATM    6  C6  UNL     1      23.475  13.360   9.652  1.00  0.00     0.183 C 
HETATM    7  C7  UNL     1      23.119  14.540  10.552  1.00  0.00     0.037 C 
ENDROOT
BRANCH   6   8
HETATM    8  N1  UNL     1      23.825  13.806   8.346  1.00  0.00    -0.075 N 
ATOM      9  H13 UNL     1      24.776  13.530   8.100  1.00  0.00     0.274 HD
ATOM     10  H12 UNL     1      23.319  13.289   7.626  1.00  0.00     0.274 HD
ATOM     11  H11 UNL     1      23.691  14.812   8.246  1.00  0.00     0.274 HD
ENDBRANCH   6   8
TORSDOF 1
ENDMDL
