MODEL 1
REMARK VINA RESULT: -6.857749320      0.000      0.000
REMARK  8 active torsions:
REMARK  status: ('A' for Active; 'I' for Inactive)
REMARK    1  A    between atoms: C3_3  and  C4_4 
REMARK    2  A    between atoms: C7_7  and  C8_8 
REMARK    3  A    between atoms: C8_8  and  S1_9 
REMARK    4  A    between atoms: S1_9  and  C9_10 
REMARK    5  A    between atoms: C10_12  and  N1_13 
REMARK    6  A    between atoms: N4_20  and  O1_21 
REMARK    7  A    between atoms: C12_23  and  C13_24 
REMARK    8  A    between atoms: C13_24  and  C14_25 
ROOT
HETATM    1  C1  UNL     1      22.022   3.365  92.860  1.00  0.00     0.051 C 
HETATM    2  C2  UNL     1      23.083   3.733  93.854  1.00  0.00    -0.024 A 
HETATM    3  C3  UNL     1      24.339   3.291  93.870  1.00  0.00    -0.021 A 
HETATM    4  C7  UNL     1      25.057   3.903  95.023  1.00  0.00     0.057 A 
HETATM    5  N4  UNL     1      24.239   4.652  95.618  1.00  0.00    -0.227 N 
HETATM    6  C12 UNL     1      22.942   4.638  94.973  1.00  0.00     0.070 A 
ENDROOT
BRANCH   4   7
HETATM    7  C8  UNL     1      26.489   3.679  95.434  1.00  0.00     0.140 C 
BRANCH   7   8
HETATM    8  S1  UNL     1      26.620   2.335  96.599  1.00  0.00    -0.113 SA
BRANCH   8   9
HETATM    9  C9  UNL     1      27.696   2.792  97.972  1.00  0.00     0.086 A 
HETATM   10  S2  UNL     1      29.314   2.287  98.245  1.00  0.00    -0.044 SA
HETATM   11  C10 UNL     1      29.594   3.134  99.699  1.00  0.00     0.144 A 
HETATM   12  N2  UNL     1      28.442   3.763  99.910  1.00  0.00    -0.324 N 
HETATM   13  C11 UNL     1      27.470   3.600  99.043  1.00  0.00     0.142 A 
ATOM     14  H2  UNL     1      28.317   4.360 100.728  1.00  0.00     0.169 HD
HETATM   15  N3  UNL     1      26.173   4.250  99.194  1.00  0.00    -0.081 NA
BRANCH  11  16
HETATM   16  N1  UNL     1      30.682   3.168 100.444  1.00  0.00    -0.380 N 
ATOM     17  H12 UNL     1      31.514   2.584 100.363  1.00  0.00     0.158 HD
ATOM     18  H11 UNL     1      30.900   3.774 101.235  1.00  0.00     0.158 HD
ENDBRANCH  11  16
ENDBRANCH   8   9
ENDBRANCH   7   8
ENDBRANCH   4   7
BRANCH   3  19
HETATM   19  C4  UNL     1      25.047   2.374  92.981  1.00  0.00     0.013 C 
HETATM   20  C5  UNL     1      24.462   0.949  93.140  1.00  0.00     0.015 C 
HETATM   21  C6  UNL     1      25.013   2.615  91.510  1.00  0.00     0.015 C 
ENDBRANCH   3  19
BRANCH   5  22
HETATM   22  O1  UNL     1      24.542   5.405  96.756  1.00  0.00    -0.282 OA
ATOM     23  H1  UNL     1      24.495   5.075  97.646  1.00  0.00     0.245 HD
ENDBRANCH   5  22
BRANCH   6  24
HETATM   24  C13 UNL     1      21.968   5.401  95.366  1.00  0.00     0.051 C 
BRANCH  24  25
HETATM   25  C14 UNL     1      20.658   5.031  95.874  1.00  0.00     0.007 A 
HETATM   26  C15 UNL     1      20.133   5.287  97.119  1.00  0.00     0.019 A 
HETATM   27  C16 UNL     1      18.874   4.933  97.355  1.00  0.00     0.008 A 
HETATM   28  C17 UNL     1      18.175   4.334  96.341  1.00  0.00     0.050 A 
HETATM   29  S3  UNL     1      19.313   4.286  95.078  1.00  0.00    -0.102 SA
ENDBRANCH  24  25
ENDBRANCH   6  24
TORSDOF 8
ENDMDL
MODEL 2
REMARK VINA RESULT: -6.722659715      3.067      4.642
REMARK  8 active torsions:
REMARK  status: ('A' for Active; 'I' for Inactive)
REMARK    1  A    between atoms: C3_3  and  C4_4 
REMARK    2  A    between atoms: C7_7  and  C8_8 
REMARK    3  A    between atoms: C8_8  and  S1_9 
REMARK    4  A    between atoms: S1_9  and  C9_10 
REMARK    5  A    between atoms: C10_12  and  N1_13 
REMARK    6  A    between atoms: N4_20  and  O1_21 
REMARK    7  A    between atoms: C12_23  and  C13_24 
REMARK    8  A    between atoms: C13_24  and  C14_25 
ROOT
HETATM    1  C1  UNL     1      21.445   2.939  93.017  1.00  0.00     0.051 C 
HETATM    2  C2  UNL     1      22.604   3.372  93.864  1.00  0.00    -0.024 A 
HETATM    3  C3  UNL     1      23.844   2.891  93.813  1.00  0.00    -0.021 A 
HETATM    4  C7  UNL     1      24.683   3.595  94.823  1.00  0.00     0.057 A 
HETATM    5  N4  UNL     1      23.944   4.432  95.406  1.00  0.00    -0.227 N 
HETATM    6  C12 UNL     1      22.592   4.394  94.887  1.00  0.00     0.070 A 
ENDROOT
BRANCH   4   7
HETATM    7  C8  UNL     1      26.142   3.367  95.124  1.00  0.00     0.140 C 
BRANCH   7   8
HETATM    8  S1  UNL     1      27.163   4.584  94.313  1.00  0.00    -0.113 SA
BRANCH   8   9
HETATM    9  C9  UNL     1      27.208   4.288  92.535  1.00  0.00     0.086 A 
HETATM   10  S2  UNL     1      28.353   3.357  91.659  1.00  0.00    -0.044 SA
HETATM   11  C10 UNL     1      27.706   3.579  90.096  1.00  0.00     0.144 A 
HETATM   12  N2  UNL     1      26.647   4.352  90.313  1.00  0.00    -0.324 N 
HETATM   13  C11 UNL     1      26.381   4.720  91.545  1.00  0.00     0.142 A 
ATOM     14  H2  UNL     1      26.054   4.653  89.540  1.00  0.00     0.169 HD
HETATM   15  N3  UNL     1      25.241   5.568  91.877  1.00  0.00    -0.081 NA
BRANCH  11  16
HETATM   16  N1  UNL     1      28.139   3.106  88.943  1.00  0.00    -0.380 N 
ATOM     17  H12 UNL     1      28.212   2.130  88.657  1.00  0.00     0.158 HD
ATOM     18  H11 UNL     1      28.478   3.614  88.126  1.00  0.00     0.158 HD
ENDBRANCH  11  16
ENDBRANCH   8   9
ENDBRANCH   7   8
ENDBRANCH   4   7
BRANCH   3  19
HETATM   19  C4  UNL     1      24.442   1.860  92.968  1.00  0.00     0.013 C 
HETATM   20  C5  UNL     1      23.973   0.465  93.448  1.00  0.00     0.015 C 
HETATM   21  C6  UNL     1      24.147   1.857  91.507  1.00  0.00     0.015 C 
ENDBRANCH   3  19
BRANCH   5  22
HETATM   22  O1  UNL     1      24.372   5.289  96.423  1.00  0.00    -0.282 OA
ATOM     23  H1  UNL     1      23.909   5.423  97.241  1.00  0.00     0.245 HD
ENDBRANCH   5  22
BRANCH   6  24
HETATM   24  C13 UNL     1      21.678   5.229  95.282  1.00  0.00     0.051 C 
BRANCH  24  25
HETATM   25  C14 UNL     1      20.384   4.957  95.883  1.00  0.00     0.007 A 
HETATM   26  C15 UNL     1      19.973   5.236  97.165  1.00  0.00     0.019 A 
HETATM   27  C16 UNL     1      18.711   4.980  97.491  1.00  0.00     0.008 A 
HETATM   28  C17 UNL     1      17.894   4.453  96.526  1.00  0.00     0.050 A 
HETATM   29  S3  UNL     1      18.929   4.332  95.182  1.00  0.00    -0.102 SA
ENDBRANCH  24  25
ENDBRANCH   6  24
TORSDOF 8
ENDMDL
MODEL 3
REMARK VINA RESULT: -6.546357907      2.971      4.179
REMARK  8 active torsions:
REMARK  status: ('A' for Active; 'I' for Inactive)
REMARK    1  A    between atoms: C3_3  and  C4_4 
REMARK    2  A    between atoms: C7_7  and  C8_8 
REMARK    3  A    between atoms: C8_8  and  S1_9 
REMARK    4  A    between atoms: S1_9  and  C9_10 
REMARK    5  A    between atoms: C10_12  and  N1_13 
REMARK    6  A    between atoms: N4_20  and  O1_21 
REMARK    7  A    between atoms: C12_23  and  C13_24 
REMARK    8  A    between atoms: C13_24  and  C14_25 
ROOT
HETATM    1  C1  UNL     1      23.688   3.554  97.268  1.00  0.00     0.051 C 
HETATM    2  C2  UNL     1      23.571   3.442  95.777  1.00  0.00    -0.024 A 
HETATM    3  C3  UNL     1      24.258   2.617  94.989  1.00  0.00    -0.021 A 
HETATM    4  C7  UNL     1      23.837   2.827  93.576  1.00  0.00     0.057 A 
HETATM    5  N4  UNL     1      22.954   3.725  93.578  1.00  0.00    -0.227 N 
HETATM    6  C12 UNL     1      22.688   4.201  94.920  1.00  0.00     0.070 A 
ENDROOT
BRANCH   4   7
HETATM    7  C8  UNL     1      24.358   2.123  92.350  1.00  0.00     0.140 C 
BRANCH   7   8
HETATM    8  S1  UNL     1      25.578   3.116  91.509  1.00  0.00    -0.113 SA
BRANCH   8   9
HETATM    9  C9  UNL     1      26.308   4.314  92.642  1.00  0.00     0.086 A 
HETATM   10  S2  UNL     1      27.703   4.112  93.621  1.00  0.00    -0.044 SA
HETATM   11  C10 UNL     1      27.711   5.649  94.360  1.00  0.00     0.144 A 
HETATM   12  N2  UNL     1      26.650   6.246  93.827  1.00  0.00    -0.324 N 
HETATM   13  C11 UNL     1      25.928   5.582  92.954  1.00  0.00     0.142 A 
ATOM     14  H2  UNL     1      26.402   7.200  94.091  1.00  0.00     0.169 HD
HETATM   15  N3  UNL     1      24.748   6.158  92.319  1.00  0.00    -0.081 NA
BRANCH  11  16
HETATM   16  N1  UNL     1      28.555   6.141  95.246  1.00  0.00    -0.380 N 
ATOM     17  H12 UNL     1      28.557   5.996  96.255  1.00  0.00     0.158 HD
ATOM     18  H11 UNL     1      29.359   6.752  95.097  1.00  0.00     0.158 HD
ENDBRANCH  11  16
ENDBRANCH   8   9
ENDBRANCH   7   8
ENDBRANCH   4   7
BRANCH   3  19
HETATM   19  C4  UNL     1      25.275   1.615  95.300  1.00  0.00     0.013 C 
HETATM   20  C5  UNL     1      26.306   2.217  96.286  1.00  0.00     0.015 C 
HETATM   21  C6  UNL     1      24.862   0.336  95.946  1.00  0.00     0.015 C 
ENDBRANCH   3  19
BRANCH   5  22
HETATM   22  O1  UNL     1      22.311   4.203  92.433  1.00  0.00    -0.282 OA
ATOM     23  H1  UNL     1      21.509   4.711  92.440  1.00  0.00     0.245 HD
ENDBRANCH   5  22
BRANCH   6  24
HETATM   24  C13 UNL     1      21.754   5.069  95.171  1.00  0.00     0.051 C 
BRANCH  24  25
HETATM   25  C14 UNL     1      20.454   4.867  95.787  1.00  0.00     0.007 A 
HETATM   26  C15 UNL     1      20.060   5.213  97.059  1.00  0.00     0.019 A 
HETATM   27  C16 UNL     1      18.792   5.014  97.400  1.00  0.00     0.008 A 
HETATM   28  C17 UNL     1      17.952   4.475  96.461  1.00  0.00     0.050 A 
HETATM   29  S3  UNL     1      18.976   4.263  95.119  1.00  0.00    -0.102 SA
ENDBRANCH  24  25
ENDBRANCH   6  24
TORSDOF 8
ENDMDL
MODEL 4
REMARK VINA RESULT: -6.540954370      2.933      8.316
REMARK  8 active torsions:
REMARK  status: ('A' for Active; 'I' for Inactive)
REMARK    1  A    between atoms: C3_3  and  C4_4 
REMARK    2  A    between atoms: C7_7  and  C8_8 
REMARK    3  A    between atoms: C8_8  and  S1_9 
REMARK    4  A    between atoms: S1_9  and  C9_10 
REMARK    5  A    between atoms: C10_12  and  N1_13 
REMARK    6  A    between atoms: N4_20  and  O1_21 
REMARK    7  A    between atoms: C12_23  and  C13_24 
REMARK    8  A    between atoms: C13_24  and  C14_25 
ROOT
HETATM    1  C1  UNL     1      31.059   3.688  96.738  1.00  0.00     0.051 C 
HETATM    2  C2  UNL     1      29.723   3.751  97.416  1.00  0.00    -0.024 A 
HETATM    3  C3  UNL     1      28.580   4.168  96.874  1.00  0.00    -0.021 A 
HETATM    4  C7  UNL     1      27.494   4.068  97.889  1.00  0.00     0.057 A 
HETATM    5  N4  UNL     1      28.009   3.613  98.945  1.00  0.00    -0.227 N 
HETATM    6  C12 UNL     1      29.426   3.365  98.777  1.00  0.00     0.070 A 
ENDROOT
BRANCH   4   7
HETATM    7  C8  UNL     1      26.044   4.442  97.721  1.00  0.00     0.140 C 
BRANCH   7   8
HETATM    8  S1  UNL     1      25.206   3.297  96.640  1.00  0.00    -0.113 SA
BRANCH   8   9
HETATM    9  C9  UNL     1      24.426   4.174  95.272  1.00  0.00     0.086 A 
HETATM   10  S2  UNL     1      25.076   4.468  93.711  1.00  0.00    -0.044 SA
HETATM   11  C10 UNL     1      23.757   5.324  93.052  1.00  0.00     0.144 A 
HETATM   12  N2  UNL     1      22.880   5.347  94.051  1.00  0.00    -0.324 N 
HETATM   13  C11 UNL     1      23.205   4.767  95.183  1.00  0.00     0.142 A 
ATOM     14  H2  UNL     1      21.976   5.804  93.939  1.00  0.00     0.169 HD
HETATM   15  N3  UNL     1      22.307   4.744  96.333  1.00  0.00    -0.081 NA
BRANCH  11  16
HETATM   16  N1  UNL     1      23.623   5.843  91.846  1.00  0.00    -0.380 N 
ATOM     17  H12 UNL     1      24.287   5.809  91.074  1.00  0.00     0.158 HD
ATOM     18  H11 UNL     1      22.841   6.372  91.458  1.00  0.00     0.158 HD
ENDBRANCH  11  16
ENDBRANCH   8   9
ENDBRANCH   7   8
ENDBRANCH   4   7
BRANCH   3  19
HETATM   19  C4  UNL     1      28.274   4.659  95.533  1.00  0.00     0.013 C 
HETATM   20  C5  UNL     1      28.860   6.081  95.360  1.00  0.00     0.015 C 
HETATM   21  C6  UNL     1      28.787   3.911  94.350  1.00  0.00     0.015 C 
ENDBRANCH   3  19
BRANCH   5  22
HETATM   22  O1  UNL     1      27.304   3.377 100.128  1.00  0.00    -0.282 OA
ATOM     23  H1  UNL     1      27.629   2.855 100.851  1.00  0.00     0.245 HD
ENDBRANCH   5  22
BRANCH   6  24
HETATM   24  C13 UNL     1      30.145   2.817  99.710  1.00  0.00     0.051 C 
BRANCH  24  25
HETATM   25  C14 UNL     1      30.459   1.415  99.923  1.00  0.00     0.007 A 
HETATM   26  C15 UNL     1      31.138   0.853 100.979  1.00  0.00     0.019 A 
HETATM   27  C16 UNL     1      31.246  -0.470 101.025  1.00  0.00     0.008 A 
HETATM   28  C17 UNL     1      30.672  -1.196 100.015  1.00  0.00     0.050 A 
HETATM   29  S3  UNL     1      29.993   0.009  99.025  1.00  0.00    -0.102 SA
ENDBRANCH  24  25
ENDBRANCH   6  24
TORSDOF 8
ENDMDL
MODEL 5
REMARK VINA RESULT: -6.528778012      2.083      2.435
REMARK  8 active torsions:
REMARK  status: ('A' for Active; 'I' for Inactive)
REMARK    1  A    between atoms: C3_3  and  C4_4 
REMARK    2  A    between atoms: C7_7  and  C8_8 
REMARK    3  A    between atoms: C8_8  and  S1_9 
REMARK    4  A    between atoms: S1_9  and  C9_10 
REMARK    5  A    between atoms: C10_12  and  N1_13 
REMARK    6  A    between atoms: N4_20  and  O1_21 
REMARK    7  A    between atoms: C12_23  and  C13_24 
REMARK    8  A    between atoms: C13_24  and  C14_25 
ROOT
HETATM    1  C1  UNL     1      22.829   3.292  92.197  1.00  0.00     0.051 C 
HETATM    2  C2  UNL     1      23.774   3.985  93.132  1.00  0.00    -0.024 A 
HETATM    3  C3  UNL     1      24.908   4.600  92.799  1.00  0.00    -0.021 A 
HETATM    4  C7  UNL     1      25.541   5.154  94.028  1.00  0.00     0.057 A 
HETATM    5  N4  UNL     1      24.793   4.863  94.999  1.00  0.00    -0.227 N 
HETATM    6  C12 UNL     1      23.629   4.120  94.564  1.00  0.00     0.070 A 
ENDROOT
BRANCH   4   7
HETATM    7  C8  UNL     1      26.838   5.914  94.128  1.00  0.00     0.140 C 
BRANCH   7   8
HETATM    8  S1  UNL     1      28.221   4.803  94.317  1.00  0.00    -0.113 SA
BRANCH   8   9
HETATM    9  C9  UNL     1      28.581   4.533  96.063  1.00  0.00     0.086 A 
HETATM   10  S2  UNL     1      27.970   3.291  97.077  1.00  0.00    -0.044 SA
HETATM   11  C10 UNL     1      28.768   3.733  98.517  1.00  0.00     0.144 A 
HETATM   12  N2  UNL     1      29.465   4.807  98.160  1.00  0.00    -0.324 N 
HETATM   13  C11 UNL     1      29.381   5.225  96.918  1.00  0.00     0.142 A 
ATOM     14  H2  UNL     1      30.052   5.295  98.836  1.00  0.00     0.169 HD
HETATM   15  N3  UNL     1      30.109   6.395  96.438  1.00  0.00    -0.081 NA
BRANCH  11  16
HETATM   16  N1  UNL     1      28.718   3.160  99.704  1.00  0.00    -0.380 N 
ATOM     17  H12 UNL     1      27.890   2.911 100.243  1.00  0.00     0.158 HD
ATOM     18  H11 UNL     1      29.486   2.859 100.305  1.00  0.00     0.158 HD
ENDBRANCH  11  16
ENDBRANCH   8   9
ENDBRANCH   7   8
ENDBRANCH   4   7
BRANCH   3  19
HETATM   19  C4  UNL     1      25.551   4.795  91.502  1.00  0.00     0.013 C 
HETATM   20  C5  UNL     1      26.250   3.482  91.073  1.00  0.00     0.015 C 
HETATM   21  C6  UNL     1      24.716   5.161  90.323  1.00  0.00     0.015 C 
ENDBRANCH   3  19
BRANCH   5  22
HETATM   22  O1  UNL     1      25.052   5.213  96.327  1.00  0.00    -0.282 OA
ATOM     23  H1  UNL     1      24.387   5.294  97.000  1.00  0.00     0.245 HD
ENDBRANCH   5  22
BRANCH   6  24
HETATM   24  C13 UNL     1      22.678   3.787  95.384  1.00  0.00     0.051 C 
BRANCH  24  25
HETATM   25  C14 UNL     1      21.310   4.270  95.450  1.00  0.00     0.007 A 
HETATM   26  C15 UNL     1      20.257   3.938  94.629  1.00  0.00     0.019 A 
HETATM   27  C16 UNL     1      19.058   4.432  94.914  1.00  0.00     0.008 A 
HETATM   28  C17 UNL     1      18.943   5.244  96.012  1.00  0.00     0.050 A 
HETATM   29  S3  UNL     1      20.533   5.289  96.614  1.00  0.00    -0.102 SA
ENDBRANCH  24  25
ENDBRANCH   6  24
TORSDOF 8
ENDMDL
