MODEL 1
REMARK VINA RESULT: -5.597626518      0.000      0.000
REMARK  5 active torsions:
REMARK  status: ('A' for Active; 'I' for Inactive)
REMARK    1  A    between atoms: C6_7  and  N1_8 
REMARK    2  A    between atoms: N1_8  and  C7_10 
REMARK    3  A    between atoms: C9_13  and  C10_14 
REMARK    4  A    between atoms: N2_20  and  C16_21 
REMARK    5  A    between atoms: C16_21  and  C17_22 
ROOT
HETATM    1  C7  UNL     1     -10.372  36.899 -17.312  1.00  0.00     0.151 A 
HETATM    2  S1  UNL     1     -10.967  35.448 -16.679  1.00  0.00    -0.063 SA
HETATM    3  C8  UNL     1      -9.717  35.126 -15.598  1.00  0.00     0.083 A 
HETATM    4  C9  UNL     1      -8.832  36.213 -15.774  1.00  0.00     0.053 A 
HETATM    5  N2  UNL     1      -9.203  37.107 -16.669  1.00  0.00    -0.326 N 
ENDROOT
BRANCH   5   6
HETATM    6  C16 UNL     1      -8.393  38.286 -17.079  1.00  0.00     0.136 C 
BRANCH   6   7
HETATM    7  C17 UNL     1      -7.824  39.068 -15.968  1.00  0.00     0.004 C 
HETATM    8  C18 UNL     1      -6.497  39.726 -16.211  1.00  0.00     0.007 C 
HETATM    9  C19 UNL     1      -6.177  40.773 -15.168  1.00  0.00     0.011 C 
HETATM   10  C20 UNL     1      -6.943  40.678 -13.899  1.00  0.00    -0.015 C 
HETATM   11  C21 UNL     1      -6.445  39.535 -13.045  1.00  0.00     0.038 C 
HETATM   12  C23 UNL     1      -6.572  41.940 -13.091  1.00  0.00     0.241 C 
HETATM   13  C24 UNL     1      -8.409  40.647 -14.156  1.00  0.00     0.011 C 
HETATM   14  C22 UNL     1      -5.563  40.175 -12.028  1.00  0.00     0.233 C 
HETATM   15  N3  UNL     1      -6.140  41.485 -11.799  1.00  0.00    -0.074 N 
ATOM     16  H32 UNL     1      -6.876  41.493 -11.093  1.00  0.00     0.277 HD
ATOM     17  H31 UNL     1      -5.513  42.133 -11.324  1.00  0.00     0.277 HD
HETATM   18  C25 UNL     1      -8.763  40.209 -15.544  1.00  0.00     0.007 C 
ENDBRANCH   6   7
ENDBRANCH   5   6
BRANCH   1  19
HETATM   19  N1  UNL     1     -10.962  37.659 -18.216  1.00  0.00    -0.335 N 
ATOM     20  H1  UNL     1     -10.581  37.750 -19.158  1.00  0.00     0.168 HD
BRANCH  19  21
HETATM   21  C6  UNL     1     -12.132  38.337 -17.836  1.00  0.00     0.056 A 
HETATM   22  C1  UNL     1     -13.329  38.050 -18.440  1.00  0.00     0.060 A 
HETATM   23 CL1  UNL     1     -13.504  36.845 -19.702  1.00  0.00    -0.082 Cl
HETATM   24  C2  UNL     1     -14.470  38.743 -18.040  1.00  0.00     0.026 A 
HETATM   25  C3  UNL     1     -14.393  39.698 -17.053  1.00  0.00     0.002 A 
HETATM   26  C4  UNL     1     -13.186  39.986 -16.446  1.00  0.00     0.002 A 
HETATM   27  C5  UNL     1     -12.063  39.295 -16.850  1.00  0.00     0.031 A 
ENDBRANCH  19  21
ENDBRANCH   1  19
BRANCH   4  28
HETATM   28  C10 UNL     1      -7.586  36.113 -14.968  1.00  0.00    -0.009 A 
HETATM   29  C11 UNL     1      -6.350  36.003 -15.500  1.00  0.00     0.014 A 
HETATM   30  C12 UNL     1      -5.197  35.807 -14.720  1.00  0.00     0.001 A 
HETATM   31  C13 UNL     1      -5.292  35.720 -13.361  1.00  0.00     0.000 A 
HETATM   32  C14 UNL     1      -6.533  35.829 -12.779  1.00  0.00     0.001 A 
HETATM   33  C15 UNL     1      -7.640  36.019 -13.566  1.00  0.00     0.014 A 
ENDBRANCH   4  28
TORSDOF 5
ENDMDL
MODEL 2
REMARK VINA RESULT: -5.311896845      2.523      6.048
REMARK  5 active torsions:
REMARK  status: ('A' for Active; 'I' for Inactive)
REMARK    1  A    between atoms: C6_7  and  N1_8 
REMARK    2  A    between atoms: N1_8  and  C7_10 
REMARK    3  A    between atoms: C9_13  and  C10_14 
REMARK    4  A    between atoms: N2_20  and  C16_21 
REMARK    5  A    between atoms: C16_21  and  C17_22 
ROOT
HETATM    1  C7  UNL     1      -9.812  36.251 -15.371  1.00  0.00     0.151 A 
HETATM    2  S1  UNL     1     -10.590  35.290 -16.525  1.00  0.00    -0.063 SA
HETATM    3  C8  UNL     1     -11.391  36.515 -17.358  1.00  0.00     0.083 A 
HETATM    4  C9  UNL     1     -11.007  37.692 -16.677  1.00  0.00     0.053 A 
HETATM    5  N2  UNL     1     -10.193  37.516 -15.655  1.00  0.00    -0.326 N 
ENDROOT
BRANCH   5   6
HETATM    6  C16 UNL     1      -9.725  38.596 -14.744  1.00  0.00     0.136 C 
BRANCH   6   7
HETATM    7  C17 UNL     1      -8.505  39.295 -15.183  1.00  0.00     0.004 C 
HETATM    8  C18 UNL     1      -8.673  40.696 -15.694  1.00  0.00     0.007 C 
HETATM    9  C19 UNL     1      -7.358  41.437 -15.777  1.00  0.00     0.011 C 
HETATM   10  C20 UNL     1      -6.138  40.590 -15.784  1.00  0.00    -0.015 C 
HETATM   11  C21 UNL     1      -5.951  39.912 -17.121  1.00  0.00     0.038 C 
HETATM   12  C23 UNL     1      -4.948  41.571 -15.691  1.00  0.00     0.241 C 
HETATM   13  C24 UNL     1      -6.122  39.656 -14.625  1.00  0.00     0.011 C 
HETATM   14  C22 UNL     1      -4.930  40.736 -17.828  1.00  0.00     0.233 C 
HETATM   15  N3  UNL     1      -4.069  41.250 -16.781  1.00  0.00    -0.074 N 
ATOM     16  H32 UNL     1      -3.310  40.618 -16.526  1.00  0.00     0.277 HD
ATOM     17  H31 UNL     1      -3.481  42.028 -17.078  1.00  0.00     0.277 HD
HETATM   18  C25 UNL     1      -7.479  39.406 -14.043  1.00  0.00     0.007 C 
ENDBRANCH   6   7
ENDBRANCH   5   6
BRANCH   1  19
HETATM   19  N1  UNL     1      -8.990  35.830 -14.428  1.00  0.00    -0.335 N 
ATOM     20  H1  UNL     1      -9.343  35.489 -13.534  1.00  0.00     0.168 HD
BRANCH  19  21
HETATM   21  C6  UNL     1      -7.612  35.870 -14.698  1.00  0.00     0.056 A 
HETATM   22  C1  UNL     1      -6.701  35.782 -13.676  1.00  0.00     0.060 A 
HETATM   23 CL1  UNL     1      -7.159  35.613 -11.992  1.00  0.00    -0.082 Cl
HETATM   24  C2  UNL     1      -5.341  35.826 -13.980  1.00  0.00     0.026 A 
HETATM   25  C3  UNL     1      -4.923  35.956 -15.283  1.00  0.00     0.002 A 
HETATM   26  C4  UNL     1      -5.843  36.045 -16.311  1.00  0.00     0.002 A 
HETATM   27  C5  UNL     1      -7.186  36.001 -16.000  1.00  0.00     0.031 A 
ENDBRANCH  19  21
ENDBRANCH   1  19
BRANCH   4  28
HETATM   28  C10 UNL     1     -11.660  38.925 -17.189  1.00  0.00    -0.009 A 
HETATM   29  C11 UNL     1     -11.194  39.651 -18.229  1.00  0.00     0.014 A 
HETATM   30  C12 UNL     1     -11.769  40.869 -18.630  1.00  0.00     0.001 A 
HETATM   31  C13 UNL     1     -12.849  41.372 -17.964  1.00  0.00     0.000 A 
HETATM   32  C14 UNL     1     -13.357  40.663 -16.901  1.00  0.00     0.001 A 
HETATM   33  C15 UNL     1     -12.774  39.478 -16.532  1.00  0.00     0.014 A 
ENDBRANCH   4  28
TORSDOF 5
ENDMDL
MODEL 3
REMARK VINA RESULT: -5.294024883      3.167      7.992
REMARK  5 active torsions:
REMARK  status: ('A' for Active; 'I' for Inactive)
REMARK    1  A    between atoms: C6_7  and  N1_8 
REMARK    2  A    between atoms: N1_8  and  C7_10 
REMARK    3  A    between atoms: C9_13  and  C10_14 
REMARK    4  A    between atoms: N2_20  and  C16_21 
REMARK    5  A    between atoms: C16_21  and  C17_22 
ROOT
HETATM    1  C7  UNL     1      -7.201  37.106 -14.968  1.00  0.00     0.151 A 
HETATM    2  S1  UNL     1      -6.585  38.671 -14.790  1.00  0.00    -0.063 SA
HETATM    3  C8  UNL     1      -7.954  39.525 -15.272  1.00  0.00     0.083 A 
HETATM    4  C9  UNL     1      -8.893  38.513 -15.570  1.00  0.00     0.053 A 
HETATM    5  N2  UNL     1      -8.468  37.277 -15.404  1.00  0.00    -0.326 N 
ENDROOT
BRANCH   5   6
HETATM    6  C16 UNL     1      -9.251  36.056 -15.735  1.00  0.00     0.136 C 
BRANCH   6   7
HETATM    7  C17 UNL     1      -9.754  35.995 -17.118  1.00  0.00     0.004 C 
HETATM    8  C18 UNL     1      -9.084  35.019 -18.041  1.00  0.00     0.007 C 
HETATM    9  C19 UNL     1      -9.885  34.778 -19.301  1.00  0.00     0.011 C 
HETATM   10  C20 UNL     1     -10.903  35.809 -19.626  1.00  0.00    -0.015 C 
HETATM   11  C21 UNL     1     -10.256  37.065 -20.162  1.00  0.00     0.038 C 
HETATM   12  C23 UNL     1     -11.694  35.251 -20.830  1.00  0.00     0.241 C 
HETATM   13  C24 UNL     1     -11.820  36.045 -18.477  1.00  0.00     0.011 C 
HETATM   14  C22 UNL     1     -10.416  36.976 -21.642  1.00  0.00     0.233 C 
HETATM   15  N3  UNL     1     -11.665  36.269 -21.843  1.00  0.00    -0.074 N 
ATOM     16  H32 UNL     1     -12.486  36.874 -21.841  1.00  0.00     0.277 HD
ATOM     17  H31 UNL     1     -11.786  35.909 -22.790  1.00  0.00     0.277 HD
HETATM   18  C25 UNL     1     -11.245  35.625 -17.160  1.00  0.00     0.007 C 
ENDBRANCH   6   7
ENDBRANCH   5   6
BRANCH   1  19
HETATM   19  N1  UNL     1      -6.566  35.980 -14.700  1.00  0.00    -0.335 N 
ATOM     20  H1  UNL     1      -6.354  35.305 -15.436  1.00  0.00     0.168 HD
BRANCH  19  21
HETATM   21  C6  UNL     1      -6.193  35.742 -13.367  1.00  0.00     0.056 A 
HETATM   22  C1  UNL     1      -4.874  35.556 -13.038  1.00  0.00     0.060 A 
HETATM   23 CL1  UNL     1      -3.575  35.597 -14.214  1.00  0.00    -0.082 Cl
HETATM   24  C2  UNL     1      -4.539  35.321 -11.705  1.00  0.00     0.026 A 
HETATM   25  C3  UNL     1      -5.517  35.278 -10.739  1.00  0.00     0.002 A 
HETATM   26  C4  UNL     1      -6.845  35.466 -11.074  1.00  0.00     0.002 A 
HETATM   27  C5  UNL     1      -7.166  35.697 -12.395  1.00  0.00     0.031 A 
ENDBRANCH  19  21
ENDBRANCH   1  19
BRANCH   4  28
HETATM   28  C10 UNL     1     -10.183  39.027 -16.103  1.00  0.00    -0.009 A 
HETATM   29  C11 UNL     1     -11.361  38.932 -15.449  1.00  0.00     0.014 A 
HETATM   30  C12 UNL     1     -12.584  39.331 -16.016  1.00  0.00     0.001 A 
HETATM   31  C13 UNL     1     -12.622  39.844 -17.280  1.00  0.00     0.000 A 
HETATM   32  C14 UNL     1     -11.444  39.959 -17.980  1.00  0.00     0.001 A 
HETATM   33  C15 UNL     1     -10.266  39.560 -17.402  1.00  0.00     0.014 A 
ENDBRANCH   4  28
TORSDOF 5
ENDMDL
MODEL 4
REMARK VINA RESULT: -5.214828463      1.604      2.417
REMARK  5 active torsions:
REMARK  status: ('A' for Active; 'I' for Inactive)
REMARK    1  A    between atoms: C6_7  and  N1_8 
REMARK    2  A    between atoms: N1_8  and  C7_10 
REMARK    3  A    between atoms: C9_13  and  C10_14 
REMARK    4  A    between atoms: N2_20  and  C16_21 
REMARK    5  A    between atoms: C16_21  and  C17_22 
ROOT
HETATM    1  C7  UNL     1     -10.101  37.016 -17.374  1.00  0.00     0.151 A 
HETATM    2  S1  UNL     1     -10.864  35.653 -16.724  1.00  0.00    -0.063 SA
HETATM    3  C8  UNL     1      -9.681  35.227 -15.604  1.00  0.00     0.083 A 
HETATM    4  C9  UNL     1      -8.681  36.208 -15.780  1.00  0.00     0.053 A 
HETATM    5  N2  UNL     1      -8.932  37.114 -16.705  1.00  0.00    -0.326 N 
ENDROOT
BRANCH   5   6
HETATM    6  C16 UNL     1      -7.990  38.189 -17.120  1.00  0.00     0.136 C 
BRANCH   6   7
HETATM    7  C17 UNL     1      -8.010  39.394 -16.275  1.00  0.00     0.004 C 
HETATM    8  C18 UNL     1      -9.015  39.425 -15.160  1.00  0.00     0.007 C 
HETATM    9  C19 UNL     1      -8.722  40.514 -14.153  1.00  0.00     0.011 C 
HETATM   10  C20 UNL     1      -7.828  41.603 -14.621  1.00  0.00    -0.015 C 
HETATM   11  C21 UNL     1      -8.550  42.536 -15.565  1.00  0.00     0.038 C 
HETATM   12  C23 UNL     1      -7.543  42.474 -13.378  1.00  0.00     0.241 C 
HETATM   13  C24 UNL     1      -6.553  41.059 -15.166  1.00  0.00     0.011 C 
HETATM   14  C22 UNL     1      -8.925  43.711 -14.728  1.00  0.00     0.233 C 
HETATM   15  N3  UNL     1      -7.868  43.825 -13.743  1.00  0.00    -0.074 N 
ATOM     16  H32 UNL     1      -7.067  44.369 -14.060  1.00  0.00     0.277 HD
ATOM     17  H31 UNL     1      -8.108  44.418 -12.949  1.00  0.00     0.277 HD
HETATM   18  C25 UNL     1      -6.651  39.627 -15.593  1.00  0.00     0.007 C 
ENDBRANCH   6   7
ENDBRANCH   5   6
BRANCH   1  19
HETATM   19  N1  UNL     1     -10.584  37.811 -18.310  1.00  0.00    -0.335 N 
ATOM     20  H1  UNL     1     -10.470  37.592 -19.299  1.00  0.00     0.168 HD
BRANCH  19  21
HETATM   21  C6  UNL     1     -11.261  38.971 -17.896  1.00  0.00     0.056 A 
HETATM   22  C1  UNL     1     -10.880  40.202 -18.365  1.00  0.00     0.060 A 
HETATM   23 CL1  UNL     1      -9.556  40.434 -19.491  1.00  0.00    -0.082 Cl
HETATM   24  C2  UNL     1     -11.573  41.332 -17.933  1.00  0.00     0.026 A 
HETATM   25  C3  UNL     1     -12.621  41.210 -17.051  1.00  0.00     0.002 A 
HETATM   26  C4  UNL     1     -13.002  39.968 -16.579  1.00  0.00     0.002 A 
HETATM   27  C5  UNL     1     -12.310  38.857 -17.013  1.00  0.00     0.031 A 
ENDBRANCH  19  21
ENDBRANCH   1  19
BRANCH   4  28
HETATM   28  C10 UNL     1      -7.473  35.996 -14.940  1.00  0.00    -0.009 A 
HETATM   29  C11 UNL     1      -7.489  35.956 -13.590  1.00  0.00     0.014 A 
HETATM   30  C12 UNL     1      -6.322  35.858 -12.813  1.00  0.00     0.001 A 
HETATM   31  C13 UNL     1      -5.099  35.795 -13.415  1.00  0.00     0.000 A 
HETATM   32  C14 UNL     1      -5.038  35.830 -14.788  1.00  0.00     0.001 A 
HETATM   33  C15 UNL     1      -6.193  35.928 -15.520  1.00  0.00     0.014 A 
ENDBRANCH   4  28
TORSDOF 5
ENDMDL
MODEL 5
REMARK VINA RESULT: -5.176188699      1.097      1.943
REMARK  5 active torsions:
REMARK  status: ('A' for Active; 'I' for Inactive)
REMARK    1  A    between atoms: C6_7  and  N1_8 
REMARK    2  A    between atoms: N1_8  and  C7_10 
REMARK    3  A    between atoms: C9_13  and  C10_14 
REMARK    4  A    between atoms: N2_20  and  C16_21 
REMARK    5  A    between atoms: C16_21  and  C17_22 
ROOT
HETATM    1  C7  UNL     1     -10.287  36.951 -17.340  1.00  0.00     0.151 A 
HETATM    2  S1  UNL     1     -10.979  35.568 -16.655  1.00  0.00    -0.063 SA
HETATM    3  C8  UNL     1      -9.732  35.175 -15.594  1.00  0.00     0.083 A 
HETATM    4  C9  UNL     1      -8.769  36.183 -15.819  1.00  0.00     0.053 A 
HETATM    5  N2  UNL     1      -9.089  37.081 -16.729  1.00  0.00    -0.326 N 
ENDROOT
BRANCH   5   6
HETATM    6  C16 UNL     1      -8.199  38.182 -17.190  1.00  0.00     0.136 C 
BRANCH   6   7
HETATM    7  C17 UNL     1      -8.165  39.363 -16.311  1.00  0.00     0.004 C 
HETATM    8  C18 UNL     1      -9.049  39.333 -15.099  1.00  0.00     0.007 C 
HETATM    9  C19 UNL     1      -8.684  40.403 -14.095  1.00  0.00     0.011 C 
HETATM   10  C20 UNL     1      -7.873  41.531 -14.619  1.00  0.00    -0.015 C 
HETATM   11  C21 UNL     1      -8.713  42.466 -15.456  1.00  0.00     0.038 C 
HETATM   12  C23 UNL     1      -7.485  42.376 -13.386  1.00  0.00     0.241 C 
HETATM   13  C24 UNL     1      -6.647  41.040 -15.308  1.00  0.00     0.011 C 
HETATM   14  C22 UNL     1      -9.032  43.607 -14.550  1.00  0.00     0.233 C 
HETATM   15  N3  UNL     1      -7.883  43.725 -13.675  1.00  0.00    -0.074 N 
ATOM     16  H32 UNL     1      -7.133  44.302 -14.056  1.00  0.00     0.277 HD
ATOM     17  H31 UNL     1      -8.056  44.290 -12.844  1.00  0.00     0.277 HD
HETATM   18  C25 UNL     1      -6.750  39.617 -15.765  1.00  0.00     0.007 C 
ENDBRANCH   6   7
ENDBRANCH   5   6
BRANCH   1  19
HETATM   19  N1  UNL     1     -10.837  37.732 -18.251  1.00  0.00    -0.335 N 
ATOM     20  H1  UNL     1     -10.465  37.779 -19.200  1.00  0.00     0.168 HD
BRANCH  19  21
HETATM   21  C6  UNL     1     -11.951  38.497 -17.869  1.00  0.00     0.056 A 
HETATM   22  C1  UNL     1     -13.216  38.115 -18.239  1.00  0.00     0.060 A 
HETATM   23 CL1  UNL     1     -13.546  36.681 -19.193  1.00  0.00    -0.082 Cl
HETATM   24  C2  UNL     1     -14.299  38.897 -17.844  1.00  0.00     0.026 A 
HETATM   25  C3  UNL     1     -14.100  40.033 -17.093  1.00  0.00     0.002 A 
HETATM   26  C4  UNL     1     -12.825  40.415 -16.722  1.00  0.00     0.002 A 
HETATM   27  C5  UNL     1     -11.760  39.634 -17.119  1.00  0.00     0.031 A 
ENDBRANCH  19  21
ENDBRANCH   1  19
BRANCH   4  28
HETATM   28  C10 UNL     1      -7.516  36.005 -15.038  1.00  0.00    -0.009 A 
HETATM   29  C11 UNL     1      -7.465  35.969 -13.689  1.00  0.00     0.014 A 
HETATM   30  C12 UNL     1      -6.259  35.903 -12.971  1.00  0.00     0.001 A 
HETATM   31  C13 UNL     1      -5.065  35.871 -13.632  1.00  0.00     0.000 A 
HETATM   32  C14 UNL     1      -5.073  35.903 -15.007  1.00  0.00     0.001 A 
HETATM   33  C15 UNL     1      -6.265  35.969 -15.681  1.00  0.00     0.014 A 
ENDBRANCH   4  28
TORSDOF 5
ENDMDL
