MODEL 1
REMARK VINA RESULT: -9.342945948      0.000      0.000
REMARK  3 active torsions:
REMARK  status: ('A' for Active; 'I' for Inactive)
REMARK    1  A    between atoms: C7_8  and  N2_9 
REMARK    2  A    between atoms: C9_14  and  C10_15 
REMARK    3  A    between atoms: C14_19  and  O1_20 
ROOT
HETATM    1  N1  UNL     1      -3.229  47.954   4.880  1.00  0.00    -0.191 NA
HETATM    2  C1  UNL     1      -2.729  48.117   3.851  1.00  0.00     0.102 C 
HETATM    3  C2  UNL     1      -2.072  48.322   2.567  1.00  0.00     0.071 A 
HETATM    4  C3  UNL     1      -2.384  49.443   1.828  1.00  0.00     0.025 A 
HETATM    5  C4  UNL     1      -1.789  49.676   0.609  1.00  0.00     0.002 A 
HETATM    6  C5  UNL     1      -0.871  48.759   0.147  1.00  0.00     0.002 A 
HETATM    7  C6  UNL     1      -0.546  47.631   0.871  1.00  0.00     0.031 A 
HETATM    8  C7  UNL     1      -1.156  47.423   2.084  1.00  0.00     0.070 A 
ENDROOT
BRANCH   8   9
HETATM    9  N2  UNL     1      -0.846  46.276   2.854  1.00  0.00    -0.190 N 
HETATM   10  C8  UNL     1       0.289  46.096   3.443  1.00  0.00     0.688 C 
HETATM   11  N3  UNL     1       1.331  47.058   3.359  1.00  0.00    -0.200 N 
HETATM   12  N5  UNL     1       0.534  44.899   4.212  1.00  0.00    -0.143 N 
HETATM   13  C9  UNL     1       2.349  47.077   4.380  1.00  0.00     0.234 C 
ATOM     14  H3  UNL     1       1.359  47.725   2.587  1.00  0.00     0.180 HD
HETATM   15  N4  UNL     1       2.742  45.741   4.699  1.00  0.00    -0.350 N 
HETATM   16  C16 UNL     1       1.728  44.746   4.813  1.00  0.00     0.126 A 
ATOM     17  H4  UNL     1       3.724  45.505   4.842  1.00  0.00     0.163 HD
HETATM   18  C17 UNL     1       1.915  43.580   5.540  1.00  0.00     0.049 A 
HETATM   19  C18 UNL     1       0.929  42.621   5.646  1.00  0.00     0.005 A 
HETATM   20  C19 UNL     1      -0.282  42.802   5.023  1.00  0.00     0.018 A 
HETATM   21  C20 UNL     1      -0.451  43.984   4.295  1.00  0.00     0.117 A 
ATOM     22  H2  UNL     1      -1.558  45.553   2.949  1.00  0.00     0.184 HD
BRANCH  13  23
HETATM   23  C10 UNL     1       3.488  47.948   4.023  1.00  0.00    -0.013 A 
HETATM   24  C11 UNL     1       3.865  48.130   2.690  1.00  0.00     0.011 A 
HETATM   25  C12 UNL     1       4.921  48.930   2.322  1.00  0.00     0.003 A 
HETATM   26  C13 UNL     1       5.646  49.589   3.292  1.00  0.00     0.036 A 
HETATM   27  C14 UNL     1       5.303  49.436   4.640  1.00  0.00     0.066 A 
HETATM   28  C15 UNL     1       4.234  48.620   4.970  1.00  0.00     0.047 A 
BRANCH  27  29
HETATM   29  O1  UNL     1       6.063  50.116   5.559  1.00  0.00    -0.361 OA
ATOM     30  H1  UNL     1       5.603  50.524   6.283  1.00  0.00     0.217 HD
ENDBRANCH  27  29
ENDBRANCH  13  23
ENDBRANCH   8   9
TORSDOF 3
ENDMDL
MODEL 2
REMARK VINA RESULT: -9.281043538     10.741     14.079
REMARK  3 active torsions:
REMARK  status: ('A' for Active; 'I' for Inactive)
REMARK    1  A    between atoms: C7_8  and  N2_9 
REMARK    2  A    between atoms: C9_14  and  C10_15 
REMARK    3  A    between atoms: C14_19  and  O1_20 
ROOT
HETATM    1  N1  UNL     1      12.626  55.584  -3.238  1.00  0.00    -0.191 NA
HETATM    2  C1  UNL     1      12.070  56.544  -2.915  1.00  0.00     0.102 C 
HETATM    3  C2  UNL     1      11.343  57.740  -2.510  1.00  0.00     0.071 A 
HETATM    4  C3  UNL     1      11.513  58.902  -3.232  1.00  0.00     0.025 A 
HETATM    5  C4  UNL     1      10.847  60.055  -2.885  1.00  0.00     0.002 A 
HETATM    6  C5  UNL     1      10.005  60.018  -1.796  1.00  0.00     0.002 A 
HETATM    7  C6  UNL     1       9.822  58.866  -1.061  1.00  0.00     0.031 A 
HETATM    8  C7  UNL     1      10.499  57.729  -1.429  1.00  0.00     0.070 A 
ENDROOT
BRANCH   8   9
HETATM    9  N2  UNL     1      10.334  56.529  -0.697  1.00  0.00    -0.190 N 
HETATM   10  C8  UNL     1       9.313  56.283   0.053  1.00  0.00     0.688 C 
HETATM   11  N3  UNL     1       8.255  57.221   0.199  1.00  0.00    -0.200 N 
HETATM   12  N5  UNL     1       9.213  55.034   0.771  1.00  0.00    -0.143 N 
HETATM   13  C9  UNL     1       6.956  56.751   0.612  1.00  0.00     0.234 C 
ATOM     14  H3  UNL     1       8.413  58.212   0.015  1.00  0.00     0.180 HD
HETATM   15  N4  UNL     1       7.098  55.786   1.655  1.00  0.00    -0.350 N 
HETATM   16  C16 UNL     1       8.133  54.812   1.542  1.00  0.00     0.126 A 
ATOM     17  H4  UNL     1       6.473  55.792   2.462  1.00  0.00     0.163 HD
HETATM   18  C17 UNL     1       8.084  53.599   2.211  1.00  0.00     0.049 A 
HETATM   19  C18 UNL     1       9.089  52.662   2.096  1.00  0.00     0.005 A 
HETATM   20  C19 UNL     1      10.182  52.913   1.302  1.00  0.00     0.018 A 
HETATM   21  C20 UNL     1      10.212  54.142   0.635  1.00  0.00     0.117 A 
ATOM     22  H2  UNL     1      11.063  55.819  -0.766  1.00  0.00     0.184 HD
BRANCH  13  23
HETATM   23  C10 UNL     1       6.043  57.858   0.965  1.00  0.00    -0.013 A 
HETATM   24  C11 UNL     1       4.883  57.626   1.708  1.00  0.00     0.011 A 
HETATM   25  C12 UNL     1       4.011  58.632   2.052  1.00  0.00     0.003 A 
HETATM   26  C13 UNL     1       4.276  59.927   1.659  1.00  0.00     0.036 A 
HETATM   27  C14 UNL     1       5.427  60.205   0.914  1.00  0.00     0.066 A 
HETATM   28  C15 UNL     1       6.280  59.164   0.587  1.00  0.00     0.047 A 
BRANCH  27  29
HETATM   29  O1  UNL     1       5.636  61.513   0.552  1.00  0.00    -0.361 OA
ATOM     30  H1  UNL     1       6.157  62.046   1.141  1.00  0.00     0.217 HD
ENDBRANCH  27  29
ENDBRANCH  13  23
ENDBRANCH   8   9
TORSDOF 3
ENDMDL
MODEL 3
REMARK VINA RESULT: -9.220209387      1.074      1.275
REMARK  3 active torsions:
REMARK  status: ('A' for Active; 'I' for Inactive)
REMARK    1  A    between atoms: C7_8  and  N2_9 
REMARK    2  A    between atoms: C9_14  and  C10_15 
REMARK    3  A    between atoms: C14_19  and  O1_20 
ROOT
HETATM    1  N1  UNL     1      -2.666  47.584   5.024  1.00  0.00    -0.191 NA
HETATM    2  C1  UNL     1      -2.239  47.854   3.985  1.00  0.00     0.102 C 
HETATM    3  C2  UNL     1      -1.674  48.201   2.688  1.00  0.00     0.071 A 
HETATM    4  C3  UNL     1      -2.259  49.209   1.952  1.00  0.00     0.025 A 
HETATM    5  C4  UNL     1      -1.759  49.569   0.721  1.00  0.00     0.002 A 
HETATM    6  C5  UNL     1      -0.658  48.894   0.242  1.00  0.00     0.002 A 
HETATM    7  C6  UNL     1      -0.060  47.881   0.963  1.00  0.00     0.031 A 
HETATM    8  C7  UNL     1      -0.579  47.542   2.189  1.00  0.00     0.070 A 
ENDROOT
BRANCH   8   9
HETATM    9  N2  UNL     1       0.010  46.509   2.955  1.00  0.00    -0.190 N 
HETATM   10  C8  UNL     1       1.208  46.566   3.432  1.00  0.00     0.688 C 
HETATM   11  N3  UNL     1       2.039  47.699   3.219  1.00  0.00    -0.200 N 
HETATM   12  N5  UNL     1       1.742  45.471   4.206  1.00  0.00    -0.143 N 
HETATM   13  C9  UNL     1       3.125  47.950   4.134  1.00  0.00     0.234 C 
ATOM     14  H3  UNL     1       1.870  48.324   2.431  1.00  0.00     0.180 HD
HETATM   15  N4  UNL     1       3.789  46.726   4.448  1.00  0.00    -0.350 N 
HETATM   16  C16 UNL     1       2.995  45.567   4.690  1.00  0.00     0.126 A 
ATOM     17  H4  UNL     1       4.807  46.681   4.499  1.00  0.00     0.163 HD
HETATM   18  C17 UNL     1       3.463  44.490   5.426  1.00  0.00     0.049 A 
HETATM   19  C18 UNL     1       2.688  43.372   5.656  1.00  0.00     0.005 A 
HETATM   20  C19 UNL     1       1.412  43.299   5.151  1.00  0.00     0.018 A 
HETATM   21  C20 UNL     1       0.958  44.396   4.412  1.00  0.00     0.117 A 
ATOM     22  H2  UNL     1      -0.543  45.671   3.140  1.00  0.00     0.184 HD
BRANCH  13  23
HETATM   23  C10 UNL     1       4.043  48.999   3.641  1.00  0.00    -0.013 A 
HETATM   24  C11 UNL     1       3.707  49.792   2.541  1.00  0.00     0.011 A 
HETATM   25  C12 UNL     1       4.537  50.774   2.055  1.00  0.00     0.003 A 
HETATM   26  C13 UNL     1       5.753  51.000   2.665  1.00  0.00     0.036 A 
HETATM   27  C14 UNL     1       6.131  50.229   3.769  1.00  0.00     0.066 A 
HETATM   28  C15 UNL     1       5.267  49.249   4.228  1.00  0.00     0.047 A 
BRANCH  27  29
HETATM   29  O1  UNL     1       7.354  50.501   4.333  1.00  0.00    -0.361 OA
ATOM     30  H1  UNL     1       7.691  49.870   4.958  1.00  0.00     0.217 HD
ENDBRANCH  27  29
ENDBRANCH  13  23
ENDBRANCH   8   9
TORSDOF 3
ENDMDL
MODEL 4
REMARK VINA RESULT: -9.109532090      2.988      7.243
REMARK  3 active torsions:
REMARK  status: ('A' for Active; 'I' for Inactive)
REMARK    1  A    between atoms: C7_8  and  N2_9 
REMARK    2  A    between atoms: C9_14  and  C10_15 
REMARK    3  A    between atoms: C14_19  and  O1_20 
ROOT
HETATM    1  N1  UNL     1       6.276  46.820   5.768  1.00  0.00    -0.191 NA
HETATM    2  C1  UNL     1       5.404  46.105   5.515  1.00  0.00     0.102 C 
HETATM    3  C2  UNL     1       4.286  45.228   5.195  1.00  0.00     0.071 A 
HETATM    4  C3  UNL     1       3.938  44.236   6.087  1.00  0.00     0.025 A 
HETATM    5  C4  UNL     1       2.890  43.384   5.825  1.00  0.00     0.002 A 
HETATM    6  C5  UNL     1       2.196  43.548   4.646  1.00  0.00     0.002 A 
HETATM    7  C6  UNL     1       2.530  44.532   3.741  1.00  0.00     0.031 A 
HETATM    8  C7  UNL     1       3.581  45.370   4.027  1.00  0.00     0.070 A 
ENDROOT
BRANCH   8   9
HETATM    9  N2  UNL     1       3.950  46.392   3.121  1.00  0.00    -0.190 N 
HETATM   10  C8  UNL     1       3.104  47.189   2.558  1.00  0.00     0.688 C 
HETATM   11  N3  UNL     1       1.710  47.095   2.817  1.00  0.00    -0.200 N 
HETATM   12  N5  UNL     1       3.555  48.210   1.643  1.00  0.00    -0.143 N 
HETATM   13  C9  UNL     1       0.878  48.251   2.589  1.00  0.00     0.234 C 
ATOM     14  H3  UNL     1       1.304  46.223   3.158  1.00  0.00     0.180 HD
HETATM   15  N4  UNL     1       1.256  48.889   1.369  1.00  0.00    -0.350 N 
HETATM   16  C16 UNL     1       2.645  49.023   1.077  1.00  0.00     0.126 A 
ATOM     17  H4  UNL     1       0.550  49.241   0.722  1.00  0.00     0.163 HD
HETATM   18  C17 UNL     1       3.127  49.987   0.204  1.00  0.00     0.049 A 
HETATM   19  C18 UNL     1       4.472  50.111  -0.073  1.00  0.00     0.005 A 
HETATM   20  C19 UNL     1       5.382  49.268   0.518  1.00  0.00     0.018 A 
HETATM   21  C20 UNL     1       4.875  48.303   1.395  1.00  0.00     0.117 A 
ATOM     22  H2  UNL     1       4.939  46.506   2.899  1.00  0.00     0.184 HD
BRANCH  13  23
HETATM   23  C10 UNL     1      -0.563  47.927   2.653  1.00  0.00    -0.013 A 
HETATM   24  C11 UNL     1      -1.529  48.868   2.287  1.00  0.00     0.011 A 
HETATM   25  C12 UNL     1      -2.877  48.602   2.336  1.00  0.00     0.003 A 
HETATM   26  C13 UNL     1      -3.311  47.364   2.760  1.00  0.00     0.036 A 
HETATM   27  C14 UNL     1      -2.379  46.391   3.136  1.00  0.00     0.066 A 
HETATM   28  C15 UNL     1      -1.030  46.698   3.073  1.00  0.00     0.047 A 
BRANCH  27  29
HETATM   29  O1  UNL     1      -2.872  45.178   3.549  1.00  0.00    -0.361 OA
ATOM     30  H1  UNL     1      -2.389  44.404   3.287  1.00  0.00     0.217 HD
ENDBRANCH  27  29
ENDBRANCH  13  23
ENDBRANCH   8   9
TORSDOF 3
ENDMDL
MODEL 5
REMARK VINA RESULT: -8.988999154     10.245     14.070
REMARK  3 active torsions:
REMARK  status: ('A' for Active; 'I' for Inactive)
REMARK    1  A    between atoms: C7_8  and  N2_9 
REMARK    2  A    between atoms: C9_14  and  C10_15 
REMARK    3  A    between atoms: C14_19  and  O1_20 
ROOT
HETATM    1  N1  UNL     1       6.195  52.619   0.712  1.00  0.00    -0.191 NA
HETATM    2  C1  UNL     1       7.324  52.799   0.877  1.00  0.00     0.102 C 
HETATM    3  C2  UNL     1       8.748  53.045   1.061  1.00  0.00     0.071 A 
HETATM    4  C3  UNL     1       9.620  51.977   1.037  1.00  0.00     0.025 A 
HETATM    5  C4  UNL     1      10.973  52.163   1.208  1.00  0.00     0.002 A 
HETATM    6  C5  UNL     1      11.434  53.446   1.404  1.00  0.00     0.002 A 
HETATM    7  C6  UNL     1      10.579  54.527   1.432  1.00  0.00     0.031 A 
HETATM    8  C7  UNL     1       9.233  54.313   1.259  1.00  0.00     0.070 A 
ENDROOT
BRANCH   8   9
HETATM    9  N2  UNL     1       8.326  55.400   1.282  1.00  0.00    -0.190 N 
HETATM   10  C8  UNL     1       8.475  56.470   0.576  1.00  0.00     0.688 C 
HETATM   11  N3  UNL     1       9.584  56.636  -0.297  1.00  0.00    -0.200 N 
HETATM   12  N5  UNL     1       7.507  57.539   0.651  1.00  0.00    -0.143 N 
HETATM   13  C9  UNL     1       9.476  57.563  -1.396  1.00  0.00     0.234 C 
ATOM     14  H3  UNL     1      10.444  56.108  -0.147  1.00  0.00     0.180 HD
HETATM   15  N4  UNL     1       8.825  58.758  -0.962  1.00  0.00    -0.350 N 
HETATM   16  C16 UNL     1       7.695  58.639  -0.101  1.00  0.00     0.126 A 
ATOM     17  H4  UNL     1       9.160  59.674  -1.260  1.00  0.00     0.163 HD
HETATM   18  C17 UNL     1       6.739  59.637   0.007  1.00  0.00     0.049 A 
HETATM   19  C18 UNL     1       5.647  59.515   0.841  1.00  0.00     0.005 A 
HETATM   20  C19 UNL     1       5.479  58.380   1.599  1.00  0.00     0.018 A 
HETATM   21  C20 UNL     1       6.454  57.386   1.476  1.00  0.00     0.117 A 
ATOM     22  H2  UNL     1       7.510  55.334   1.890  1.00  0.00     0.184 HD
BRANCH  13  23
HETATM   23  C10 UNL     1      10.778  57.816  -2.048  1.00  0.00    -0.013 A 
HETATM   24  C11 UNL     1      11.497  56.779  -2.647  1.00  0.00     0.011 A 
HETATM   25  C12 UNL     1      12.711  56.978  -3.261  1.00  0.00     0.003 A 
HETATM   26  C13 UNL     1      13.256  58.244  -3.298  1.00  0.00     0.036 A 
HETATM   27  C14 UNL     1      12.570  59.312  -2.710  1.00  0.00     0.066 A 
HETATM   28  C15 UNL     1      11.350  59.071  -2.101  1.00  0.00     0.047 A 
BRANCH  27  29
HETATM   29  O1  UNL     1      13.163  60.549  -2.779  1.00  0.00    -0.361 OA
ATOM     30  H1  UNL     1      13.383  60.969  -1.956  1.00  0.00     0.217 HD
ENDBRANCH  27  29
ENDBRANCH  13  23
ENDBRANCH   8   9
TORSDOF 3
ENDMDL
