MODEL 1
REMARK VINA RESULT: -6.729426006      0.000      0.000
REMARK  3 active torsions:
REMARK  status: ('A' for Active; 'I' for Inactive)
REMARK    1  A    between atoms: O1_2  and  C2_3 
REMARK    2  A    between atoms: C2_3  and  C4_5 
REMARK    3  A    between atoms: C17_21  and  O5_22 
ROOT
HETATM    1  C4  UNL     1      -0.658 -47.769 -19.678  1.00  0.00     0.179 C 
HETATM    2  O2  UNL     1      -0.109 -47.081 -20.713  1.00  0.00    -0.375 OA
HETATM    3  C5  UNL     1       1.130 -47.541 -21.145  1.00  0.00     0.127 C 
HETATM    4  C6  UNL     1       1.434 -46.709 -22.350  1.00  0.00     0.052 C 
HETATM    5  C7  UNL     1       2.729 -47.021 -23.016  1.00  0.00     0.053 C 
HETATM    6  C8  UNL     1       2.861 -48.418 -23.502  1.00  0.00     0.026 C 
HETATM    7  C9  UNL     1       2.887 -46.111 -24.177  1.00  0.00     0.268 C 
HETATM    8  O3  UNL     1       1.949 -45.647 -24.851  1.00  0.00    -0.264 OA
HETATM    9  O4  UNL     1       4.252 -45.919 -24.316  1.00  0.00    -0.315 OA
HETATM   10  C10 UNL     1       4.904 -46.067 -23.067  1.00  0.00     0.133 C 
HETATM   11  C11 UNL     1       5.369 -44.661 -22.667  1.00  0.00     0.040 C 
HETATM   12  C12 UNL     1       3.848 -46.568 -22.118  1.00  0.00     0.033 C 
HETATM   13  C13 UNL     1       4.316 -47.729 -21.315  1.00  0.00     0.009 C 
HETATM   14  C14 UNL     1       3.389 -48.207 -20.281  1.00  0.00     0.008 C 
HETATM   15  C15 UNL     1       2.160 -47.401 -20.048  1.00  0.00     0.017 C 
HETATM   16  C16 UNL     1       1.575 -47.845 -18.724  1.00  0.00     0.041 C 
HETATM   17  C17 UNL     1       0.281 -48.589 -18.874  1.00  0.00     0.150 C 
ENDROOT
BRANCH   1  18
HETATM   18  C2  UNL     1      -1.439 -46.773 -18.817  1.00  0.00     0.148 C 
HETATM   19  C3  UNL     1      -1.239 -45.360 -19.321  1.00  0.00     0.042 C 
BRANCH  18  20
HETATM   20  O1  UNL     1      -2.805 -47.034 -18.846  1.00  0.00    -0.388 OA
HETATM   21  C1  UNL     1      -3.345 -46.350 -19.925  1.00  0.00     0.202 C 
ENDBRANCH  18  20
ENDBRANCH   1  18
BRANCH  17  22
HETATM   22  O5  UNL     1       0.449 -49.849 -19.443  1.00  0.00    -0.393 OA
ATOM     23  H5  UNL     1       1.339 -49.961 -19.756  1.00  0.00     0.210 HD
ENDBRANCH  17  22
TORSDOF 3
ENDMDL
MODEL 2
REMARK VINA RESULT: -6.700237806      1.816      6.166
REMARK  3 active torsions:
REMARK  status: ('A' for Active; 'I' for Inactive)
REMARK    1  A    between atoms: O1_2  and  C2_3 
REMARK    2  A    between atoms: C2_3  and  C4_5 
REMARK    3  A    between atoms: C17_21  and  O5_22 
ROOT
HETATM    1  C4  UNL     1       3.558 -48.045 -22.814  1.00  0.00     0.179 C 
HETATM    2  O2  UNL     1       2.653 -48.053 -21.800  1.00  0.00    -0.375 OA
HETATM    3  C5  UNL     1       1.457 -47.395 -22.062  1.00  0.00     0.127 C 
HETATM    4  C6  UNL     1       0.612 -47.668 -20.858  1.00  0.00     0.052 C 
HETATM    5  C7  UNL     1      -0.749 -47.068 -20.898  1.00  0.00     0.053 C 
HETATM    6  C8  UNL     1      -1.595 -47.511 -22.037  1.00  0.00     0.026 C 
HETATM    7  C9  UNL     1      -1.451 -47.417 -19.639  1.00  0.00     0.268 C 
HETATM    8  O3  UNL     1      -1.261 -48.458 -18.984  1.00  0.00    -0.264 OA
HETATM    9  O4  UNL     1      -2.316 -46.364 -19.390  1.00  0.00    -0.315 OA
HETATM   10  C10 UNL     1      -1.814 -45.165 -19.954  1.00  0.00     0.133 C 
HETATM   11  C11 UNL     1      -1.388 -44.290 -18.768  1.00  0.00     0.040 C 
HETATM   12  C12 UNL     1      -0.617 -45.574 -20.770  1.00  0.00     0.033 C 
HETATM   13  C13 UNL     1      -0.628 -44.974 -22.130  1.00  0.00     0.009 C 
HETATM   14  C14 UNL     1       0.561 -45.228 -22.953  1.00  0.00     0.008 C 
HETATM   15  C15 UNL     1       1.703 -45.923 -22.297  1.00  0.00     0.017 C 
HETATM   16  C16 UNL     1       2.915 -45.731 -23.183  1.00  0.00     0.041 C 
HETATM   17  C17 UNL     1       3.362 -47.000 -23.848  1.00  0.00     0.150 C 
ENDROOT
BRANCH   1  18
HETATM   18  C2  UNL     1       4.956 -47.989 -22.192  1.00  0.00     0.148 C 
HETATM   19  C3  UNL     1       4.872 -48.077 -20.683  1.00  0.00     0.042 C 
BRANCH  18  20
HETATM   20  O1  UNL     1       5.750 -49.045 -22.625  1.00  0.00    -0.388 OA
HETATM   21  C1  UNL     1       5.521 -50.122 -21.783  1.00  0.00     0.202 C 
ENDBRANCH  18  20
ENDBRANCH   1  18
BRANCH  17  22
HETATM   22  O5  UNL     1       2.474 -47.433 -24.828  1.00  0.00    -0.393 OA
ATOM     23  H5  UNL     1       1.575 -47.327 -24.539  1.00  0.00     0.210 HD
ENDBRANCH  17  22
TORSDOF 3
ENDMDL
MODEL 3
REMARK VINA RESULT: -6.309677860      1.701      3.333
REMARK  3 active torsions:
REMARK  status: ('A' for Active; 'I' for Inactive)
REMARK    1  A    between atoms: O1_2  and  C2_3 
REMARK    2  A    between atoms: C2_3  and  C4_5 
REMARK    3  A    between atoms: C17_21  and  O5_22 
ROOT
HETATM    1  C4  UNL     1       0.052 -46.548 -19.651  1.00  0.00     0.179 C 
HETATM    2  O2  UNL     1       1.221 -47.089 -20.083  1.00  0.00    -0.375 OA
HETATM    3  C5  UNL     1       1.797 -46.466 -21.184  1.00  0.00     0.127 C 
HETATM    4  C6  UNL     1       3.109 -47.163 -21.360  1.00  0.00     0.052 C 
HETATM    5  C7  UNL     1       3.937 -46.663 -22.491  1.00  0.00     0.053 C 
HETATM    6  C8  UNL     1       4.302 -45.225 -22.412  1.00  0.00     0.026 C 
HETATM    7  C9  UNL     1       5.191 -47.455 -22.539  1.00  0.00     0.268 C 
HETATM    8  O3  UNL     1       5.750 -47.962 -21.548  1.00  0.00    -0.264 OA
HETATM    9  O4  UNL     1       5.560 -47.488 -23.873  1.00  0.00    -0.315 OA
HETATM   10  C10 UNL     1       4.421 -47.371 -24.707  1.00  0.00     0.133 C 
HETATM   11  C11 UNL     1       4.236 -48.747 -25.360  1.00  0.00     0.040 C 
HETATM   12  C12 UNL     1       3.274 -47.063 -23.781  1.00  0.00     0.033 C 
HETATM   13  C13 UNL     1       2.446 -45.927 -24.266  1.00  0.00     0.009 C 
HETATM   14  C14 UNL     1       1.239 -45.634 -23.484  1.00  0.00     0.008 C 
HETATM   15  C15 UNL     1       0.894 -46.583 -22.390  1.00  0.00     0.017 C 
HETATM   16  C16 UNL     1      -0.542 -46.310 -21.995  1.00  0.00     0.041 C 
HETATM   17  C17 UNL     1      -0.669 -45.700 -20.631  1.00  0.00     0.150 C 
ENDROOT
BRANCH   1  18
HETATM   18  C2  UNL     1      -0.822 -47.687 -19.119  1.00  0.00     0.148 C 
HETATM   19  C3  UNL     1      -2.272 -47.258 -19.048  1.00  0.00     0.042 C 
BRANCH  18  20
HETATM   20  O1  UNL     1      -0.761 -48.806 -19.944  1.00  0.00    -0.388 OA
HETATM   21  C1  UNL     1      -0.678 -49.927 -19.133  1.00  0.00     0.202 C 
ENDBRANCH  18  20
ENDBRANCH   1  18
BRANCH  17  22
HETATM   22  O5  UNL     1      -0.204 -44.388 -20.585  1.00  0.00    -0.393 OA
ATOM     23  H5  UNL     1      -0.800 -43.803 -21.039  1.00  0.00     0.210 HD
ENDBRANCH  17  22
TORSDOF 3
ENDMDL
MODEL 4
REMARK VINA RESULT: -6.277390069      1.849      5.970
REMARK  3 active torsions:
REMARK  status: ('A' for Active; 'I' for Inactive)
REMARK    1  A    between atoms: O1_2  and  C2_3 
REMARK    2  A    between atoms: C2_3  and  C4_5 
REMARK    3  A    between atoms: C17_21  and  O5_22 
ROOT
HETATM    1  C4  UNL     1       3.523 -48.662 -22.057  1.00  0.00     0.179 C 
HETATM    2  O2  UNL     1       2.535 -48.528 -21.135  1.00  0.00    -0.375 OA
HETATM    3  C5  UNL     1       1.435 -47.781 -21.541  1.00  0.00     0.127 C 
HETATM    4  C6  UNL     1       0.465 -47.904 -20.410  1.00  0.00     0.052 C 
HETATM    5  C7  UNL     1      -0.824 -47.185 -20.609  1.00  0.00     0.053 C 
HETATM    6  C8  UNL     1      -1.603 -47.616 -21.799  1.00  0.00     0.026 C 
HETATM    7  C9  UNL     1      -1.666 -47.394 -19.406  1.00  0.00     0.268 C 
HETATM    8  O3  UNL     1      -1.636 -48.408 -18.684  1.00  0.00    -0.264 OA
HETATM    9  O4  UNL     1      -2.444 -46.253 -19.294  1.00  0.00    -0.315 OA
HETATM   10  C10 UNL     1      -1.781 -45.141 -19.867  1.00  0.00     0.133 C 
HETATM   11  C11 UNL     1      -1.380 -44.240 -18.693  1.00  0.00     0.040 C 
HETATM   12  C12 UNL     1      -0.560 -45.705 -20.545  1.00  0.00     0.033 C 
HETATM   13  C13 UNL     1      -0.393 -45.188 -21.929  1.00  0.00     0.009 C 
HETATM   14  C14 UNL     1       0.835 -45.598 -22.621  1.00  0.00     0.008 C 
HETATM   15  C15 UNL     1       1.842 -46.353 -21.826  1.00  0.00     0.017 C 
HETATM   16  C16 UNL     1       3.141 -46.325 -22.603  1.00  0.00     0.041 C 
HETATM   17  C17 UNL     1       3.522 -47.667 -23.157  1.00  0.00     0.150 C 
ENDROOT
BRANCH   1  18
HETATM   18  C2  UNL     1       4.859 -48.697 -21.310  1.00  0.00     0.148 C 
HETATM   19  C3  UNL     1       5.643 -47.427 -21.560  1.00  0.00     0.042 C 
BRANCH  18  20
HETATM   20  O1  UNL     1       4.673 -48.805 -19.936  1.00  0.00    -0.388 OA
HETATM   21  C1  UNL     1       5.441 -49.868 -19.486  1.00  0.00     0.202 C 
ENDBRANCH  18  20
ENDBRANCH   1  18
BRANCH  17  22
HETATM   22  O5  UNL     1       2.687 -48.075 -24.193  1.00  0.00    -0.393 OA
ATOM     23  H5  UNL     1       2.470 -47.344 -24.760  1.00  0.00     0.210 HD
ENDBRANCH  17  22
TORSDOF 3
ENDMDL
MODEL 5
REMARK VINA RESULT: -6.186488604      1.235      1.583
REMARK  3 active torsions:
REMARK  status: ('A' for Active; 'I' for Inactive)
REMARK    1  A    between atoms: O1_2  and  C2_3 
REMARK    2  A    between atoms: C2_3  and  C4_5 
REMARK    3  A    between atoms: C17_21  and  O5_22 
ROOT
HETATM    1  C4  UNL     1      -1.665 -47.264 -20.884  1.00  0.00     0.179 C 
HETATM    2  O2  UNL     1      -0.734 -47.008 -21.840  1.00  0.00    -0.375 OA
HETATM    3  C5  UNL     1       0.557 -47.430 -21.545  1.00  0.00     0.127 C 
HETATM    4  C6  UNL     1       1.333 -47.151 -22.792  1.00  0.00     0.052 C 
HETATM    5  C7  UNL     1       2.771 -47.531 -22.734  1.00  0.00     0.053 C 
HETATM    6  C8  UNL     1       3.028 -48.970 -22.466  1.00  0.00     0.026 C 
HETATM    7  C9  UNL     1       3.399 -47.185 -24.033  1.00  0.00     0.268 C 
HETATM    8  O3  UNL     1       2.810 -47.184 -25.130  1.00  0.00    -0.264 OA
HETATM    9  O4  UNL     1       4.718 -46.881 -23.740  1.00  0.00    -0.315 OA
HETATM   10  C10 UNL     1       4.833 -46.395 -22.414  1.00  0.00     0.133 C 
HETATM   11  C11 UNL     1       5.161 -44.902 -22.541  1.00  0.00     0.040 C 
HETATM   12  C12 UNL     1       3.475 -46.591 -21.794  1.00  0.00     0.033 C 
HETATM   13  C13 UNL     1       3.553 -47.225 -20.452  1.00  0.00     0.009 C 
HETATM   14  C14 UNL     1       2.283 -47.347 -19.726  1.00  0.00     0.008 C 
HETATM   15  C15 UNL     1       1.090 -46.697 -20.335  1.00  0.00     0.017 C 
HETATM   16  C16 UNL     1       0.024 -46.617 -19.262  1.00  0.00     0.041 C 
HETATM   17  C17 UNL     1      -1.140 -47.528 -19.523  1.00  0.00     0.150 C 
ENDROOT
BRANCH   1  18
HETATM   18  C2  UNL     1      -2.679 -46.117 -20.900  1.00  0.00     0.148 C 
HETATM   19  C3  UNL     1      -3.387 -46.050 -22.237  1.00  0.00     0.042 C 
BRANCH  18  20
HETATM   20  O1  UNL     1      -3.655 -46.284 -19.923  1.00  0.00    -0.388 OA
HETATM   21  C1  UNL     1      -4.858 -45.830 -20.442  1.00  0.00     0.202 C 
ENDBRANCH  18  20
ENDBRANCH   1  18
BRANCH  17  22
HETATM   22  O5  UNL     1      -0.813 -48.872 -19.370  1.00  0.00    -0.393 OA
ATOM     23  H5  UNL     1      -0.420 -49.216 -20.164  1.00  0.00     0.210 HD
ENDBRANCH  17  22
TORSDOF 3
ENDMDL
