MODEL 1
REMARK VINA RESULT: -7.663827772      0.000      0.000
REMARK  8 active torsions:
REMARK  status: ('A' for Active; 'I' for Inactive)
REMARK    1  A    between atoms: C2_2  and  O2_4 
REMARK    2  A    between atoms: O2_4  and  C3_5 
REMARK    3  A    between atoms: C4_6  and  C5_7 
REMARK    4  A    between atoms: C10_12  and  N1_13 
REMARK    5  A    between atoms: C14_20  and  O4_21 
REMARK    6  A    between atoms: O4_21  and  C15_22 
REMARK    7  A    between atoms: C17_25  and  O6_26 
REMARK    8  A    between atoms: O6_26  and  C18_27 
ROOT
HETATM    1  C3  UNL     1      96.661  26.938  17.929  1.00  0.00     0.095 C 
HETATM    2  C4  UNL     1      96.123  25.843  17.092  1.00  0.00    -0.020 C 
HETATM    3  C9  UNL     1      95.686  26.207  15.894  1.00  0.00     0.013 C 
HETATM    4  C10 UNL     1      95.721  27.607  15.398  1.00  0.00     0.163 C 
HETATM    5  C14 UNL     1      96.808  28.452  15.956  1.00  0.00     0.196 C 
HETATM    6  C17 UNL     1      97.521  27.904  17.153  1.00  0.00     0.221 C 
ENDROOT
BRANCH   4   7
HETATM    7  N1  UNL     1      95.767  27.568  13.941  1.00  0.00    -0.289 N 
HETATM    8  C11 UNL     1      95.658  26.444  13.207  1.00  0.00     0.116 A 
HETATM    9  C12 UNL     1      95.740  26.745  11.873  1.00  0.00     0.094 A 
HETATM   10  C13 UNL     1      95.908  28.129  11.822  1.00  0.00     0.261 A 
HETATM   11  O3  UNL     1      96.029  28.851  10.802  1.00  0.00    -0.267 OA
HETATM   12  N2  UNL     1      95.917  28.572  13.092  1.00  0.00    -0.264 N 
ATOM     13  H2  UNL     1      96.025  29.549  13.363  1.00  0.00     0.190 HD
ENDBRANCH   4   7
BRANCH   5  14
HETATM   14  O4  UNL     1      96.218  29.732  16.233  1.00  0.00    -0.311 OA
BRANCH  14  15
HETATM   15  C15 UNL     1      96.691  30.925  15.777  1.00  0.00     0.255 C 
HETATM   16  C16 UNL     1      96.709  32.081  16.730  1.00  0.00     0.126 C 
HETATM   17  O5  UNL     1      97.086  31.006  14.594  1.00  0.00    -0.266 OA
ENDBRANCH  14  15
ENDBRANCH   5  14
BRANCH   2  18
HETATM   18  C5  UNL     1      96.037  24.423  17.476  1.00  0.00    -0.022 C 
HETATM   19  C6  UNL     1      95.108  24.202  18.666  1.00  0.00     0.019 C 
HETATM   20  C7  UNL     1      97.393  23.799  17.726  1.00  0.00     0.019 C 
HETATM   21  C8  UNL     1      95.446  23.565  16.361  1.00  0.00     0.019 C 
ENDBRANCH   2  18
BRANCH   6  22
HETATM   22  O6  UNL     1      98.826  27.500  16.929  1.00  0.00    -0.307 OA
BRANCH  22  23
HETATM   23  C18 UNL     1      99.611  27.712  15.849  1.00  0.00     0.255 C 
HETATM   24  C19 UNL     1     100.831  28.534  15.816  1.00  0.00     0.126 C 
HETATM   25  O7  UNL     1      99.232  27.143  14.810  1.00  0.00    -0.266 OA
ENDBRANCH  22  23
ENDBRANCH   6  22
BRANCH   1  26
HETATM   26  O2  UNL     1      97.134  26.585  19.171  1.00  0.00    -0.280 OA
BRANCH  26  27
HETATM   27  C2  UNL     1      96.755  26.970  20.396  1.00  0.00     0.259 C 
HETATM   28  C1  UNL     1      95.470  27.632  20.627  1.00  0.00     0.126 C 
HETATM   29  O1  UNL     1      97.525  26.750  21.335  1.00  0.00    -0.265 OA
ENDBRANCH  26  27
ENDBRANCH   1  26
TORSDOF 8
ENDMDL
MODEL 2
REMARK VINA RESULT: -7.538206820      1.779      2.055
REMARK  8 active torsions:
REMARK  status: ('A' for Active; 'I' for Inactive)
REMARK    1  A    between atoms: C2_2  and  O2_4 
REMARK    2  A    between atoms: O2_4  and  C3_5 
REMARK    3  A    between atoms: C4_6  and  C5_7 
REMARK    4  A    between atoms: C10_12  and  N1_13 
REMARK    5  A    between atoms: C14_20  and  O4_21 
REMARK    6  A    between atoms: O4_21  and  C15_22 
REMARK    7  A    between atoms: C17_25  and  O6_26 
REMARK    8  A    between atoms: O6_26  and  C18_27 
ROOT
HETATM    1  C3  UNL     1      96.712  27.375  16.732  1.00  0.00     0.095 C 
HETATM    2  C4  UNL     1      96.312  25.968  16.520  1.00  0.00    -0.020 C 
HETATM    3  C9  UNL     1      95.990  25.650  15.273  1.00  0.00     0.013 C 
HETATM    4  C10 UNL     1      96.017  26.620  14.147  1.00  0.00     0.163 C 
HETATM    5  C14 UNL     1      97.002  27.724  14.282  1.00  0.00     0.196 C 
HETATM    6  C17 UNL     1      97.607  27.905  15.639  1.00  0.00     0.221 C 
ENDROOT
BRANCH   4   7
HETATM    7  N1  UNL     1      96.218  25.870  12.912  1.00  0.00    -0.289 N 
HETATM    8  C11 UNL     1      96.202  24.526  12.829  1.00  0.00     0.116 A 
HETATM    9  C12 UNL     1      96.422  24.134  11.534  1.00  0.00     0.094 A 
HETATM   10  C13 UNL     1      96.576  25.321  10.816  1.00  0.00     0.261 A 
HETATM   11  O3  UNL     1      96.797  25.452   9.587  1.00  0.00    -0.267 OA
HETATM   12  N2  UNL     1      96.445  26.332  11.693  1.00  0.00    -0.264 N 
ATOM     13  H2  UNL     1      96.511  27.320  11.451  1.00  0.00     0.190 HD
ENDBRANCH   4   7
BRANCH   5  14
HETATM   14  O4  UNL     1      96.331  28.914  13.839  1.00  0.00    -0.311 OA
BRANCH  14  15
HETATM   15  C15 UNL     1      96.137  30.029  14.596  1.00  0.00     0.255 C 
HETATM   16  C16 UNL     1      94.863  30.131  15.379  1.00  0.00     0.126 C 
HETATM   17  O5  UNL     1      97.020  30.913  14.607  1.00  0.00    -0.266 OA
ENDBRANCH  14  15
ENDBRANCH   5  14
BRANCH   2  18
HETATM   18  C5  UNL     1      96.247  24.921  17.555  1.00  0.00    -0.022 C 
HETATM   19  C6  UNL     1      95.353  25.321  18.725  1.00  0.00     0.019 C 
HETATM   20  C7  UNL     1      97.615  24.492  18.044  1.00  0.00     0.019 C 
HETATM   21  C8  UNL     1      95.634  23.629  17.024  1.00  0.00     0.019 C 
ENDBRANCH   2  18
BRANCH   6  22
HETATM   22  O6  UNL     1      98.945  27.562  15.740  1.00  0.00    -0.307 OA
BRANCH  22  23
HETATM   23  C18 UNL     1     100.014  28.359  15.956  1.00  0.00     0.255 C 
HETATM   24  C19 UNL     1     101.426  27.968  15.813  1.00  0.00     0.126 C 
HETATM   25  O7  UNL     1      99.737  29.520  16.305  1.00  0.00    -0.266 OA
ENDBRANCH  22  23
ENDBRANCH   6  22
BRANCH   1  26
HETATM   26  O2  UNL     1      97.065  27.726  18.014  1.00  0.00    -0.280 OA
BRANCH  26  27
HETATM   27  C2  UNL     1      96.694  28.765  18.773  1.00  0.00     0.259 C 
HETATM   28  C1  UNL     1      97.017  30.142  18.398  1.00  0.00     0.126 C 
HETATM   29  O1  UNL     1      96.064  28.528  19.808  1.00  0.00    -0.265 OA
ENDBRANCH  26  27
ENDBRANCH   1  26
TORSDOF 8
ENDMDL
MODEL 3
REMARK VINA RESULT: -7.419386860      1.634      2.100
REMARK  8 active torsions:
REMARK  status: ('A' for Active; 'I' for Inactive)
REMARK    1  A    between atoms: C2_2  and  O2_4 
REMARK    2  A    between atoms: O2_4  and  C3_5 
REMARK    3  A    between atoms: C4_6  and  C5_7 
REMARK    4  A    between atoms: C10_12  and  N1_13 
REMARK    5  A    between atoms: C14_20  and  O4_21 
REMARK    6  A    between atoms: O4_21  and  C15_22 
REMARK    7  A    between atoms: C17_25  and  O6_26 
REMARK    8  A    between atoms: O6_26  and  C18_27 
ROOT
HETATM    1  C3  UNL     1      96.680  25.427  17.469  1.00  0.00     0.095 C 
HETATM    2  C4  UNL     1      96.067  24.928  16.220  1.00  0.00    -0.020 C 
HETATM    3  C9  UNL     1      95.538  25.857  15.436  1.00  0.00     0.013 C 
HETATM    4  C10 UNL     1      95.544  27.307  15.763  1.00  0.00     0.163 C 
HETATM    5  C14 UNL     1      96.680  27.763  16.606  1.00  0.00     0.196 C 
HETATM    6  C17 UNL     1      97.482  26.688  17.269  1.00  0.00     0.221 C 
ENDROOT
BRANCH   4   7
HETATM    7  N1  UNL     1      95.472  28.052  14.511  1.00  0.00    -0.289 N 
HETATM    8  C11 UNL     1      95.157  27.507  13.321  1.00  0.00     0.116 A 
HETATM    9  C12 UNL     1      95.175  28.470  12.345  1.00  0.00     0.094 A 
HETATM   10  C13 UNL     1      95.523  29.649  13.005  1.00  0.00     0.261 A 
HETATM   11  O3  UNL     1      95.661  30.795  12.509  1.00  0.00    -0.267 OA
HETATM   12  N2  UNL     1      95.689  29.341  14.303  1.00  0.00    -0.264 N 
ATOM     13  H2  UNL     1      95.948  30.009  15.028  1.00  0.00     0.190 HD
ENDBRANCH   4   7
BRANCH   5  14
HETATM   14  O4  UNL     1      96.124  28.677  17.565  1.00  0.00    -0.311 OA
BRANCH  14  15
HETATM   15  C15 UNL     1      96.763  29.772  18.061  1.00  0.00     0.255 C 
HETATM   16  C16 UNL     1      97.133  30.862  17.101  1.00  0.00     0.126 C 
HETATM   17  O5  UNL     1      97.011  29.823  19.284  1.00  0.00    -0.266 OA
ENDBRANCH  14  15
ENDBRANCH   5  14
BRANCH   2  18
HETATM   18  C5  UNL     1      96.001  23.520  15.790  1.00  0.00    -0.022 C 
HETATM   19  C6  UNL     1      94.761  22.810  16.328  1.00  0.00     0.019 C 
HETATM   20  C7  UNL     1      97.256  22.743  16.127  1.00  0.00     0.019 C 
HETATM   21  C8  UNL     1      95.892  23.389  14.274  1.00  0.00     0.019 C 
ENDBRANCH   2  18
BRANCH   6  22
HETATM   22  O6  UNL     1      98.762  26.513  16.770  1.00  0.00    -0.307 OA
BRANCH  22  23
HETATM   23  C18 UNL     1      99.417  27.235  15.834  1.00  0.00     0.255 C 
HETATM   24  C19 UNL     1     100.450  28.251  16.094  1.00  0.00     0.126 C 
HETATM   25  O7  UNL     1      99.089  26.986  14.660  1.00  0.00    -0.266 OA
ENDBRANCH  22  23
ENDBRANCH   6  22
BRANCH   1  26
HETATM   26  O2  UNL     1      97.248  24.484  18.293  1.00  0.00    -0.280 OA
BRANCH  26  27
HETATM   27  C2  UNL     1      96.930  24.098  19.535  1.00  0.00     0.259 C 
HETATM   28  C1  UNL     1      96.100  22.919  19.782  1.00  0.00     0.126 C 
HETATM   29  O1  UNL     1      97.362  24.769  20.477  1.00  0.00    -0.265 OA
ENDBRANCH  26  27
ENDBRANCH   1  26
TORSDOF 8
ENDMDL
MODEL 4
REMARK VINA RESULT: -7.372461115      2.191      3.169
REMARK  8 active torsions:
REMARK  status: ('A' for Active; 'I' for Inactive)
REMARK    1  A    between atoms: C2_2  and  O2_4 
REMARK    2  A    between atoms: O2_4  and  C3_5 
REMARK    3  A    between atoms: C4_6  and  C5_7 
REMARK    4  A    between atoms: C10_12  and  N1_13 
REMARK    5  A    between atoms: C14_20  and  O4_21 
REMARK    6  A    between atoms: O4_21  and  C15_22 
REMARK    7  A    between atoms: C17_25  and  O6_26 
REMARK    8  A    between atoms: O6_26  and  C18_27 
ROOT
HETATM    1  C3  UNL     1      96.014  26.880  16.109  1.00  0.00     0.095 C 
HETATM    2  C4  UNL     1      95.984  25.402  16.108  1.00  0.00    -0.020 C 
HETATM    3  C9  UNL     1      95.769  24.839  14.926  1.00  0.00     0.013 C 
HETATM    4  C10 UNL     1      95.567  25.612  13.674  1.00  0.00     0.163 C 
HETATM    5  C14 UNL     1      96.239  26.936  13.628  1.00  0.00     0.196 C 
HETATM    6  C17 UNL     1      96.761  27.455  14.931  1.00  0.00     0.221 C 
ENDROOT
BRANCH   4   7
HETATM    7  N1  UNL     1      95.967  24.768  12.553  1.00  0.00    -0.289 N 
HETATM    8  C11 UNL     1      96.465  23.523  12.680  1.00  0.00     0.116 A 
HETATM    9  C12 UNL     1      96.741  23.001  11.444  1.00  0.00     0.094 A 
HETATM   10  C13 UNL     1      96.383  24.000  10.538  1.00  0.00     0.261 A 
HETATM   11  O3  UNL     1      96.462  23.967   9.286  1.00  0.00    -0.267 OA
HETATM   12  N2  UNL     1      95.925  25.039  11.259  1.00  0.00    -0.264 N 
ATOM     13  H2  UNL     1      95.590  25.916  10.861  1.00  0.00     0.190 HD
ENDBRANCH   4   7
BRANCH   5  14
HETATM   14  O4  UNL     1      95.297  27.844  13.036  1.00  0.00    -0.311 OA
BRANCH  14  15
HETATM   15  C15 UNL     1      95.602  28.790  12.107  1.00  0.00     0.255 C 
HETATM   16  C16 UNL     1      95.723  28.356  10.678  1.00  0.00     0.126 C 
HETATM   17  O5  UNL     1      95.767  29.971  12.480  1.00  0.00    -0.266 OA
ENDBRANCH  14  15
ENDBRANCH   5  14
BRANCH   2  18
HETATM   18  C5  UNL     1      96.171  24.532  17.282  1.00  0.00    -0.022 C 
HETATM   19  C6  UNL     1      95.226  24.893  18.424  1.00  0.00     0.019 C 
HETATM   20  C7  UNL     1      97.607  24.492  17.762  1.00  0.00     0.019 C 
HETATM   21  C8  UNL     1      95.857  23.072  16.968  1.00  0.00     0.019 C 
ENDBRANCH   2  18
BRANCH   6  22
HETATM   22  O6  UNL     1      98.140  27.478  15.049  1.00  0.00    -0.307 OA
BRANCH  22  23
HETATM   23  C18 UNL     1      98.938  28.451  15.542  1.00  0.00     0.255 C 
HETATM   24  C19 UNL     1     100.318  28.276  16.023  1.00  0.00     0.126 C 
HETATM   25  O7  UNL     1      98.421  29.582  15.574  1.00  0.00    -0.266 OA
ENDBRANCH  22  23
ENDBRANCH   6  22
BRANCH   1  26
HETATM   26  O2  UNL     1      96.250  27.488  17.319  1.00  0.00    -0.280 OA
BRANCH  26  27
HETATM   27  C2  UNL     1      95.705  28.578  17.874  1.00  0.00     0.259 C 
HETATM   28  C1  UNL     1      96.520  29.564  18.585  1.00  0.00     0.126 C 
HETATM   29  O1  UNL     1      94.484  28.732  17.769  1.00  0.00    -0.265 OA
ENDBRANCH  26  27
ENDBRANCH   1  26
TORSDOF 8
ENDMDL
MODEL 5
REMARK VINA RESULT: -7.268198854      2.449      3.546
REMARK  8 active torsions:
REMARK  status: ('A' for Active; 'I' for Inactive)
REMARK    1  A    between atoms: C2_2  and  O2_4 
REMARK    2  A    between atoms: O2_4  and  C3_5 
REMARK    3  A    between atoms: C4_6  and  C5_7 
REMARK    4  A    between atoms: C10_12  and  N1_13 
REMARK    5  A    between atoms: C14_20  and  O4_21 
REMARK    6  A    between atoms: O4_21  and  C15_22 
REMARK    7  A    between atoms: C17_25  and  O6_26 
REMARK    8  A    between atoms: O6_26  and  C18_27 
ROOT
HETATM    1  C3  UNL     1      95.953  26.140  15.814  1.00  0.00     0.095 C 
HETATM    2  C4  UNL     1      96.008  24.662  15.789  1.00  0.00    -0.020 C 
HETATM    3  C9  UNL     1      95.853  24.108  14.594  1.00  0.00     0.013 C 
HETATM    4  C10 UNL     1      95.636  24.891  13.349  1.00  0.00     0.163 C 
HETATM    5  C14 UNL     1      96.233  26.251  13.341  1.00  0.00     0.196 C 
HETATM    6  C17 UNL     1      96.693  26.777  14.664  1.00  0.00     0.221 C 
ENDROOT
BRANCH   4   7
HETATM    7  N1  UNL     1      96.110  24.090  12.225  1.00  0.00    -0.289 N 
HETATM    8  C11 UNL     1      96.651  22.862  12.342  1.00  0.00     0.116 A 
HETATM    9  C12 UNL     1      96.992  22.381  11.105  1.00  0.00     0.094 A 
HETATM   10  C13 UNL     1      96.631  23.389  10.210  1.00  0.00     0.261 A 
HETATM   11  O3  UNL     1      96.757  23.389   8.961  1.00  0.00    -0.267 OA
HETATM   12  N2  UNL     1      96.106  24.391  10.937  1.00  0.00    -0.264 N 
ATOM     13  H2  UNL     1      95.753  25.265  10.547  1.00  0.00     0.190 HD
ENDBRANCH   4   7
BRANCH   5  14
HETATM   14  O4  UNL     1      95.254  27.114  12.741  1.00  0.00    -0.311 OA
BRANCH  14  15
HETATM   15  C15 UNL     1      95.536  28.182  11.945  1.00  0.00     0.255 C 
HETATM   16  C16 UNL     1      95.569  27.962  10.463  1.00  0.00     0.126 C 
HETATM   17  O5  UNL     1      95.755  29.290  12.478  1.00  0.00    -0.266 OA
ENDBRANCH  14  15
ENDBRANCH   5  14
BRANCH   2  18
HETATM   18  C5  UNL     1      96.217  23.784  16.953  1.00  0.00    -0.022 C 
HETATM   19  C6  UNL     1      94.987  23.717  17.853  1.00  0.00     0.019 C 
HETATM   20  C7  UNL     1      97.451  24.150  17.751  1.00  0.00     0.019 C 
HETATM   21  C8  UNL     1      96.473  22.338  16.540  1.00  0.00     0.019 C 
ENDBRANCH   2  18
BRANCH   6  22
HETATM   22  O6  UNL     1      98.066  26.876  14.815  1.00  0.00    -0.307 OA
BRANCH  22  23
HETATM   23  C18 UNL     1      98.773  27.507  15.778  1.00  0.00     0.255 C 
HETATM   24  C19 UNL     1      98.756  28.952  16.056  1.00  0.00     0.126 C 
HETATM   25  O7  UNL     1      99.492  26.763  16.469  1.00  0.00    -0.266 OA
ENDBRANCH  22  23
ENDBRANCH   6  22
BRANCH   1  26
HETATM   26  O2  UNL     1      96.125  26.739  17.039  1.00  0.00    -0.280 OA
BRANCH  26  27
HETATM   27  C2  UNL     1      95.271  27.427  17.807  1.00  0.00     0.259 C 
HETATM   28  C1  UNL     1      95.225  27.241  19.258  1.00  0.00     0.126 C 
HETATM   29  O1  UNL     1      94.516  28.233  17.253  1.00  0.00    -0.265 OA
ENDBRANCH  26  27
ENDBRANCH   1  26
TORSDOF 8
ENDMDL
