MODEL 1
REMARK VINA RESULT: -5.934097009      0.000      0.000
REMARK  4 active torsions:
REMARK  status: ('A' for Active; 'I' for Inactive)
REMARK    1  A    between atoms: C9_11  and  O3_12 
REMARK    2  A    between atoms: C12_15  and  O4_16 
REMARK    3  A    between atoms: C17_23  and  O7_25 
REMARK    4  A    between atoms: C19_27  and  O8_28 
ROOT
HETATM    1  C1  UNL     1      96.713  28.067  19.059  1.00  0.00     0.026 C 
HETATM    2  C2  UNL     1      96.316  27.647  17.880  1.00  0.00     0.018 A 
HETATM    3  C3  UNL     1      95.877  28.418  16.719  1.00  0.00     0.192 A 
HETATM    4  O1  UNL     1      95.828  29.687  16.730  1.00  0.00    -0.287 OA
HETATM    5  C4  UNL     1      95.529  27.529  15.619  1.00  0.00     0.064 A 
HETATM    6  C5  UNL     1      95.733  26.301  16.053  1.00  0.00     0.094 A 
HETATM    7  O2  UNL     1      95.564  25.084  15.429  1.00  0.00    -0.336 OA
HETATM    8  C6  UNL     1      95.571  24.477  14.162  1.00  0.00     0.117 C 
HETATM    9  C7  UNL     1      96.444  23.240  14.322  1.00  0.00     0.052 C 
HETATM   10  C8  UNL     1      94.217  23.994  13.817  1.00  0.00     0.052 C 
HETATM   11  C9  UNL     1      96.273  25.309  13.114  1.00  0.00     0.203 C 
HETATM   12  C11 UNL     1      95.379  26.402  12.660  1.00  0.00     0.144 C 
HETATM   13  C12 UNL     1      95.771  27.747  13.124  1.00  0.00     0.207 C 
HETATM   14  O5  UNL     1      97.117  28.011  13.248  1.00  0.00    -0.316 OA
HETATM   15  C14 UNL     1      97.940  26.920  13.317  1.00  0.00     0.164 C 
HETATM   16  C15 UNL     1      98.667  26.649  12.000  1.00  0.00     0.078 C 
HETATM   17  C16 UNL     1      99.077  27.317  14.259  1.00  0.00     0.078 C 
HETATM   18  O6  UNL     1      97.384  25.793  13.844  1.00  0.00    -0.316 OA
HETATM   19  C17 UNL     1      95.073  28.165  14.402  1.00  0.00     0.144 C 
HETATM   20  C18 UNL     1      93.568  28.092  14.284  1.00  0.00     0.057 C 
HETATM   21  C19 UNL     1      96.219  26.236  17.432  1.00  0.00     0.214 A 
ENDROOT
BRANCH  19  22
HETATM   22  O7  UNL     1      95.354  29.533  14.497  1.00  0.00    -0.379 OA
ATOM     23  H7  UNL     1      94.607  29.960  14.901  1.00  0.00     0.211 HD
ENDBRANCH  19  22
BRANCH  13  24
HETATM   24  O4  UNL     1      95.290  28.680  12.211  1.00  0.00    -0.357 OA
HETATM   25  C13 UNL     1      95.652  28.524  10.914  1.00  0.00     0.205 C 
ENDBRANCH  13  24
BRANCH  21  26
HETATM   26  O8  UNL     1      95.234  25.626  18.216  1.00  0.00    -0.379 OA
HETATM   27  C20 UNL     1      95.756  24.488  18.870  1.00  0.00     0.202 C 
ENDBRANCH  21  26
BRANCH  11  28
HETATM   28  O3  UNL     1      96.789  24.483  12.172  1.00  0.00    -0.357 OA
HETATM   29  C10 UNL     1      96.274  24.400  10.939  1.00  0.00     0.205 C 
ENDBRANCH  11  28
TORSDOF 4
ENDMDL
MODEL 2
REMARK VINA RESULT: -5.825982882      1.542      2.033
REMARK  4 active torsions:
REMARK  status: ('A' for Active; 'I' for Inactive)
REMARK    1  A    between atoms: C9_11  and  O3_12 
REMARK    2  A    between atoms: C12_15  and  O4_16 
REMARK    3  A    between atoms: C17_23  and  O7_25 
REMARK    4  A    between atoms: C19_27  and  O8_28 
ROOT
HETATM    1  C1  UNL     1      96.519  27.152  20.917  1.00  0.00     0.026 C 
HETATM    2  C2  UNL     1      96.312  27.174  19.621  1.00  0.00     0.018 A 
HETATM    3  C3  UNL     1      96.205  28.316  18.716  1.00  0.00     0.192 A 
HETATM    4  O1  UNL     1      96.311  29.514  19.126  1.00  0.00    -0.287 OA
HETATM    5  C4  UNL     1      95.972  27.866  17.351  1.00  0.00     0.064 A 
HETATM    6  C5  UNL     1      95.936  26.549  17.394  1.00  0.00     0.094 A 
HETATM    7  O2  UNL     1      95.744  25.619  16.396  1.00  0.00    -0.336 OA
HETATM    8  C6  UNL     1      95.924  25.418  15.017  1.00  0.00     0.117 C 
HETATM    9  C7  UNL     1      96.590  24.055  14.899  1.00  0.00     0.052 C 
HETATM   10  C8  UNL     1      94.614  25.306  14.339  1.00  0.00     0.052 C 
HETATM   11  C9  UNL     1      96.913  26.383  14.405  1.00  0.00     0.203 C 
HETATM   12  C11 UNL     1      96.266  27.702  14.199  1.00  0.00     0.144 C 
HETATM   13  C12 UNL     1      96.722  28.760  15.121  1.00  0.00     0.207 C 
HETATM   14  O5  UNL     1      98.040  28.732  15.520  1.00  0.00    -0.316 OA
HETATM   15  C14 UNL     1      98.693  27.542  15.357  1.00  0.00     0.164 C 
HETATM   16  C15 UNL     1      99.625  27.545  14.144  1.00  0.00     0.078 C 
HETATM   17  C16 UNL     1      99.664  27.437  16.533  1.00  0.00     0.078 C 
HETATM   18  O6  UNL     1      97.911  26.427  15.407  1.00  0.00    -0.316 OA
HETATM   19  C17 UNL     1      95.844  28.901  16.349  1.00  0.00     0.144 C 
HETATM   20  C18 UNL     1      94.394  29.134  15.992  1.00  0.00     0.057 C 
HETATM   21  C19 UNL     1      96.131  25.997  18.735  1.00  0.00     0.214 A 
ENDROOT
BRANCH  19  22
HETATM   22  O7  UNL     1      96.267  30.109  16.917  1.00  0.00    -0.379 OA
ATOM     23  H7  UNL     1      97.198  30.203  16.747  1.00  0.00     0.211 HD
ENDBRANCH  19  22
BRANCH  13  24
HETATM   24  O4  UNL     1      96.546  29.990  14.494  1.00  0.00    -0.357 OA
HETATM   25  C13 UNL     1      95.869  29.997  13.320  1.00  0.00     0.205 C 
ENDBRANCH  13  24
BRANCH  21  26
HETATM   26  O8  UNL     1      94.946  25.369  19.129  1.00  0.00    -0.379 OA
HETATM   27  C20 UNL     1      95.186  24.015  19.454  1.00  0.00     0.202 C 
ENDBRANCH  21  26
BRANCH  11  28
HETATM   28  O3  UNL     1      97.498  25.792  13.335  1.00  0.00    -0.357 OA
HETATM   29  C10 UNL     1      97.306  26.234  12.086  1.00  0.00     0.205 C 
ENDBRANCH  11  28
TORSDOF 4
ENDMDL
MODEL 3
REMARK VINA RESULT: -5.749342586      1.969      4.737
REMARK  4 active torsions:
REMARK  status: ('A' for Active; 'I' for Inactive)
REMARK    1  A    between atoms: C9_11  and  O3_12 
REMARK    2  A    between atoms: C12_15  and  O4_16 
REMARK    3  A    between atoms: C17_23  and  O7_25 
REMARK    4  A    between atoms: C19_27  and  O8_28 
ROOT
HETATM    1  C1  UNL     1      96.980  22.373  16.929  1.00  0.00     0.026 C 
HETATM    2  C2  UNL     1      96.655  23.642  16.846  1.00  0.00     0.018 A 
HETATM    3  C3  UNL     1      96.680  24.676  17.877  1.00  0.00     0.192 A 
HETATM    4  O1  UNL     1      97.051  24.434  19.068  1.00  0.00    -0.287 OA
HETATM    5  C4  UNL     1      96.232  25.951  17.333  1.00  0.00     0.064 A 
HETATM    6  C5  UNL     1      95.950  25.736  16.064  1.00  0.00     0.094 A 
HETATM    7  O2  UNL     1      95.488  26.588  15.085  1.00  0.00    -0.336 OA
HETATM    8  C6  UNL     1      95.490  27.940  14.700  1.00  0.00     0.117 C 
HETATM    9  C7  UNL     1      95.870  27.929  13.226  1.00  0.00     0.052 C 
HETATM   10  C8  UNL     1      94.123  28.498  14.778  1.00  0.00     0.052 C 
HETATM   11  C9  UNL     1      96.580  28.742  15.371  1.00  0.00     0.203 C 
HETATM   12  C11 UNL     1      96.179  29.069  16.761  1.00  0.00     0.144 C 
HETATM   13  C12 UNL     1      96.916  28.327  17.802  1.00  0.00     0.207 C 
HETATM   14  O5  UNL     1      98.237  28.026  17.556  1.00  0.00    -0.316 OA
HETATM   15  C14 UNL     1      98.633  28.082  16.248  1.00  0.00     0.164 C 
HETATM   16  C15 UNL     1      99.425  29.351  15.927  1.00  0.00     0.078 C 
HETATM   17  C16 UNL     1      99.677  26.978  16.082  1.00  0.00     0.078 C 
HETATM   18  O6  UNL     1      97.662  27.830  15.325  1.00  0.00    -0.316 OA
HETATM   19  C17 UNL     1      96.206  27.066  18.254  1.00  0.00     0.144 C 
HETATM   20  C18 UNL     1      94.799  27.341  18.732  1.00  0.00     0.057 C 
HETATM   21  C19 UNL     1      96.167  24.352  15.638  1.00  0.00     0.214 A 
ENDROOT
BRANCH  19  22
HETATM   22  O7  UNL     1      96.905  26.692  19.408  1.00  0.00    -0.379 OA
ATOM     23  H7  UNL     1      96.333  26.826  20.155  1.00  0.00     0.211 HD
ENDBRANCH  19  22
BRANCH  13  24
HETATM   24  O4  UNL     1      96.917  29.093  18.964  1.00  0.00    -0.357 OA
HETATM   25  C13 UNL     1      97.037  30.435  18.823  1.00  0.00     0.205 C 
ENDBRANCH  13  24
BRANCH  21  26
HETATM   26  O8  UNL     1      94.928  23.794  15.308  1.00  0.00    -0.379 OA
HETATM   27  C20 UNL     1      94.909  23.394  13.954  1.00  0.00     0.202 C 
ENDBRANCH  21  26
BRANCH  11  28
HETATM   28  O3  UNL     1      96.934  29.767  14.559  1.00  0.00    -0.357 OA
HETATM   29  C10 UNL     1      96.751  31.047  14.907  1.00  0.00     0.205 C 
ENDBRANCH  11  28
TORSDOF 4
ENDMDL
MODEL 4
REMARK VINA RESULT: -5.695191480      1.548      5.275
REMARK  4 active torsions:
REMARK  status: ('A' for Active; 'I' for Inactive)
REMARK    1  A    between atoms: C9_11  and  O3_12 
REMARK    2  A    between atoms: C12_15  and  O4_16 
REMARK    3  A    between atoms: C17_23  and  O7_25 
REMARK    4  A    between atoms: C19_27  and  O8_28 
ROOT
HETATM    1  C1  UNL     1      95.910  25.635  11.549  1.00  0.00     0.026 C 
HETATM    2  C2  UNL     1      96.316  25.828  12.782  1.00  0.00     0.018 A 
HETATM    3  C3  UNL     1      97.079  26.939  13.345  1.00  0.00     0.192 A 
HETATM    4  O1  UNL     1      97.465  27.921  12.638  1.00  0.00    -0.287 OA
HETATM    5  C4  UNL     1      97.305  26.733  14.769  1.00  0.00     0.064 A 
HETATM    6  C5  UNL     1      96.730  25.587  15.076  1.00  0.00     0.094 A 
HETATM    7  O2  UNL     1      96.639  24.916  16.275  1.00  0.00    -0.336 OA
HETATM    8  C6  UNL     1      96.620  25.125  17.665  1.00  0.00     0.117 C 
HETATM    9  C7  UNL     1      95.436  24.313  18.170  1.00  0.00     0.052 C 
HETATM   10  C8  UNL     1      97.827  24.541  18.289  1.00  0.00     0.052 C 
HETATM   11  C9  UNL     1      96.295  26.551  18.042  1.00  0.00     0.203 C 
HETATM   12  C11 UNL     1      97.496  27.403  17.862  1.00  0.00     0.144 C 
HETATM   13  C12 UNL     1      97.426  28.327  16.713  1.00  0.00     0.207 C 
HETATM   14  O5  UNL     1      96.194  28.855  16.394  1.00  0.00    -0.316 OA
HETATM   15  C14 UNL     1      95.108  28.194  16.896  1.00  0.00     0.164 C 
HETATM   16  C15 UNL     1      94.496  28.903  18.105  1.00  0.00     0.078 C 
HETATM   17  C16 UNL     1      94.015  28.323  15.835  1.00  0.00     0.078 C 
HETATM   18  O6  UNL     1      95.276  26.858  17.109  1.00  0.00    -0.316 OA
HETATM   19  C17 UNL     1      98.055  27.764  15.454  1.00  0.00     0.144 C 
HETATM   20  C18 UNL     1      99.488  27.337  15.671  1.00  0.00     0.057 C 
HETATM   21  C19 UNL     1      96.085  24.928  13.939  1.00  0.00     0.214 A 
ENDROOT
BRANCH  19  22
HETATM   22  O7  UNL     1      98.140  28.873  14.605  1.00  0.00    -0.379 OA
ATOM     23  H7  UNL     1      98.522  29.591  15.097  1.00  0.00     0.211 HD
ENDBRANCH  19  22
BRANCH  13  24
HETATM   24  O4  UNL     1      98.244  29.420  16.982  1.00  0.00    -0.357 OA
HETATM   25  C13 UNL     1      97.742  30.386  17.790  1.00  0.00     0.205 C 
ENDBRANCH  13  24
BRANCH  21  26
HETATM   26  O8  UNL     1      96.771  23.739  13.674  1.00  0.00    -0.379 OA
HETATM   27  C20 UNL     1      95.936  22.623  13.906  1.00  0.00     0.202 C 
ENDBRANCH  21  26
BRANCH  11  28
HETATM   28  O3  UNL     1      95.692  26.559  19.255  1.00  0.00    -0.357 OA
HETATM   29  C10 UNL     1      96.295  27.046  20.347  1.00  0.00     0.205 C 
ENDBRANCH  11  28
TORSDOF 4
ENDMDL
MODEL 5
REMARK VINA RESULT: -5.314832715      7.493     10.719
REMARK  4 active torsions:
REMARK  status: ('A' for Active; 'I' for Inactive)
REMARK    1  A    between atoms: C9_11  and  O3_12 
REMARK    2  A    between atoms: C12_15  and  O4_16 
REMARK    3  A    between atoms: C17_23  and  O7_25 
REMARK    4  A    between atoms: C19_27  and  O8_28 
ROOT
HETATM    1  C1  UNL     1      98.179  20.394  14.243  1.00  0.00     0.026 C 
HETATM    2  C2  UNL     1      97.228  19.621  14.713  1.00  0.00     0.018 A 
HETATM    3  C3  UNL     1      96.566  18.478  14.088  1.00  0.00     0.192 A 
HETATM    4  O1  UNL     1      96.869  18.079  12.920  1.00  0.00    -0.287 OA
HETATM    5  C4  UNL     1      95.565  17.916  14.983  1.00  0.00     0.064 A 
HETATM    6  C5  UNL     1      95.594  18.645  16.081  1.00  0.00     0.094 A 
HETATM    7  O2  UNL     1      94.860  18.556  17.243  1.00  0.00    -0.336 OA
HETATM    8  C6  UNL     1      94.172  17.636  18.052  1.00  0.00     0.117 C 
HETATM    9  C7  UNL     1      94.664  17.909  19.466  1.00  0.00     0.052 C 
HETATM   10  C8  UNL     1      92.723  17.932  18.047  1.00  0.00     0.052 C 
HETATM   11  C9  UNL     1      94.563  16.203  17.779  1.00  0.00     0.203 C 
HETATM   12  C11 UNL     1      93.891  15.725  16.547  1.00  0.00     0.144 C 
HETATM   13  C12 UNL     1      94.786  15.557  15.386  1.00  0.00     0.207 C 
HETATM   14  O5  UNL     1      96.077  15.142  15.631  1.00  0.00    -0.316 OA
HETATM   15  C14 UNL     1      96.526  15.302  16.912  1.00  0.00     0.164 C 
HETATM   16  C15 UNL     1      96.532  13.991  17.700  1.00  0.00     0.078 C 
HETATM   17  C16 UNL     1      98.014  15.633  16.792  1.00  0.00     0.078 C 
HETATM   18  O6  UNL     1      95.963  16.326  17.613  1.00  0.00    -0.316 OA
HETATM   19  C17 UNL     1      94.829  16.774  14.484  1.00  0.00     0.144 C 
HETATM   20  C18 UNL     1      93.455  17.182  14.005  1.00  0.00     0.057 C 
HETATM   21  C19 UNL     1      96.577  19.730  16.042  1.00  0.00     0.214 A 
ENDROOT
BRANCH  19  22
HETATM   22  O7  UNL     1      95.480  16.309  13.335  1.00  0.00    -0.379 OA
ATOM     23  H7  UNL     1      94.846  16.283  12.628  1.00  0.00     0.211 HD
ENDBRANCH  19  22
BRANCH  13  24
HETATM   24  O4  UNL     1      94.236  14.593  14.547  1.00  0.00    -0.357 OA
HETATM   25  C13 UNL     1      93.583  13.560  15.133  1.00  0.00     0.205 C 
ENDBRANCH  13  24
BRANCH  21  26
HETATM   26  O8  UNL     1      95.889  20.946  16.061  1.00  0.00    -0.379 OA
HETATM   27  C20 UNL     1      96.274  21.716  17.181  1.00  0.00     0.202 C 
ENDBRANCH  21  26
BRANCH  11  28
HETATM   28  O3  UNL     1      94.394  15.479  18.912  1.00  0.00    -0.357 OA
HETATM   29  C10 UNL     1      93.432  14.555  19.029  1.00  0.00     0.205 C 
ENDBRANCH  11  28
TORSDOF 4
ENDMDL
