MODEL 1
REMARK VINA RESULT: -7.359618159      0.000      0.000
REMARK  6 active torsions:
REMARK  status: ('A' for Active; 'I' for Inactive)
REMARK    1  A    between atoms: C2_2  and  C3_3 
REMARK    2  A    between atoms: C3_3  and  C4_4 
REMARK    3  A    between atoms: C4_4  and  C5_5 
REMARK    4  A    between atoms: C5_5  and  N1_6 
REMARK    5  A    between atoms: C10_11  and  C11_12 
REMARK    6  A    between atoms: C12_15  and  C13_16 
ROOT
HETATM    1  N1  UNL     1      24.747 -12.854   6.706  1.00  0.00     0.101 N 
HETATM    2  C6  UNL     1      24.231 -11.537   6.966  1.00  0.00     0.273 C 
HETATM    3  C7  UNL     1      22.877 -11.606   7.642  1.00  0.00     0.030 C 
HETATM    4  C8  UNL     1      23.156 -12.212   9.022  1.00  0.00     0.004 C 
HETATM    5  C9  UNL     1      23.622 -13.596   8.782  1.00  0.00     0.045 C 
HETATM    6  C10 UNL     1      24.756 -13.734   7.817  1.00  0.00     0.299 C 
ENDROOT
BRANCH   6   7
HETATM    7  C11 UNL     1      24.776 -15.168   7.399  1.00  0.00     0.182 A 
HETATM    8  N2  UNL     1      24.232 -16.234   8.019  1.00  0.00    -0.325 N 
HETATM    9  C12 UNL     1      24.476 -17.365   7.308  1.00  0.00     0.107 A 
ATOM     10  H2  UNL     1      23.712 -16.198   8.896  1.00  0.00     0.169 HD
HETATM   11  N3  UNL     1      25.183 -16.937   6.247  1.00  0.00    -0.247 N 
HETATM   12  O1  UNL     1      25.354 -15.641   6.309  1.00  0.00    -0.221 OA
ATOM     13  H3  UNL     1      25.535 -17.537   5.500  1.00  0.00     0.196 HD
BRANCH   9  14
HETATM   14  C13 UNL     1      24.048 -18.762   7.636  1.00  0.00     0.047 C 
HETATM   15  C14 UNL     1      23.093 -18.834   8.776  1.00  0.00     0.017 C 
HETATM   16  C15 UNL     1      23.525 -19.398   6.364  1.00  0.00     0.017 C 
ENDBRANCH   9  14
ENDBRANCH   6   7
BRANCH   1  17
HETATM   17  C5  UNL     1      26.067 -12.769   6.157  1.00  0.00     0.273 C 
BRANCH  17  18
HETATM   18  C4  UNL     1      26.759 -11.465   6.435  1.00  0.00     0.030 C 
BRANCH  18  19
HETATM   19  C3  UNL     1      27.948 -11.639   7.354  1.00  0.00     0.001 C 
BRANCH  19  20
HETATM   20  C2  UNL     1      27.567 -11.622   8.818  1.00  0.00    -0.005 C 
HETATM   21  C1  UNL     1      28.014 -12.914   9.468  1.00  0.00     0.005 C 
ENDBRANCH  19  20
ENDBRANCH  18  19
ENDBRANCH  17  18
ENDBRANCH   1  17
TORSDOF 6
ENDMDL
MODEL 2
REMARK VINA RESULT: -7.306526309      1.037      1.274
REMARK  6 active torsions:
REMARK  status: ('A' for Active; 'I' for Inactive)
REMARK    1  A    between atoms: C2_2  and  C3_3 
REMARK    2  A    between atoms: C3_3  and  C4_4 
REMARK    3  A    between atoms: C4_4  and  C5_5 
REMARK    4  A    between atoms: C5_5  and  N1_6 
REMARK    5  A    between atoms: C10_11  and  C11_12 
REMARK    6  A    between atoms: C12_15  and  C13_16 
ROOT
HETATM    1  N1  UNL     1      24.894 -13.488   6.280  1.00  0.00     0.101 N 
HETATM    2  C6  UNL     1      24.500 -12.129   6.022  1.00  0.00     0.273 C 
HETATM    3  C7  UNL     1      22.994 -12.009   5.913  1.00  0.00     0.030 C 
HETATM    4  C8  UNL     1      22.472 -12.321   7.321  1.00  0.00     0.004 C 
HETATM    5  C9  UNL     1      22.804 -13.739   7.583  1.00  0.00     0.045 C 
HETATM    6  C10 UNL     1      24.236 -14.115   7.367  1.00  0.00     0.299 C 
ENDROOT
BRANCH   6   7
HETATM    7  C11 UNL     1      24.264 -15.605   7.260  1.00  0.00     0.182 A 
HETATM    8  N2  UNL     1      23.479 -16.510   7.877  1.00  0.00    -0.325 N 
HETATM    9  C12 UNL     1      23.832 -17.767   7.506  1.00  0.00     0.107 A 
ATOM     10  H2  UNL     1      22.727 -16.283   8.529  1.00  0.00     0.169 HD
HETATM   11  N3  UNL     1      24.852 -17.581   6.650  1.00  0.00    -0.247 N 
HETATM   12  O1  UNL     1      25.100 -16.303   6.511  1.00  0.00    -0.221 OA
ATOM     13  H3  UNL     1      25.360 -18.328   6.177  1.00  0.00     0.196 HD
BRANCH   9  14
HETATM   14  C13 UNL     1      23.216 -19.058   7.950  1.00  0.00     0.047 C 
HETATM   15  C14 UNL     1      21.854 -18.894   8.529  1.00  0.00     0.017 C 
HETATM   16  C15 UNL     1      23.268 -20.022   6.783  1.00  0.00     0.017 C 
ENDBRANCH   9  14
ENDBRANCH   6   7
BRANCH   1  17
HETATM   17  C5  UNL     1      26.310 -13.565   6.476  1.00  0.00     0.273 C 
BRANCH  17  18
HETATM   18  C4  UNL     1      26.933 -12.274   6.929  1.00  0.00     0.030 C 
BRANCH  18  19
HETATM   19  C3  UNL     1      27.634 -12.420   8.261  1.00  0.00     0.001 C 
BRANCH  19  20
HETATM   20  C2  UNL     1      27.444 -11.219   9.161  1.00  0.00    -0.005 C 
HETATM   21  C1  UNL     1      26.280 -10.393   8.657  1.00  0.00     0.005 C 
ENDBRANCH  19  20
ENDBRANCH  18  19
ENDBRANCH  17  18
ENDBRANCH   1  17
TORSDOF 6
ENDMDL
MODEL 3
REMARK VINA RESULT: -6.872797660      3.691      7.477
REMARK  6 active torsions:
REMARK  status: ('A' for Active; 'I' for Inactive)
REMARK    1  A    between atoms: C2_2  and  C3_3 
REMARK    2  A    between atoms: C3_3  and  C4_4 
REMARK    3  A    between atoms: C4_4  and  C5_5 
REMARK    4  A    between atoms: C5_5  and  N1_6 
REMARK    5  A    between atoms: C10_11  and  C11_12 
REMARK    6  A    between atoms: C12_15  and  C13_16 
ROOT
HETATM    1  N1  UNL     1      25.880 -11.807   6.447  1.00  0.00     0.101 N 
HETATM    2  C6  UNL     1      26.213 -12.989   7.194  1.00  0.00     0.273 C 
HETATM    3  C7  UNL     1      27.432 -12.759   8.064  1.00  0.00     0.030 C 
HETATM    4  C8  UNL     1      26.981 -11.732   9.110  1.00  0.00     0.004 C 
HETATM    5  C9  UNL     1      26.699 -10.482   8.370  1.00  0.00     0.045 C 
HETATM    6  C10 UNL     1      25.766 -10.617   7.209  1.00  0.00     0.299 C 
ENDROOT
BRANCH   6   7
HETATM    7  C11 UNL     1      25.958  -9.392   6.375  1.00  0.00     0.182 A 
HETATM    8  N2  UNL     1      27.092  -8.914   5.827  1.00  0.00    -0.325 N 
HETATM    9  C12 UNL     1      26.836  -7.772   5.140  1.00  0.00     0.107 A 
ATOM     10  H2  UNL     1      28.011  -9.348   5.915  1.00  0.00     0.169 HD
HETATM   11  N3  UNL     1      25.513  -7.586   5.297  1.00  0.00    -0.247 N 
HETATM   12  O1  UNL     1      25.004  -8.546   6.027  1.00  0.00    -0.221 OA
ATOM     13  H3  UNL     1      24.983  -6.808   4.905  1.00  0.00     0.196 HD
BRANCH   9  14
HETATM   14  C13 UNL     1      27.808  -6.924   4.379  1.00  0.00     0.047 C 
HETATM   15  C14 UNL     1      29.100  -7.611   4.103  1.00  0.00     0.017 C 
HETATM   16  C15 UNL     1      27.110  -6.420   3.133  1.00  0.00     0.017 C 
ENDBRANCH   9  14
ENDBRANCH   6   7
BRANCH   1  17
HETATM   17  C5  UNL     1      24.671 -12.012   5.706  1.00  0.00     0.273 C 
BRANCH  17  18
HETATM   18  C4  UNL     1      23.772 -13.064   6.291  1.00  0.00     0.030 C 
BRANCH  18  19
HETATM   19  C3  UNL     1      22.482 -12.476   6.821  1.00  0.00     0.001 C 
BRANCH  19  20
HETATM   20  C2  UNL     1      22.144 -12.959   8.214  1.00  0.00    -0.005 C 
HETATM   21  C1  UNL     1      23.043 -12.267   9.217  1.00  0.00     0.005 C 
ENDBRANCH  19  20
ENDBRANCH  18  19
ENDBRANCH  17  18
ENDBRANCH   1  17
TORSDOF 6
ENDMDL
MODEL 4
REMARK VINA RESULT: -6.731894422      4.859      6.929
REMARK  6 active torsions:
REMARK  status: ('A' for Active; 'I' for Inactive)
REMARK    1  A    between atoms: C2_2  and  C3_3 
REMARK    2  A    between atoms: C3_3  and  C4_4 
REMARK    3  A    between atoms: C4_4  and  C5_5 
REMARK    4  A    between atoms: C5_5  and  N1_6 
REMARK    5  A    between atoms: C10_11  and  C11_12 
REMARK    6  A    between atoms: C12_15  and  C13_16 
ROOT
HETATM    1  N1  UNL     1      26.854  -7.664   4.428  1.00  0.00     0.101 N 
HETATM    2  C6  UNL     1      26.294  -6.412   3.995  1.00  0.00     0.273 C 
HETATM    3  C7  UNL     1      24.836  -6.302   4.390  1.00  0.00     0.030 C 
HETATM    4  C8  UNL     1      24.849  -6.232   5.923  1.00  0.00     0.004 C 
HETATM    5  C9  UNL     1      25.357  -7.539   6.394  1.00  0.00     0.045 C 
HETATM    6  C10 UNL     1      26.654  -7.980   5.795  1.00  0.00     0.299 C 
ENDROOT
BRANCH   6   7
HETATM    7  C11 UNL     1      26.758  -9.446   6.057  1.00  0.00     0.182 A 
HETATM    8  N2  UNL     1      27.105 -10.078   7.195  1.00  0.00    -0.325 N 
HETATM    9  C12 UNL     1      27.075 -11.423   7.014  1.00  0.00     0.107 A 
ATOM     10  H2  UNL     1      27.354  -9.612   8.068  1.00  0.00     0.169 HD
HETATM   11  N3  UNL     1      26.700 -11.571   5.731  1.00  0.00    -0.247 N 
HETATM   12  O1  UNL     1      26.514 -10.400   5.175  1.00  0.00    -0.221 OA
ATOM     13  H3  UNL     1      26.577 -12.467   5.259  1.00  0.00     0.196 HD
BRANCH   9  14
HETATM   14  C13 UNL     1      27.385 -12.488   8.019  1.00  0.00     0.047 C 
HETATM   15  C14 UNL     1      27.949 -11.955   9.290  1.00  0.00     0.017 C 
HETATM   16  C15 UNL     1      26.135 -13.322   8.213  1.00  0.00     0.017 C 
ENDBRANCH   9  14
ENDBRANCH   6   7
BRANCH   1  17
HETATM   17  C5  UNL     1      28.255  -7.710   4.131  1.00  0.00     0.273 C 
BRANCH  17  18
HETATM   18  C4  UNL     1      29.012  -6.493   4.583  1.00  0.00     0.030 C 
BRANCH  18  19
HETATM   19  C3  UNL     1      29.880  -5.925   3.482  1.00  0.00     0.001 C 
BRANCH  19  20
HETATM   20  C2  UNL     1      31.148  -6.722   3.262  1.00  0.00    -0.005 C 
HETATM   21  C1  UNL     1      31.815  -6.261   1.984  1.00  0.00     0.005 C 
ENDBRANCH  19  20
ENDBRANCH  18  19
ENDBRANCH  17  18
ENDBRANCH   1  17
TORSDOF 6
ENDMDL
MODEL 5
REMARK VINA RESULT: -6.702725410      4.534      7.238
REMARK  6 active torsions:
REMARK  status: ('A' for Active; 'I' for Inactive)
REMARK    1  A    between atoms: C2_2  and  C3_3 
REMARK    2  A    between atoms: C3_3  and  C4_4 
REMARK    3  A    between atoms: C4_4  and  C5_5 
REMARK    4  A    between atoms: C5_5  and  N1_6 
REMARK    5  A    between atoms: C10_11  and  C11_12 
REMARK    6  A    between atoms: C12_15  and  C13_16 
ROOT
HETATM    1  N1  UNL     1      26.633  -7.367   5.694  1.00  0.00     0.101 N 
HETATM    2  C6  UNL     1      27.098  -6.039   5.393  1.00  0.00     0.273 C 
HETATM    3  C7  UNL     1      28.611  -5.993   5.334  1.00  0.00     0.030 C 
HETATM    4  C8  UNL     1      28.984  -6.839   4.111  1.00  0.00     0.004 C 
HETATM    5  C9  UNL     1      28.577  -8.226   4.426  1.00  0.00     0.045 C 
HETATM    6  C10 UNL     1      27.160  -8.396   4.874  1.00  0.00     0.299 C 
ENDROOT
BRANCH   6   7
HETATM    7  C11 UNL     1      27.089  -9.734   5.534  1.00  0.00     0.182 A 
HETATM    8  N2  UNL     1      27.579 -10.111   6.732  1.00  0.00    -0.325 N 
HETATM    9  C12 UNL     1      27.299 -11.420   6.962  1.00  0.00     0.107 A 
ATOM     10  H2  UNL     1      28.086  -9.502   7.373  1.00  0.00     0.169 HD
HETATM   11  N3  UNL     1      26.628 -11.808   5.863  1.00  0.00    -0.247 N 
HETATM   12  O1  UNL     1      26.509 -10.808   5.027  1.00  0.00    -0.221 OA
ATOM     13  H3  UNL     1      26.265 -12.748   5.704  1.00  0.00     0.196 HD
BRANCH   9  14
HETATM   14  C13 UNL     1      27.655 -12.232   8.168  1.00  0.00     0.047 C 
HETATM   15  C14 UNL     1      28.031 -11.405   9.348  1.00  0.00     0.017 C 
HETATM   16  C15 UNL     1      26.512 -13.189   8.438  1.00  0.00     0.017 C 
ENDBRANCH   9  14
ENDBRANCH   6   7
BRANCH   1  17
HETATM   17  C5  UNL     1      25.202  -7.412   5.650  1.00  0.00     0.273 C 
BRANCH  17  18
HETATM   18  C4  UNL     1      24.591  -6.409   4.713  1.00  0.00     0.030 C 
BRANCH  18  19
HETATM   19  C3  UNL     1      23.437  -5.668   5.351  1.00  0.00     0.001 C 
BRANCH  19  20
HETATM   20  C2  UNL     1      23.388  -5.836   6.854  1.00  0.00    -0.005 C 
HETATM   21  C1  UNL     1      23.488  -4.478   7.515  1.00  0.00     0.005 C 
ENDBRANCH  19  20
ENDBRANCH  18  19
ENDBRANCH  17  18
ENDBRANCH   1  17
TORSDOF 6
ENDMDL
