MODEL 1
REMARK VINA RESULT: -7.677644828      0.000      0.000
REMARK  11 active torsions:
REMARK  status: ('A' for Active; 'I' for Inactive)
REMARK       I    between atoms: C2_2  and  N1_4 
REMARK    1  A    between atoms: N1_4  and  C3_6 
REMARK    2  A    between atoms: C3_6  and  C4_7 
REMARK    3  A    between atoms: C3_6  and  C12_16 
REMARK    4  A    between atoms: C4_7  and  C5_9 
REMARK    5  A    between atoms: C12_16  and  C14_18 
REMARK    6  A    between atoms: C12_16  and  C20_28 
REMARK    7  A    between atoms: C14_18  and  C15_19 
REMARK    8  A    between atoms: C15_19  and  O3_20 
REMARK    9  A    between atoms: C15_19  and  C16_22 
REMARK   10  A    between atoms: C16_22  and  O4_23 
REMARK   11  A    between atoms: C16_22  and  C17_25 
ROOT
HETATM    1  C12 UNL     1      -9.614 -27.227   1.387  1.00  0.00     0.008 C 
HETATM    2  C13 UNL     1      -8.583 -27.541   0.226  1.00  0.00     0.022 C 
ENDROOT
BRANCH   1   3
HETATM    3  C3  UNL     1      -9.366 -25.819   1.762  1.00  0.00     0.067 C 
BRANCH   3   4
HETATM    4  N1  UNL     1      -9.975 -24.826   0.878  1.00  0.00    -0.327 N 
HETATM    5  C2  UNL     1      -9.480 -24.471  -0.403  1.00  0.00     0.218 C 
HETATM    6  C1  UNL     1     -10.210 -23.450  -1.186  1.00  0.00     0.117 C 
HETATM    7  O1  UNL     1      -8.454 -24.981  -0.905  1.00  0.00    -0.274 OA
ATOM      8  H1  UNL     1     -10.818 -24.354   1.207  1.00  0.00     0.168 HD
ENDBRANCH   3   4
BRANCH   3   9
HETATM    9  C4  UNL     1      -8.052 -25.354   2.216  1.00  0.00     0.177 C 
HETATM   10  O2  UNL     1      -7.058 -25.672   1.527  1.00  0.00    -0.291 OA
BRANCH   9  11
HETATM   11  C5  UNL     1      -7.761 -24.532   3.401  1.00  0.00     0.070 C 
HETATM   12  C6  UNL     1      -8.875 -24.583   4.429  1.00  0.00    -0.003 C 
HETATM   13  C7  UNL     1      -8.796 -25.975   4.948  1.00  0.00     0.006 C 
HETATM   14  C11 UNL     1      -8.245 -23.687   5.492  1.00  0.00     0.006 C 
HETATM   15  C8  UNL     1      -7.342 -26.389   4.741  1.00  0.00     0.006 C 
HETATM   16  C9  UNL     1      -6.682 -25.102   4.316  1.00  0.00    -0.003 C 
HETATM   17  C10 UNL     1      -6.775 -24.138   5.481  1.00  0.00     0.006 C 
ENDBRANCH   9  11
ENDBRANCH   3   9
ENDBRANCH   1   3
BRANCH   1  18
HETATM   18  C14 UNL     1     -10.935 -27.600   0.836  1.00  0.00     0.050 C 
BRANCH  18  19
HETATM   19  C15 UNL     1     -11.190 -27.878  -0.583  1.00  0.00     0.148 C 
BRANCH  19  20
HETATM   20  O3  UNL     1     -11.637 -29.121  -0.941  1.00  0.00    -0.393 OA
ATOM     21  H3  UNL     1     -12.239 -29.197  -1.671  1.00  0.00     0.210 HD
ENDBRANCH  19  20
BRANCH  19  22
HETATM   22  C16 UNL     1     -12.186 -26.816  -1.064  1.00  0.00     0.150 C 
BRANCH  22  23
HETATM   23  O4  UNL     1     -12.624 -26.065   0.047  1.00  0.00    -0.393 OA
ATOM     24  H4  UNL     1     -11.865 -25.772   0.539  1.00  0.00     0.210 HD
ENDBRANCH  22  23
BRANCH  22  25
HETATM   25  C17 UNL     1     -13.350 -27.327  -1.824  1.00  0.00     0.009 C 
HETATM   26  C18 UNL     1     -13.560 -26.745  -3.185  1.00  0.00     0.012 C 
HETATM   27  C19 UNL     1     -14.634 -27.224  -0.998  1.00  0.00     0.012 C 
ENDBRANCH  22  25
ENDBRANCH  19  22
ENDBRANCH  18  19
ENDBRANCH   1  18
BRANCH   1  28
HETATM   28  C20 UNL     1      -9.184 -28.290   2.390  1.00  0.00    -0.000 C 
HETATM   29  C21 UNL     1      -8.325 -29.398   1.960  1.00  0.00     0.006 C 
HETATM   30  C22 UNL     1      -8.172 -30.138   3.342  1.00  0.00     0.000 C 
HETATM   31  C23 UNL     1      -9.547 -30.002   3.952  1.00  0.00     0.000 C 
HETATM   32  C24 UNL     1     -10.302 -28.973   3.101  1.00  0.00     0.006 C 
ENDBRANCH   1  28
TORSDOF 11
ENDMDL
MODEL 2
REMARK VINA RESULT: -7.626618510      2.323      5.825
REMARK  11 active torsions:
REMARK  status: ('A' for Active; 'I' for Inactive)
REMARK       I    between atoms: C2_2  and  N1_4 
REMARK    1  A    between atoms: N1_4  and  C3_6 
REMARK    2  A    between atoms: C3_6  and  C4_7 
REMARK    3  A    between atoms: C3_6  and  C12_16 
REMARK    4  A    between atoms: C4_7  and  C5_9 
REMARK    5  A    between atoms: C12_16  and  C14_18 
REMARK    6  A    between atoms: C12_16  and  C20_28 
REMARK    7  A    between atoms: C14_18  and  C15_19 
REMARK    8  A    between atoms: C15_19  and  O3_20 
REMARK    9  A    between atoms: C15_19  and  C16_22 
REMARK   10  A    between atoms: C16_22  and  O4_23 
REMARK   11  A    between atoms: C16_22  and  C17_25 
ROOT
HETATM    1  C12 UNL     1      -8.725 -26.697   2.695  1.00  0.00     0.008 C 
HETATM    2  C13 UNL     1     -10.258 -26.324   2.835  1.00  0.00     0.022 C 
ENDROOT
BRANCH   1   3
HETATM    3  C3  UNL     1      -8.663 -28.165   2.856  1.00  0.00     0.067 C 
BRANCH   3   4
HETATM    4  N1  UNL     1      -7.836 -28.633   3.967  1.00  0.00    -0.327 N 
HETATM    5  C2  UNL     1      -8.222 -29.632   4.898  1.00  0.00     0.218 C 
HETATM    6  C1  UNL     1      -7.273 -30.005   5.969  1.00  0.00     0.117 C 
HETATM    7  O1  UNL     1      -9.327 -30.215   4.856  1.00  0.00    -0.274 OA
ATOM      8  H1  UNL     1      -6.915 -28.209   4.082  1.00  0.00     0.168 HD
ENDBRANCH   3   4
BRANCH   3   9
HETATM    9  C4  UNL     1      -8.525 -29.068   1.708  1.00  0.00     0.177 C 
HETATM   10  O2  UNL     1      -7.470 -29.733   1.621  1.00  0.00    -0.291 OA
BRANCH   9  11
HETATM   11  C5  UNL     1      -9.506 -29.297   0.636  1.00  0.00     0.070 C 
HETATM   12  C6  UNL     1      -9.399 -30.687   0.041  1.00  0.00    -0.003 C 
HETATM   13  C7  UNL     1      -9.882 -31.567   1.140  1.00  0.00     0.006 C 
HETATM   14  C11 UNL     1     -10.540 -30.590  -0.969  1.00  0.00     0.006 C 
HETATM   15  C8  UNL     1     -10.820 -30.687   1.962  1.00  0.00     0.006 C 
HETATM   16  C9  UNL     1     -10.946 -29.445   1.117  1.00  0.00    -0.003 C 
HETATM   17  C10 UNL     1     -11.625 -29.844  -0.177  1.00  0.00     0.006 C 
ENDBRANCH   9  11
ENDBRANCH   3   9
ENDBRANCH   1   3
BRANCH   1  18
HETATM   18  C14 UNL     1      -8.302 -26.098   1.410  1.00  0.00     0.050 C 
BRANCH  18  19
HETATM   19  C15 UNL     1      -9.112 -25.154   0.631  1.00  0.00     0.148 C 
BRANCH  19  20
HETATM   20  O3  UNL     1      -8.742 -23.837   0.601  1.00  0.00    -0.393 OA
ATOM     21  H3  UNL     1      -9.406 -23.180   0.430  1.00  0.00     0.210 HD
ENDBRANCH  19  20
BRANCH  19  22
HETATM   22  C16 UNL     1      -9.169 -25.704  -0.799  1.00  0.00     0.150 C 
BRANCH  22  23
HETATM   23  O4  UNL     1      -8.451 -24.837  -1.650  1.00  0.00    -0.393 OA
ATOM     24  H4  UNL     1      -8.432 -25.210  -2.524  1.00  0.00     0.210 HD
ENDBRANCH  22  23
BRANCH  22  25
HETATM   25  C17 UNL     1     -10.526 -25.941  -1.341  1.00  0.00     0.009 C 
HETATM   26  C18 UNL     1     -11.612 -26.159  -0.336  1.00  0.00     0.012 C 
HETATM   27  C19 UNL     1     -10.519 -27.074  -2.369  1.00  0.00     0.012 C 
ENDBRANCH  22  25
ENDBRANCH  19  22
ENDBRANCH  18  19
ENDBRANCH   1  18
BRANCH   1  28
HETATM   28  C20 UNL     1      -8.164 -25.857   3.836  1.00  0.00    -0.000 C 
HETATM   29  C21 UNL     1      -8.940 -24.732   4.367  1.00  0.00     0.006 C 
HETATM   30  C22 UNL     1      -7.948 -24.265   5.498  1.00  0.00     0.000 C 
HETATM   31  C23 UNL     1      -6.594 -24.444   4.855  1.00  0.00     0.000 C 
HETATM   32  C24 UNL     1      -6.822 -25.262   3.577  1.00  0.00     0.006 C 
ENDBRANCH   1  28
TORSDOF 11
ENDMDL
MODEL 3
REMARK VINA RESULT: -7.581145804      2.325      5.869
REMARK  11 active torsions:
REMARK  status: ('A' for Active; 'I' for Inactive)
REMARK       I    between atoms: C2_2  and  N1_4 
REMARK    1  A    between atoms: N1_4  and  C3_6 
REMARK    2  A    between atoms: C3_6  and  C4_7 
REMARK    3  A    between atoms: C3_6  and  C12_16 
REMARK    4  A    between atoms: C4_7  and  C5_9 
REMARK    5  A    between atoms: C12_16  and  C14_18 
REMARK    6  A    between atoms: C12_16  and  C20_28 
REMARK    7  A    between atoms: C14_18  and  C15_19 
REMARK    8  A    between atoms: C15_19  and  O3_20 
REMARK    9  A    between atoms: C15_19  and  C16_22 
REMARK   10  A    between atoms: C16_22  and  O4_23 
REMARK   11  A    between atoms: C16_22  and  C17_25 
ROOT
HETATM    1  C12 UNL     1      -8.448 -26.293   3.379  1.00  0.00     0.008 C 
HETATM    2  C13 UNL     1      -9.879 -25.667   3.645  1.00  0.00     0.022 C 
ENDROOT
BRANCH   1   3
HETATM    3  C3  UNL     1      -8.607 -27.746   3.605  1.00  0.00     0.067 C 
BRANCH   3   4
HETATM    4  N1  UNL     1      -7.657 -28.334   4.548  1.00  0.00    -0.327 N 
HETATM    5  C2  UNL     1      -7.966 -28.705   5.882  1.00  0.00     0.218 C 
HETATM    6  C1  UNL     1      -6.899 -29.296   6.718  1.00  0.00     0.117 C 
HETATM    7  O1  UNL     1      -9.101 -28.558   6.387  1.00  0.00    -0.274 OA
ATOM      8  H1  UNL     1      -6.703 -28.489   4.223  1.00  0.00     0.168 HD
ENDBRANCH   3   4
BRANCH   3   9
HETATM    9  C4  UNL     1      -8.873 -28.680   2.506  1.00  0.00     0.177 C 
HETATM   10  O2  UNL     1      -8.009 -28.775   1.608  1.00  0.00    -0.291 OA
BRANCH   9  11
HETATM   11  C5  UNL     1     -10.054 -29.542   2.339  1.00  0.00     0.070 C 
HETATM   12  C6  UNL     1      -9.835 -30.629   1.306  1.00  0.00    -0.003 C 
HETATM   13  C7  UNL     1      -8.844 -31.527   1.959  1.00  0.00     0.006 C 
HETATM   14  C11 UNL     1     -11.189 -31.325   1.418  1.00  0.00     0.006 C 
HETATM   15  C8  UNL     1      -9.063 -31.328   3.456  1.00  0.00     0.006 C 
HETATM   16  C9  UNL     1     -10.314 -30.489   3.507  1.00  0.00    -0.003 C 
HETATM   17  C10 UNL     1     -11.442 -31.322   2.934  1.00  0.00     0.006 C 
ENDBRANCH   9  11
ENDBRANCH   3   9
ENDBRANCH   1   3
BRANCH   1  18
HETATM   18  C14 UNL     1      -8.067 -25.816   2.032  1.00  0.00     0.050 C 
BRANCH  18  19
HETATM   19  C15 UNL     1      -8.984 -25.143   1.103  1.00  0.00     0.148 C 
BRANCH  19  20
HETATM   20  O3  UNL     1      -8.783 -23.819   0.822  1.00  0.00    -0.393 OA
ATOM     21  H3  UNL     1      -9.291 -23.169   1.292  1.00  0.00     0.210 HD
ENDBRANCH  19  20
BRANCH  19  22
HETATM   22  C16 UNL     1      -8.961 -25.954  -0.199  1.00  0.00     0.150 C 
BRANCH  22  23
HETATM   23  O4  UNL     1      -8.467 -25.134  -1.237  1.00  0.00    -0.393 OA
ATOM     24  H4  UNL     1      -8.325 -25.670  -2.009  1.00  0.00     0.210 HD
ENDBRANCH  22  23
BRANCH  22  25
HETATM   25  C17 UNL     1     -10.250 -26.561  -0.598  1.00  0.00     0.009 C 
HETATM   26  C18 UNL     1     -11.293 -26.664   0.469  1.00  0.00     0.012 C 
HETATM   27  C19 UNL     1     -10.034 -27.923  -1.262  1.00  0.00     0.012 C 
ENDBRANCH  22  25
ENDBRANCH  19  22
ENDBRANCH  18  19
ENDBRANCH   1  18
BRANCH   1  28
HETATM   28  C20 UNL     1      -7.645 -25.520   4.418  1.00  0.00    -0.000 C 
HETATM   29  C21 UNL     1      -8.210 -24.314   5.030  1.00  0.00     0.006 C 
HETATM   30  C22 UNL     1      -7.026 -23.961   6.008  1.00  0.00     0.000 C 
HETATM   31  C23 UNL     1      -5.802 -24.293   5.189  1.00  0.00     0.000 C 
HETATM   32  C24 UNL     1      -6.293 -25.082   3.969  1.00  0.00     0.006 C 
ENDBRANCH   1  28
TORSDOF 11
ENDMDL
MODEL 4
REMARK VINA RESULT: -7.505681675      1.944      6.248
REMARK  11 active torsions:
REMARK  status: ('A' for Active; 'I' for Inactive)
REMARK       I    between atoms: C2_2  and  N1_4 
REMARK    1  A    between atoms: N1_4  and  C3_6 
REMARK    2  A    between atoms: C3_6  and  C4_7 
REMARK    3  A    between atoms: C3_6  and  C12_16 
REMARK    4  A    between atoms: C4_7  and  C5_9 
REMARK    5  A    between atoms: C12_16  and  C14_18 
REMARK    6  A    between atoms: C12_16  and  C20_28 
REMARK    7  A    between atoms: C14_18  and  C15_19 
REMARK    8  A    between atoms: C15_19  and  O3_20 
REMARK    9  A    between atoms: C15_19  and  C16_22 
REMARK   10  A    between atoms: C16_22  and  O4_23 
REMARK   11  A    between atoms: C16_22  and  C17_25 
ROOT
HETATM    1  C12 UNL     1      -9.005 -27.599   2.677  1.00  0.00     0.008 C 
HETATM    2  C13 UNL     1     -10.180 -26.597   3.030  1.00  0.00     0.022 C 
ENDROOT
BRANCH   1   3
HETATM    3  C3  UNL     1      -8.787 -27.452   1.222  1.00  0.00     0.067 C 
BRANCH   3   4
HETATM    4  N1  UNL     1      -7.653 -28.203   0.687  1.00  0.00    -0.327 N 
HETATM    5  C2  UNL     1      -7.760 -29.379  -0.101  1.00  0.00     0.218 C 
HETATM    6  C1  UNL     1      -6.520 -30.027  -0.578  1.00  0.00     0.117 C 
HETATM    7  O1  UNL     1      -8.856 -29.894  -0.413  1.00  0.00    -0.274 OA
ATOM      8  H1  UNL     1      -6.716 -27.857   0.894  1.00  0.00     0.168 HD
ENDBRANCH   3   4
BRANCH   3   9
HETATM    9  C4  UNL     1      -8.901 -26.156   0.546  1.00  0.00     0.177 C 
HETATM   10  O2  UNL     1      -7.945 -25.359   0.663  1.00  0.00    -0.291 OA
BRANCH   9  11
HETATM   11  C5  UNL     1     -10.022 -25.680  -0.279  1.00  0.00     0.070 C 
HETATM   12  C6  UNL     1      -9.582 -24.685  -1.336  1.00  0.00    -0.003 C 
HETATM   13  C7  UNL     1      -8.791 -25.519  -2.281  1.00  0.00     0.006 C 
HETATM   14  C11 UNL     1     -10.936 -24.445  -1.999  1.00  0.00     0.006 C 
HETATM   15  C8  UNL     1      -9.356 -26.928  -2.128  1.00  0.00     0.006 C 
HETATM   16  C9  UNL     1     -10.569 -26.714  -1.259  1.00  0.00    -0.003 C 
HETATM   17  C10 UNL     1     -11.542 -25.857  -2.042  1.00  0.00     0.006 C 
ENDBRANCH   9  11
ENDBRANCH   3   9
ENDBRANCH   1   3
BRANCH   1  18
HETATM   18  C14 UNL     1      -7.909 -27.244   3.605  1.00  0.00     0.050 C 
BRANCH  18  19
HETATM   19  C15 UNL     1      -8.064 -26.365   4.770  1.00  0.00     0.148 C 
BRANCH  19  20
HETATM   20  O3  UNL     1      -7.641 -26.810   5.993  1.00  0.00    -0.393 OA
ATOM     21  H3  UNL     1      -7.317 -26.177   6.623  1.00  0.00     0.210 HD
ENDBRANCH  19  20
BRANCH  19  22
HETATM   22  C16 UNL     1      -7.349 -25.053   4.426  1.00  0.00     0.150 C 
BRANCH  22  23
HETATM   23  O4  UNL     1      -6.517 -25.267   3.306  1.00  0.00    -0.393 OA
ATOM     24  H4  UNL     1      -5.808 -24.635   3.325  1.00  0.00     0.210 HD
ENDBRANCH  22  23
BRANCH  22  25
HETATM   25  C17 UNL     1      -6.573 -24.439   5.527  1.00  0.00     0.009 C 
HETATM   26  C18 UNL     1      -7.196 -23.256   6.197  1.00  0.00     0.012 C 
HETATM   27  C19 UNL     1      -5.149 -24.105   5.076  1.00  0.00     0.012 C 
ENDBRANCH  22  25
ENDBRANCH  19  22
ENDBRANCH  18  19
ENDBRANCH   1  18
BRANCH   1  28
HETATM   28  C20 UNL     1      -9.644 -28.900   3.148  1.00  0.00    -0.000 C 
HETATM   29  C21 UNL     1      -8.800 -30.053   3.476  1.00  0.00     0.006 C 
HETATM   30  C22 UNL     1      -9.926 -31.061   3.918  1.00  0.00     0.000 C 
HETATM   31  C23 UNL     1     -11.040 -30.773   2.940  1.00  0.00     0.000 C 
HETATM   32  C24 UNL     1     -10.666 -29.469   2.223  1.00  0.00     0.006 C 
ENDBRANCH   1  28
TORSDOF 11
ENDMDL
MODEL 5
REMARK VINA RESULT: -7.436730868      2.675      5.499
REMARK  11 active torsions:
REMARK  status: ('A' for Active; 'I' for Inactive)
REMARK       I    between atoms: C2_2  and  N1_4 
REMARK    1  A    between atoms: N1_4  and  C3_6 
REMARK    2  A    between atoms: C3_6  and  C4_7 
REMARK    3  A    between atoms: C3_6  and  C12_16 
REMARK    4  A    between atoms: C4_7  and  C5_9 
REMARK    5  A    between atoms: C12_16  and  C14_18 
REMARK    6  A    between atoms: C12_16  and  C20_28 
REMARK    7  A    between atoms: C14_18  and  C15_19 
REMARK    8  A    between atoms: C15_19  and  O3_20 
REMARK    9  A    between atoms: C15_19  and  C16_22 
REMARK   10  A    between atoms: C16_22  and  O4_23 
REMARK   11  A    between atoms: C16_22  and  C17_25 
ROOT
HETATM    1  C12 UNL     1      -8.384 -26.385   3.964  1.00  0.00     0.008 C 
HETATM    2  C13 UNL     1      -9.839 -25.780   4.133  1.00  0.00     0.022 C 
ENDROOT
BRANCH   1   3
HETATM    3  C3  UNL     1      -8.470 -27.765   4.486  1.00  0.00     0.067 C 
BRANCH   3   4
HETATM    4  N1  UNL     1      -9.620 -28.535   4.017  1.00  0.00    -0.327 N 
HETATM    5  C2  UNL     1      -9.568 -29.536   3.012  1.00  0.00     0.218 C 
HETATM    6  C1  UNL     1     -10.818 -30.237   2.646  1.00  0.00     0.117 C 
HETATM    7  O1  UNL     1      -8.514 -29.856   2.420  1.00  0.00    -0.274 OA
ATOM      8  H1  UNL     1     -10.526 -28.339   4.443  1.00  0.00     0.168 HD
ENDBRANCH   3   4
BRANCH   3   9
HETATM    9  C4  UNL     1      -8.184 -28.086   5.889  1.00  0.00     0.177 C 
HETATM   10  O2  UNL     1      -7.338 -27.380   6.480  1.00  0.00    -0.291 OA
BRANCH   9  11
HETATM   11  C5  UNL     1      -8.795 -29.151   6.698  1.00  0.00     0.070 C 
HETATM   12  C6  UNL     1      -8.315 -30.532   6.295  1.00  0.00    -0.003 C 
HETATM   13  C7  UNL     1      -6.893 -30.540   6.733  1.00  0.00     0.006 C 
HETATM   14  C11 UNL     1      -9.090 -31.351   7.323  1.00  0.00     0.006 C 
HETATM   15  C8  UNL     1      -6.833 -29.545   7.888  1.00  0.00     0.006 C 
HETATM   16  C9  UNL     1      -8.285 -29.224   8.134  1.00  0.00    -0.003 C 
HETATM   17  C10 UNL     1      -8.958 -30.500   8.597  1.00  0.00     0.006 C 
ENDBRANCH   9  11
ENDBRANCH   3   9
ENDBRANCH   1   3
BRANCH   1  18
HETATM   18  C14 UNL     1      -8.049 -26.178   2.538  1.00  0.00     0.050 C 
BRANCH  18  19
HETATM   19  C15 UNL     1      -8.863 -25.393   1.603  1.00  0.00     0.148 C 
BRANCH  19  20
HETATM   20  O3  UNL     1      -8.572 -24.067   1.429  1.00  0.00    -0.393 OA
ATOM     21  H3  UNL     1      -9.288 -23.450   1.335  1.00  0.00     0.210 HD
ENDBRANCH  19  20
BRANCH  19  22
HETATM   22  C16 UNL     1      -8.794 -26.114   0.251  1.00  0.00     0.150 C 
BRANCH  22  23
HETATM   23  O4  UNL     1      -8.458 -25.177  -0.750  1.00  0.00    -0.393 OA
ATOM     24  H4  UNL     1      -7.581 -24.851  -0.583  1.00  0.00     0.210 HD
ENDBRANCH  22  23
BRANCH  22  25
HETATM   25  C17 UNL     1     -10.011 -26.861  -0.138  1.00  0.00     0.009 C 
HETATM   26  C18 UNL     1     -11.131 -26.866   0.852  1.00  0.00     0.012 C 
HETATM   27  C19 UNL     1      -9.668 -28.292  -0.558  1.00  0.00     0.012 C 
ENDBRANCH  22  25
ENDBRANCH  19  22
ENDBRANCH  18  19
ENDBRANCH   1  18
BRANCH   1  28
HETATM   28  C20 UNL     1      -7.603 -25.380   4.802  1.00  0.00    -0.000 C 
HETATM   29  C21 UNL     1      -8.211 -24.095   5.161  1.00  0.00     0.006 C 
HETATM   30  C22 UNL     1      -7.032 -23.499   6.019  1.00  0.00     0.000 C 
HETATM   31  C23 UNL     1      -5.805 -23.947   5.262  1.00  0.00     0.000 C 
HETATM   32  C24 UNL     1      -6.276 -24.993   4.244  1.00  0.00     0.006 C 
ENDBRANCH   1  28
TORSDOF 11
ENDMDL
