MODEL 1
REMARK VINA RESULT: -7.889618822      0.000      0.000
REMARK  11 active torsions:
REMARK  status: ('A' for Active; 'I' for Inactive)
REMARK    1  A    between atoms: C2_2  and  C3_3 
REMARK    2  A    between atoms: C3_3  and  C4_4 
REMARK    3  A    between atoms: C4_4  and  C5_5 
REMARK    4  A    between atoms: C5_5  and  C6_6 
REMARK    5  A    between atoms: C6_6  and  C7_7 
REMARK    6  A    between atoms: N2_12  and  C9_13 
REMARK    7  A    between atoms: C9_13  and  C10_14 
REMARK    8  A    between atoms: C14_18  and  C15_19 
REMARK    9  A    between atoms: C15_19  and  C16_20 
REMARK   10  A    between atoms: C17_23  and  C18_24 
REMARK   11  A    between atoms: C24_32  and  O2_33 
ROOT
HETATM    1  C7  UNL     1      -8.071 -26.479   5.066  1.00  0.00     0.058 A 
HETATM    2  C8  UNL     1      -8.090 -27.690   5.741  1.00  0.00     0.272 A 
HETATM    3  O1  UNL     1      -7.400 -28.073   6.750  1.00  0.00    -0.266 OA
HETATM    4  N1  UNL     1      -9.009 -28.437   5.123  1.00  0.00    -0.263 N 
ATOM      5  H1  UNL     1      -9.240 -29.389   5.407  1.00  0.00     0.190 HD
HETATM    6  N2  UNL     1      -9.585 -27.827   4.113  1.00  0.00    -0.288 N 
HETATM    7  C14 UNL     1      -9.006 -26.576   4.057  1.00  0.00     0.068 A 
ENDROOT
BRANCH   7   8
HETATM    8  C15 UNL     1      -9.367 -25.687   3.170  1.00  0.00     0.066 C 
BRANCH   8   9
HETATM    9  C16 UNL     1      -9.438 -25.705   1.736  1.00  0.00     0.087 A 
HETATM   10  N3  UNL     1     -10.510 -25.677   0.914  1.00  0.00    -0.342 N 
HETATM   11  C17 UNL     1     -10.109 -25.752  -0.365  1.00  0.00     0.087 A 
ATOM     12  H3  UNL     1     -11.481 -25.608   1.219  1.00  0.00     0.167 HD
HETATM   13  N4  UNL     1      -8.770 -25.829  -0.332  1.00  0.00    -0.324 N 
HETATM   14  C24 UNL     1      -8.315 -25.804   0.924  1.00  0.00     0.169 A 
ATOM     15  H4  UNL     1      -8.176 -25.898  -1.158  1.00  0.00     0.169 HD
BRANCH  11  16
HETATM   16  C18 UNL     1     -10.965 -25.741  -1.595  1.00  0.00     0.053 C 
HETATM   17  C19 UNL     1     -10.212 -26.480  -2.671  1.00  0.00     0.012 C 
HETATM   18  C20 UNL     1     -10.589 -27.944  -2.607  1.00  0.00     0.001 C 
HETATM   19  C21 UNL     1     -11.964 -28.081  -3.257  1.00  0.00     0.000 C 
HETATM   20  C22 UNL     1     -12.825 -26.965  -2.723  1.00  0.00     0.001 C 
HETATM   21  C23 UNL     1     -12.283 -26.469  -1.374  1.00  0.00     0.012 C 
ENDBRANCH  11  16
BRANCH  14  22
HETATM   22  O2  UNL     1      -6.983 -25.864   1.294  1.00  0.00    -0.344 OA
ATOM     23  H2  UNL     1      -6.254 -26.258   0.829  1.00  0.00     0.219 HD
ENDBRANCH  14  22
ENDBRANCH   8   9
ENDBRANCH   7   8
BRANCH   1  24
HETATM   24  C6  UNL     1      -7.279 -25.502   5.410  1.00  0.00    -0.007 C 
BRANCH  24  25
HETATM   25  C5  UNL     1      -7.683 -24.142   5.840  1.00  0.00     0.028 C 
BRANCH  25  26
HETATM   26  C4  UNL     1      -6.558 -23.204   6.095  1.00  0.00     0.004 C 
BRANCH  26  27
HETATM   27  C3  UNL     1      -5.311 -23.772   5.411  1.00  0.00    -0.000 C 
BRANCH  27  28
HETATM   28  C2  UNL     1      -4.089 -23.076   6.002  1.00  0.00    -0.005 C 
HETATM   29  C1  UNL     1      -4.518 -22.053   7.038  1.00  0.00     0.005 C 
ENDBRANCH  27  28
ENDBRANCH  26  27
ENDBRANCH  25  26
ENDBRANCH  24  25
ENDBRANCH   1  24
BRANCH   6  30
HETATM   30  C9  UNL     1     -10.594 -28.401   3.222  1.00  0.00     0.157 C 
BRANCH  30  31
HETATM   31  C10 UNL     1     -10.036 -29.397   2.257  1.00  0.00    -0.033 C 
HETATM   32  C11 UNL     1     -10.737 -29.259   0.909  1.00  0.00     0.016 C 
HETATM   33  C12 UNL     1      -8.554 -29.316   2.028  1.00  0.00     0.016 C 
HETATM   34  C13 UNL     1     -10.314 -30.828   2.704  1.00  0.00     0.016 C 
ENDBRANCH  30  31
ENDBRANCH   6  30
TORSDOF 11
ENDMDL
MODEL 2
REMARK VINA RESULT: -7.869550283      2.824      7.002
REMARK  11 active torsions:
REMARK  status: ('A' for Active; 'I' for Inactive)
REMARK    1  A    between atoms: C2_2  and  C3_3 
REMARK    2  A    between atoms: C3_3  and  C4_4 
REMARK    3  A    between atoms: C4_4  and  C5_5 
REMARK    4  A    between atoms: C5_5  and  C6_6 
REMARK    5  A    between atoms: C6_6  and  C7_7 
REMARK    6  A    between atoms: N2_12  and  C9_13 
REMARK    7  A    between atoms: C9_13  and  C10_14 
REMARK    8  A    between atoms: C14_18  and  C15_19 
REMARK    9  A    between atoms: C15_19  and  C16_20 
REMARK   10  A    between atoms: C17_23  and  C18_24 
REMARK   11  A    between atoms: C24_32  and  O2_33 
ROOT
HETATM    1  C7  UNL     1      -8.158 -24.957   4.977  1.00  0.00     0.058 A 
HETATM    2  C8  UNL     1      -9.055 -23.967   4.610  1.00  0.00     0.272 A 
HETATM    3  O1  UNL     1      -9.082 -22.728   4.934  1.00  0.00    -0.266 OA
HETATM    4  N1  UNL     1      -9.946 -24.561   3.810  1.00  0.00    -0.263 N 
ATOM      5  H1  UNL     1     -10.732 -24.069   3.385  1.00  0.00     0.190 HD
HETATM    6  N2  UNL     1      -9.711 -25.839   3.624  1.00  0.00    -0.288 N 
HETATM    7  C14 UNL     1      -8.575 -26.117   4.356  1.00  0.00     0.068 A 
ENDROOT
BRANCH   7   8
HETATM    8  C15 UNL     1      -8.041 -27.309   4.378  1.00  0.00     0.066 C 
BRANCH   8   9
HETATM    9  C16 UNL     1      -8.008 -28.350   5.366  1.00  0.00     0.087 A 
HETATM   10  N3  UNL     1      -8.302 -28.313   6.685  1.00  0.00    -0.342 N 
HETATM   11  C17 UNL     1      -8.090 -29.519   7.235  1.00  0.00     0.087 A 
ATOM     12  H3  UNL     1      -8.635 -27.491   7.187  1.00  0.00     0.167 HD
HETATM   13  N4  UNL     1      -7.660 -30.312   6.242  1.00  0.00    -0.324 N 
HETATM   14  C24 UNL     1      -7.593 -29.646   5.086  1.00  0.00     0.169 A 
ATOM     15  H4  UNL     1      -7.414 -31.296   6.356  1.00  0.00     0.169 HD
BRANCH  11  16
HETATM   16  C18 UNL     1      -8.301 -29.923   8.663  1.00  0.00     0.053 C 
HETATM   17  C19 UNL     1      -7.056 -30.645   9.111  1.00  0.00     0.012 C 
HETATM   18  C20 UNL     1      -6.094 -29.636   9.698  1.00  0.00     0.001 C 
HETATM   19  C21 UNL     1      -6.595 -29.302  11.101  1.00  0.00     0.000 C 
HETATM   20  C22 UNL     1      -8.085 -29.091  11.006  1.00  0.00     0.001 C 
HETATM   21  C23 UNL     1      -8.483 -28.716   9.572  1.00  0.00     0.012 C 
ENDBRANCH  11  16
BRANCH  14  22
HETATM   22  O2  UNL     1      -7.188 -30.183   3.876  1.00  0.00    -0.344 OA
ATOM     23  H2  UNL     1      -6.308 -30.276   3.533  1.00  0.00     0.219 HD
ENDBRANCH  14  22
ENDBRANCH   8   9
ENDBRANCH   7   8
BRANCH   1  24
HETATM   24  C6  UNL     1      -7.144 -24.723   5.763  1.00  0.00    -0.007 C 
BRANCH  24  25
HETATM   25  C5  UNL     1      -5.914 -23.967   5.425  1.00  0.00     0.028 C 
BRANCH  25  26
HETATM   26  C4  UNL     1      -5.644 -22.789   6.291  1.00  0.00     0.004 C 
BRANCH  26  27
HETATM   27  C3  UNL     1      -4.125 -22.624   6.397  1.00  0.00    -0.000 C 
BRANCH  27  28
HETATM   28  C2  UNL     1      -3.812 -21.991   7.749  1.00  0.00    -0.005 C 
HETATM   29  C1  UNL     1      -2.377 -21.497   7.778  1.00  0.00     0.005 C 
ENDBRANCH  27  28
ENDBRANCH  26  27
ENDBRANCH  25  26
ENDBRANCH  24  25
ENDBRANCH   1  24
BRANCH   6  30
HETATM   30  C9  UNL     1     -10.532 -26.761   2.838  1.00  0.00     0.157 C 
BRANCH  30  31
HETATM   31  C10 UNL     1     -10.164 -26.793   1.390  1.00  0.00    -0.033 C 
HETATM   32  C11 UNL     1     -11.429 -26.845   0.537  1.00  0.00     0.016 C 
HETATM   33  C12 UNL     1      -9.320 -25.649   0.910  1.00  0.00     0.016 C 
HETATM   34  C13 UNL     1      -9.395 -28.061   1.034  1.00  0.00     0.016 C 
ENDBRANCH  30  31
ENDBRANCH   6  30
TORSDOF 11
ENDMDL
MODEL 3
REMARK VINA RESULT: -7.860600066      0.775      1.258
REMARK  11 active torsions:
REMARK  status: ('A' for Active; 'I' for Inactive)
REMARK    1  A    between atoms: C2_2  and  C3_3 
REMARK    2  A    between atoms: C3_3  and  C4_4 
REMARK    3  A    between atoms: C4_4  and  C5_5 
REMARK    4  A    between atoms: C5_5  and  C6_6 
REMARK    5  A    between atoms: C6_6  and  C7_7 
REMARK    6  A    between atoms: N2_12  and  C9_13 
REMARK    7  A    between atoms: C9_13  and  C10_14 
REMARK    8  A    between atoms: C14_18  and  C15_19 
REMARK    9  A    between atoms: C15_19  and  C16_20 
REMARK   10  A    between atoms: C17_23  and  C18_24 
REMARK   11  A    between atoms: C24_32  and  O2_33 
ROOT
HETATM    1  C7  UNL     1      -8.057 -26.359   5.043  1.00  0.00     0.058 A 
HETATM    2  C8  UNL     1      -8.116 -27.569   5.715  1.00  0.00     0.272 A 
HETATM    3  O1  UNL     1      -7.448 -27.973   6.731  1.00  0.00    -0.266 OA
HETATM    4  N1  UNL     1      -9.047 -28.291   5.085  1.00  0.00    -0.263 N 
ATOM      5  H1  UNL     1      -9.307 -29.237   5.365  1.00  0.00     0.190 HD
HETATM    6  N2  UNL     1      -9.596 -27.665   4.070  1.00  0.00    -0.288 N 
HETATM    7  C14 UNL     1      -8.983 -26.430   4.022  1.00  0.00     0.068 A 
ENDROOT
BRANCH   7   8
HETATM    8  C15 UNL     1      -9.310 -25.529   3.133  1.00  0.00     0.066 C 
BRANCH   8   9
HETATM    9  C16 UNL     1      -9.360 -25.542   1.698  1.00  0.00     0.087 A 
HETATM   10  N3  UNL     1     -10.411 -25.411   0.859  1.00  0.00    -0.342 N 
HETATM   11  C17 UNL     1      -9.999 -25.526  -0.413  1.00  0.00     0.087 A 
ATOM     12  H3  UNL     1     -11.375 -25.248   1.150  1.00  0.00     0.167 HD
HETATM   13  N4  UNL     1      -8.674 -25.732  -0.359  1.00  0.00    -0.324 N 
HETATM   14  C24 UNL     1      -8.239 -25.750   0.904  1.00  0.00     0.169 A 
ATOM     15  H4  UNL     1      -8.077 -25.859  -1.176  1.00  0.00     0.169 HD
BRANCH  11  16
HETATM   16  C18 UNL     1     -10.831 -25.433  -1.656  1.00  0.00     0.053 C 
HETATM   17  C19 UNL     1     -10.489 -24.127  -2.325  1.00  0.00     0.012 C 
HETATM   18  C20 UNL     1      -9.347 -24.360  -3.290  1.00  0.00     0.001 C 
HETATM   19  C21 UNL     1      -9.938 -25.022  -4.533  1.00  0.00     0.000 C 
HETATM   20  C22 UNL     1     -10.877 -26.103  -4.060  1.00  0.00     0.001 C 
HETATM   21  C23 UNL     1     -10.508 -26.550  -2.639  1.00  0.00     0.012 C 
ENDBRANCH  11  16
BRANCH  14  22
HETATM   22  O2  UNL     1      -6.925 -25.938   1.294  1.00  0.00    -0.344 OA
ATOM     23  H2  UNL     1      -6.389 -26.719   1.221  1.00  0.00     0.219 HD
ENDBRANCH  14  22
ENDBRANCH   8   9
ENDBRANCH   7   8
BRANCH   1  24
HETATM   24  C6  UNL     1      -7.243 -25.404   5.397  1.00  0.00    -0.007 C 
BRANCH  24  25
HETATM   25  C5  UNL     1      -7.617 -24.040   5.846  1.00  0.00     0.028 C 
BRANCH  25  26
HETATM   26  C4  UNL     1      -6.470 -23.135   6.122  1.00  0.00     0.004 C 
BRANCH  26  27
HETATM   27  C3  UNL     1      -5.227 -23.740   5.464  1.00  0.00    -0.000 C 
BRANCH  27  28
HETATM   28  C2  UNL     1      -4.004 -22.996   5.992  1.00  0.00    -0.005 C 
HETATM   29  C1  UNL     1      -4.399 -22.083   7.138  1.00  0.00     0.005 C 
ENDBRANCH  27  28
ENDBRANCH  26  27
ENDBRANCH  25  26
ENDBRANCH  24  25
ENDBRANCH   1  24
BRANCH   6  30
HETATM   30  C9  UNL     1     -10.609 -28.210   3.166  1.00  0.00     0.157 C 
BRANCH  30  31
HETATM   31  C10 UNL     1     -10.069 -29.226   2.213  1.00  0.00    -0.033 C 
HETATM   32  C11 UNL     1     -10.727 -29.054   0.847  1.00  0.00     0.016 C 
HETATM   33  C12 UNL     1      -8.580 -29.208   2.023  1.00  0.00     0.016 C 
HETATM   34  C13 UNL     1     -10.420 -30.645   2.646  1.00  0.00     0.016 C 
ENDBRANCH  30  31
ENDBRANCH   6  30
TORSDOF 11
ENDMDL
MODEL 4
REMARK VINA RESULT: -7.759435338      2.945      7.099
REMARK  11 active torsions:
REMARK  status: ('A' for Active; 'I' for Inactive)
REMARK    1  A    between atoms: C2_2  and  C3_3 
REMARK    2  A    between atoms: C3_3  and  C4_4 
REMARK    3  A    between atoms: C4_4  and  C5_5 
REMARK    4  A    between atoms: C5_5  and  C6_6 
REMARK    5  A    between atoms: C6_6  and  C7_7 
REMARK    6  A    between atoms: N2_12  and  C9_13 
REMARK    7  A    between atoms: C9_13  and  C10_14 
REMARK    8  A    between atoms: C14_18  and  C15_19 
REMARK    9  A    between atoms: C15_19  and  C16_20 
REMARK   10  A    between atoms: C17_23  and  C18_24 
REMARK   11  A    between atoms: C24_32  and  O2_33 
ROOT
HETATM    1  C7  UNL     1      -8.300 -25.137   5.136  1.00  0.00     0.058 A 
HETATM    2  C8  UNL     1      -9.325 -24.445   4.510  1.00  0.00     0.272 A 
HETATM    3  O1  UNL     1      -9.598 -23.194   4.532  1.00  0.00    -0.266 OA
HETATM    4  N1  UNL     1     -10.025 -25.363   3.838  1.00  0.00    -0.263 N 
ATOM      5  H1  UNL     1     -10.848 -25.139   3.277  1.00  0.00     0.190 HD
HETATM    6  N2  UNL     1      -9.553 -26.580   3.968  1.00  0.00    -0.288 N 
HETATM    7  C14 UNL     1      -8.451 -26.464   4.790  1.00  0.00     0.068 A 
ENDROOT
BRANCH   7   8
HETATM    8  C15 UNL     1      -7.717 -27.496   5.113  1.00  0.00     0.066 C 
BRANCH   8   9
HETATM    9  C16 UNL     1      -7.885 -28.558   6.065  1.00  0.00     0.087 A 
HETATM   10  N3  UNL     1      -8.163 -28.511   7.386  1.00  0.00    -0.342 N 
HETATM   11  C17 UNL     1      -8.190 -29.754   7.893  1.00  0.00     0.087 A 
ATOM     12  H3  UNL     1      -8.329 -27.658   7.920  1.00  0.00     0.167 HD
HETATM   13  N4  UNL     1      -7.924 -30.580   6.869  1.00  0.00    -0.324 N 
HETATM   14  C24 UNL     1      -7.731 -29.899   5.736  1.00  0.00     0.169 A 
ATOM     15  H4  UNL     1      -7.875 -31.596   6.947  1.00  0.00     0.169 HD
BRANCH  11  16
HETATM   16  C18 UNL     1      -8.472 -30.160   9.308  1.00  0.00     0.053 C 
HETATM   17  C19 UNL     1      -7.537 -29.375  10.192  1.00  0.00     0.012 C 
HETATM   18  C20 UNL     1      -8.216 -28.082  10.589  1.00  0.00     0.001 C 
HETATM   19  C21 UNL     1      -9.222 -28.422  11.686  1.00  0.00     0.000 C 
HETATM   20  C22 UNL     1      -9.959 -29.662  11.249  1.00  0.00     0.001 C 
HETATM   21  C23 UNL     1      -9.895 -29.814   9.723  1.00  0.00     0.012 C 
ENDBRANCH  11  16
BRANCH  14  22
HETATM   22  O2  UNL     1      -7.441 -30.461   4.505  1.00  0.00    -0.344 OA
ATOM     23  H2  UNL     1      -7.594 -30.104   3.638  1.00  0.00     0.219 HD
ENDBRANCH  14  22
ENDBRANCH   8   9
ENDBRANCH   7   8
BRANCH   1  24
HETATM   24  C6  UNL     1      -7.413 -24.542   5.885  1.00  0.00    -0.007 C 
BRANCH  24  25
HETATM   25  C5  UNL     1      -6.232 -23.774   5.423  1.00  0.00     0.028 C 
BRANCH  25  26
HETATM   26  C4  UNL     1      -5.843 -22.636   6.298  1.00  0.00     0.004 C 
BRANCH  26  27
HETATM   27  C3  UNL     1      -4.316 -22.644   6.424  1.00  0.00    -0.000 C 
BRANCH  27  28
HETATM   28  C2  UNL     1      -3.947 -21.951   7.732  1.00  0.00    -0.005 C 
HETATM   29  C1  UNL     1      -2.491 -21.524   7.708  1.00  0.00     0.005 C 
ENDBRANCH  27  28
ENDBRANCH  26  27
ENDBRANCH  25  26
ENDBRANCH  24  25
ENDBRANCH   1  24
BRANCH   6  30
HETATM   30  C9  UNL     1     -10.127 -27.795   3.388  1.00  0.00     0.157 C 
BRANCH  30  31
HETATM   31  C10 UNL     1      -9.875 -27.929   1.921  1.00  0.00    -0.033 C 
HETATM   32  C11 UNL     1     -11.037 -27.322   1.140  1.00  0.00     0.016 C 
HETATM   33  C12 UNL     1      -8.600 -27.312   1.425  1.00  0.00     0.016 C 
HETATM   34  C13 UNL     1      -9.829 -29.391   1.491  1.00  0.00     0.016 C 
ENDBRANCH  30  31
ENDBRANCH   6  30
TORSDOF 11
ENDMDL
MODEL 5
REMARK VINA RESULT: -7.680519453      2.232      7.353
REMARK  11 active torsions:
REMARK  status: ('A' for Active; 'I' for Inactive)
REMARK    1  A    between atoms: C2_2  and  C3_3 
REMARK    2  A    between atoms: C3_3  and  C4_4 
REMARK    3  A    between atoms: C4_4  and  C5_5 
REMARK    4  A    between atoms: C5_5  and  C6_6 
REMARK    5  A    between atoms: C6_6  and  C7_7 
REMARK    6  A    between atoms: N2_12  and  C9_13 
REMARK    7  A    between atoms: C9_13  and  C10_14 
REMARK    8  A    between atoms: C14_18  and  C15_19 
REMARK    9  A    between atoms: C15_19  and  C16_20 
REMARK   10  A    between atoms: C17_23  and  C18_24 
REMARK   11  A    between atoms: C24_32  and  O2_33 
ROOT
HETATM    1  C7  UNL     1     -11.439 -26.519  -0.282  1.00  0.00     0.058 A 
HETATM    2  C8  UNL     1     -12.287 -26.808  -1.340  1.00  0.00     0.272 A 
HETATM    3  O1  UNL     1     -13.162 -27.737  -1.455  1.00  0.00    -0.266 OA
HETATM    4  N1  UNL     1     -12.021 -25.896  -2.279  1.00  0.00    -0.263 N 
ATOM      5  H1  UNL     1     -12.500 -25.864  -3.179  1.00  0.00     0.190 HD
HETATM    6  N2  UNL     1     -11.083 -25.046  -1.932  1.00  0.00    -0.288 N 
HETATM    7  C14 UNL     1     -10.696 -25.420  -0.662  1.00  0.00     0.068 A 
ENDROOT
BRANCH   7   8
HETATM    8  C15 UNL     1      -9.782 -24.764   0.004  1.00  0.00     0.066 C 
BRANCH   8   9
HETATM    9  C16 UNL     1      -9.057 -25.046   1.210  1.00  0.00     0.087 A 
HETATM   10  N3  UNL     1      -9.135 -24.473   2.431  1.00  0.00    -0.342 N 
HETATM   11  C17 UNL     1      -8.235 -25.030   3.257  1.00  0.00     0.087 A 
ATOM     12  H3  UNL     1      -9.782 -23.728   2.688  1.00  0.00     0.167 HD
HETATM   13  N4  UNL     1      -7.592 -25.960   2.535  1.00  0.00    -0.324 N 
HETATM   14  C24 UNL     1      -8.056 -26.008   1.284  1.00  0.00     0.169 A 
ATOM     15  H4  UNL     1      -6.845 -26.553   2.896  1.00  0.00     0.169 HD
BRANCH  11  16
HETATM   16  C18 UNL     1      -7.993 -24.703   4.700  1.00  0.00     0.053 C 
HETATM   17  C19 UNL     1      -6.698 -25.365   5.096  1.00  0.00     0.012 C 
HETATM   18  C20 UNL     1      -5.562 -24.397   4.843  1.00  0.00     0.001 C 
HETATM   19  C21 UNL     1      -5.575 -23.383   5.985  1.00  0.00     0.000 C 
HETATM   20  C22 UNL     1      -7.008 -22.965   6.196  1.00  0.00     0.001 C 
HETATM   21  C23 UNL     1      -7.830 -23.207   4.922  1.00  0.00     0.012 C 
ENDBRANCH  11  16
BRANCH  14  22
HETATM   22  O2  UNL     1      -7.602 -26.862   0.294  1.00  0.00    -0.344 OA
ATOM     23  H2  UNL     1      -7.778 -27.789   0.183  1.00  0.00     0.219 HD
ENDBRANCH  14  22
ENDBRANCH   8   9
ENDBRANCH   7   8
BRANCH   1  24
HETATM   24  C6  UNL     1     -11.432 -27.219   0.818  1.00  0.00    -0.007 C 
BRANCH  24  25
HETATM   25  C5  UNL     1     -10.693 -28.481   1.061  1.00  0.00     0.028 C 
BRANCH  25  26
HETATM   26  C4  UNL     1     -10.251 -28.688   2.466  1.00  0.00     0.004 C 
BRANCH  26  27
HETATM   27  C3  UNL     1      -8.983 -29.547   2.437  1.00  0.00    -0.000 C 
BRANCH  27  28
HETATM   28  C2  UNL     1      -8.257 -29.362   3.766  1.00  0.00    -0.005 C 
HETATM   29  C1  UNL     1      -9.018 -28.390   4.649  1.00  0.00     0.005 C 
ENDBRANCH  27  28
ENDBRANCH  26  27
ENDBRANCH  25  26
ENDBRANCH  24  25
ENDBRANCH   1  24
BRANCH   6  30
HETATM   30  C9  UNL     1     -10.547 -23.967  -2.763  1.00  0.00     0.157 C 
BRANCH  30  31
HETATM   31  C10 UNL     1      -9.737 -24.455  -3.919  1.00  0.00    -0.033 C 
HETATM   32  C11 UNL     1      -9.072 -23.273  -4.620  1.00  0.00     0.016 C 
HETATM   33  C12 UNL     1      -8.674 -25.462  -3.586  1.00  0.00     0.016 C 
HETATM   34  C13 UNL     1     -10.612 -25.106  -4.984  1.00  0.00     0.016 C 
ENDBRANCH  30  31
ENDBRANCH   6  30
TORSDOF 11
ENDMDL
