MODEL 1
REMARK VINA RESULT: -10.567897148      0.000      0.000
REMARK  11 active torsions:
REMARK  status: ('A' for Active; 'I' for Inactive)
REMARK    1  A    between atoms: C7_7  and  O1_8 
REMARK    2  A    between atoms: C11_13  and  O2_14 
REMARK    3  A    between atoms: C19_23  and  O3_24 
REMARK    4  A    between atoms: O3_24  and  C20_25 
REMARK    5  A    between atoms: C20_25  and  C21_27 
REMARK    6  A    between atoms: C21_27  and  C22_28 
REMARK    7  A    between atoms: C22_28  and  C23_29 
REMARK    8  A    between atoms: C23_29  and  C24_30 
REMARK    9  A    between atoms: C24_30  and  C25_31 
REMARK   10  A    between atoms: C25_31  and  O6_33 
REMARK   11  A    between atoms: O6_33  and  C26_34 
ROOT
HETATM    1  C1  UNL     1      35.268  44.770  18.621  1.00  0.00     0.015 C 
HETATM    2  C2  UNL     1      34.589  45.002  17.307  1.00  0.00    -0.038 C 
HETATM    3  C3  UNL     1      33.227  45.561  17.560  1.00  0.00     0.010 C 
HETATM    4  C4  UNL     1      32.080  45.013  16.840  1.00  0.00     0.007 C 
HETATM    5  C5  UNL     1      32.133  43.622  16.319  1.00  0.00     0.001 C 
HETATM    6  C6  UNL     1      33.417  42.880  16.507  1.00  0.00     0.024 C 
HETATM    7  C7  UNL     1      33.432  41.926  17.632  1.00  0.00     0.123 C 
HETATM    8  C8  UNL     1      32.378  42.201  18.715  1.00  0.00     0.037 C 
HETATM    9  C9  UNL     1      31.015  42.192  18.083  1.00  0.00    -0.001 C 
HETATM   10  C10 UNL     1      30.475  40.795  18.214  1.00  0.00     0.037 C 
HETATM   11  C11 UNL     1      29.353  40.462  17.310  1.00  0.00     0.118 C 
HETATM   12  C12 UNL     1      29.556  40.842  15.885  1.00  0.00     0.032 C 
HETATM   13  C13 UNL     1      30.732  41.719  15.634  1.00  0.00     0.012 C 
HETATM   14  C14 UNL     1      30.929  42.772  16.729  1.00  0.00    -0.036 C 
HETATM   15  C15 UNL     1      29.709  43.696  16.599  1.00  0.00     0.016 C 
HETATM   16  C16 UNL     1      34.546  43.854  16.378  1.00  0.00     0.001 C 
HETATM   17  C17 UNL     1      35.889  43.213  16.136  1.00  0.00     0.008 C 
HETATM   18  C18 UNL     1      36.737  44.260  15.396  1.00  0.00     0.033 C 
HETATM   19  C19 UNL     1      36.842  45.444  16.330  1.00  0.00     0.132 C 
HETATM   20  C32 UNL     1      35.472  46.057  16.597  1.00  0.00     0.042 C 
ENDROOT
BRANCH  19  21
HETATM   21  O3  UNL     1      37.715  46.445  15.859  1.00  0.00    -0.316 OA
BRANCH  21  22
HETATM   22  C20 UNL     1      38.797  46.919  16.625  1.00  0.00     0.259 C 
HETATM   23  O4  UNL     1      39.319  47.968  16.182  1.00  0.00    -0.265 OA
BRANCH  22  24
HETATM   24  C21 UNL     1      39.273  46.250  17.830  1.00  0.00     0.111 C 
BRANCH  24  25
HETATM   25  C22 UNL     1      40.670  46.655  18.221  1.00  0.00     0.010 C 
BRANCH  25  26
HETATM   26  C23 UNL     1      41.438  45.654  19.005  1.00  0.00     0.010 C 
BRANCH  26  27
HETATM   27  C24 UNL     1      41.691  46.061  20.442  1.00  0.00     0.111 C 
BRANCH  27  28
HETATM   28  C25 UNL     1      41.306  44.979  21.386  1.00  0.00     0.264 C 
HETATM   29  O5  UNL     1      42.000  43.947  21.513  1.00  0.00    -0.265 OA
BRANCH  28  30
HETATM   30  O6  UNL     1      40.152  45.073  22.169  1.00  0.00    -0.277 OA
BRANCH  30  31
HETATM   31  C26 UNL     1      39.067  44.247  21.934  1.00  0.00     0.101 A 
HETATM   32  C27 UNL     1      38.314  44.387  20.788  1.00  0.00     0.041 A 
HETATM   33  C28 UNL     1      37.220  43.568  20.529  1.00  0.00     0.029 A 
HETATM   34  C29 UNL     1      36.886  42.586  21.456  1.00  0.00     0.048 A 
HETATM   35  N1  UNL     1      35.772  41.753  21.193  1.00  0.00    -0.102 NA
HETATM   36  C30 UNL     1      37.632  42.436  22.608  1.00  0.00     0.053 A 
HETATM   37  C31 UNL     1      38.724  43.270  22.842  1.00  0.00     0.069 A 
HETATM   38 CL1  UNL     1      39.700  43.117  24.286  1.00  0.00    -0.081 Cl
ENDBRANCH  30  31
ENDBRANCH  28  30
ENDBRANCH  27  28
ENDBRANCH  26  27
ENDBRANCH  25  26
ENDBRANCH  24  25
ENDBRANCH  22  24
ENDBRANCH  21  22
ENDBRANCH  19  21
BRANCH   7  39
HETATM   39  O1  UNL     1      34.670  41.687  18.206  1.00  0.00    -0.395 OA
ATOM     40  H1  UNL     1      34.742  41.883  19.133  1.00  0.00     0.210 HD
ENDBRANCH   7  39
BRANCH  11  41
HETATM   41  O2  UNL     1      28.174  40.965  17.856  1.00  0.00    -0.396 OA
ATOM     42  H2  UNL     1      28.052  41.856  17.547  1.00  0.00     0.210 HD
ENDBRANCH  11  41
TORSDOF 11
ENDMDL
MODEL 2
REMARK VINA RESULT: -10.440379759      1.602      1.967
REMARK  11 active torsions:
REMARK  status: ('A' for Active; 'I' for Inactive)
REMARK    1  A    between atoms: C7_7  and  O1_8 
REMARK    2  A    between atoms: C11_13  and  O2_14 
REMARK    3  A    between atoms: C19_23  and  O3_24 
REMARK    4  A    between atoms: O3_24  and  C20_25 
REMARK    5  A    between atoms: C20_25  and  C21_27 
REMARK    6  A    between atoms: C21_27  and  C22_28 
REMARK    7  A    between atoms: C22_28  and  C23_29 
REMARK    8  A    between atoms: C23_29  and  C24_30 
REMARK    9  A    between atoms: C24_30  and  C25_31 
REMARK   10  A    between atoms: C25_31  and  O6_33 
REMARK   11  A    between atoms: O6_33  and  C26_34 
ROOT
HETATM    1  C1  UNL     1      35.784  44.690  18.736  1.00  0.00     0.015 C 
HETATM    2  C2  UNL     1      35.065  45.103  17.490  1.00  0.00    -0.038 C 
HETATM    3  C3  UNL     1      33.739  45.678  17.865  1.00  0.00     0.010 C 
HETATM    4  C4  UNL     1      32.542  45.263  17.136  1.00  0.00     0.007 C 
HETATM    5  C5  UNL     1      32.518  43.944  16.452  1.00  0.00     0.001 C 
HETATM    6  C6  UNL     1      33.775  43.138  16.495  1.00  0.00     0.024 C 
HETATM    7  C7  UNL     1      33.793  42.056  17.498  1.00  0.00     0.123 C 
HETATM    8  C8  UNL     1      32.794  42.238  18.650  1.00  0.00     0.037 C 
HETATM    9  C9  UNL     1      31.409  42.356  18.080  1.00  0.00    -0.001 C 
HETATM   10  C10 UNL     1      30.815  40.974  18.069  1.00  0.00     0.037 C 
HETATM   11  C11 UNL     1      29.647  40.793  17.181  1.00  0.00     0.118 C 
HETATM   12  C12 UNL     1      29.811  41.334  15.803  1.00  0.00     0.032 C 
HETATM   13  C13 UNL     1      31.013  42.190  15.607  1.00  0.00     0.012 C 
HETATM   14  C14 UNL     1      31.295  43.097  16.810  1.00  0.00    -0.036 C 
HETATM   15  C15 UNL     1      30.111  44.074  16.843  1.00  0.00     0.016 C 
HETATM   16  C16 UNL     1      34.938  44.078  16.433  1.00  0.00     0.001 C 
HETATM   17  C17 UNL     1      36.243  43.420  16.060  1.00  0.00     0.008 C 
HETATM   18  C18 UNL     1      37.105  44.517  15.413  1.00  0.00     0.033 C 
HETATM   19  C19 UNL     1      37.296  45.575  16.475  1.00  0.00     0.132 C 
HETATM   20  C32 UNL     1      35.964  46.202  16.872  1.00  0.00     0.042 C 
ENDROOT
BRANCH  19  21
HETATM   21  O3  UNL     1      38.191  46.593  16.089  1.00  0.00    -0.316 OA
BRANCH  21  22
HETATM   22  C20 UNL     1      39.535  46.610  16.510  1.00  0.00     0.259 C 
HETATM   23  O4  UNL     1      40.366  46.612  15.573  1.00  0.00    -0.265 OA
BRANCH  22  24
HETATM   24  C21 UNL     1      39.929  46.625  17.914  1.00  0.00     0.111 C 
BRANCH  24  25
HETATM   25  C22 UNL     1      40.922  45.548  18.262  1.00  0.00     0.010 C 
BRANCH  25  26
HETATM   26  C23 UNL     1      40.617  44.756  19.481  1.00  0.00     0.010 C 
BRANCH  26  27
HETATM   27  C24 UNL     1      39.161  44.808  19.898  1.00  0.00     0.111 C 
BRANCH  27  28
HETATM   28  C25 UNL     1      39.011  44.609  21.364  1.00  0.00     0.264 C 
HETATM   29  O5  UNL     1      39.992  44.336  22.089  1.00  0.00    -0.265 OA
BRANCH  28  30
HETATM   30  O6  UNL     1      37.766  44.719  21.989  1.00  0.00    -0.277 OA
BRANCH  30  31
HETATM   31  C26 UNL     1      37.514  44.069  23.185  1.00  0.00     0.101 A 
HETATM   32  C27 UNL     1      37.734  44.704  24.388  1.00  0.00     0.041 A 
HETATM   33  C28 UNL     1      37.488  44.073  25.602  1.00  0.00     0.029 A 
HETATM   34  C29 UNL     1      37.008  42.766  25.591  1.00  0.00     0.048 A 
HETATM   35  N1  UNL     1      36.758  42.123  26.828  1.00  0.00    -0.102 NA
HETATM   36  C30 UNL     1      36.784  42.119  24.393  1.00  0.00     0.053 A 
HETATM   37  C31 UNL     1      37.039  42.776  23.190  1.00  0.00     0.069 A 
HETATM   38 CL1  UNL     1      36.770  41.998  21.647  1.00  0.00    -0.081 Cl
ENDBRANCH  30  31
ENDBRANCH  28  30
ENDBRANCH  27  28
ENDBRANCH  26  27
ENDBRANCH  25  26
ENDBRANCH  24  25
ENDBRANCH  22  24
ENDBRANCH  21  22
ENDBRANCH  19  21
BRANCH   7  39
HETATM   39  O1  UNL     1      35.041  41.704  17.985  1.00  0.00    -0.395 OA
ATOM     40  H1  UNL     1      35.253  40.779  17.952  1.00  0.00     0.210 HD
ENDBRANCH   7  39
BRANCH  11  41
HETATM   41  O2  UNL     1      28.512  41.271  17.833  1.00  0.00    -0.396 OA
ATOM     42  H2  UNL     1      27.889  40.559  17.921  1.00  0.00     0.210 HD
ENDBRANCH  11  41
TORSDOF 11
ENDMDL
MODEL 3
REMARK VINA RESULT: -10.381287911      3.459      8.249
REMARK  11 active torsions:
REMARK  status: ('A' for Active; 'I' for Inactive)
REMARK    1  A    between atoms: C7_7  and  O1_8 
REMARK    2  A    between atoms: C11_13  and  O2_14 
REMARK    3  A    between atoms: C19_23  and  O3_24 
REMARK    4  A    between atoms: O3_24  and  C20_25 
REMARK    5  A    between atoms: C20_25  and  C21_27 
REMARK    6  A    between atoms: C21_27  and  C22_28 
REMARK    7  A    between atoms: C22_28  and  C23_29 
REMARK    8  A    between atoms: C23_29  and  C24_30 
REMARK    9  A    between atoms: C24_30  and  C25_31 
REMARK   10  A    between atoms: C25_31  and  O6_33 
REMARK   11  A    between atoms: O6_33  and  C26_34 
ROOT
HETATM    1  C1  UNL     1      42.697  45.084  21.937  1.00  0.00     0.015 C 
HETATM    2  C2  UNL     1      41.375  45.775  21.812  1.00  0.00    -0.038 C 
HETATM    3  C3  UNL     1      41.180  46.665  22.995  1.00  0.00     0.010 C 
HETATM    4  C4  UNL     1      39.901  46.656  23.700  1.00  0.00     0.007 C 
HETATM    5  C5  UNL     1      39.032  45.452  23.634  1.00  0.00     0.001 C 
HETATM    6  C6  UNL     1      39.504  44.327  22.770  1.00  0.00     0.024 C 
HETATM    7  C7  UNL     1      40.145  43.210  23.488  1.00  0.00     0.123 C 
HETATM    8  C8  UNL     1      40.689  43.573  24.877  1.00  0.00     0.037 C 
HETATM    9  C9  UNL     1      39.565  44.114  25.715  1.00  0.00    -0.001 C 
HETATM   10  C10 UNL     1      38.986  42.956  26.481  1.00  0.00     0.037 C 
HETATM   11  C11 UNL     1      37.633  43.176  27.034  1.00  0.00     0.118 C 
HETATM   12  C12 UNL     1      36.647  43.753  26.080  1.00  0.00     0.032 C 
HETATM   13  C13 UNL     1      37.230  44.254  24.805  1.00  0.00     0.012 C 
HETATM   14  C14 UNL     1      38.579  44.952  25.007  1.00  0.00    -0.036 C 
HETATM   15  C15 UNL     1      38.243  46.214  25.814  1.00  0.00     0.016 C 
HETATM   16  C16 UNL     1      40.200  44.909  21.580  1.00  0.00     0.001 C 
HETATM   17  C17 UNL     1      40.368  43.945  20.431  1.00  0.00     0.008 C 
HETATM   18  C18 UNL     1      40.454  44.805  19.160  1.00  0.00     0.033 C 
HETATM   19  C19 UNL     1      41.671  45.685  19.336  1.00  0.00     0.132 C 
HETATM   20  C32 UNL     1      41.503  46.625  20.524  1.00  0.00     0.042 C 
ENDROOT
BRANCH  19  21
HETATM   21  O3  UNL     1      41.979  46.440  18.186  1.00  0.00    -0.316 OA
BRANCH  21  22
HETATM   22  C20 UNL     1      41.035  47.282  17.566  1.00  0.00     0.259 C 
HETATM   23  O4  UNL     1      41.484  48.406  17.242  1.00  0.00    -0.265 OA
BRANCH  22  24
HETATM   24  C21 UNL     1      39.653  46.885  17.321  1.00  0.00     0.111 C 
BRANCH  24  25
HETATM   25  C22 UNL     1      39.187  47.195  15.924  1.00  0.00     0.010 C 
BRANCH  25  26
HETATM   26  C23 UNL     1      38.079  46.349  15.410  1.00  0.00     0.010 C 
BRANCH  26  27
HETATM   27  C24 UNL     1      36.698  46.910  15.687  1.00  0.00     0.111 C 
BRANCH  27  28
HETATM   28  C25 UNL     1      35.778  45.856  16.189  1.00  0.00     0.264 C 
HETATM   29  O5  UNL     1      35.465  44.872  15.485  1.00  0.00    -0.265 OA
BRANCH  28  30
HETATM   30  O6  UNL     1      35.224  45.925  17.472  1.00  0.00    -0.277 OA
BRANCH  30  31
HETATM   31  C26 UNL     1      35.381  44.882  18.367  1.00  0.00     0.101 A 
HETATM   32  C27 UNL     1      36.596  44.660  18.979  1.00  0.00     0.041 A 
HETATM   33  C28 UNL     1      36.778  43.619  19.883  1.00  0.00     0.029 A 
HETATM   34  C29 UNL     1      35.700  42.786  20.170  1.00  0.00     0.048 A 
HETATM   35  N1  UNL     1      35.885  41.726  21.090  1.00  0.00    -0.102 NA
HETATM   36  C30 UNL     1      34.478  42.998  19.563  1.00  0.00     0.053 A 
HETATM   37  C31 UNL     1      34.324  44.050  18.661  1.00  0.00     0.069 A 
HETATM   38 CL1  UNL     1      32.796  44.359  17.868  1.00  0.00    -0.081 Cl
ENDBRANCH  30  31
ENDBRANCH  28  30
ENDBRANCH  27  28
ENDBRANCH  26  27
ENDBRANCH  25  26
ENDBRANCH  24  25
ENDBRANCH  22  24
ENDBRANCH  21  22
ENDBRANCH  19  21
BRANCH   7  39
HETATM   39  O1  UNL     1      41.084  42.489  22.769  1.00  0.00    -0.395 OA
ATOM     40  H1  UNL     1      41.842  42.978  22.472  1.00  0.00     0.210 HD
ENDBRANCH   7  39
BRANCH  11  41
HETATM   41  O2  UNL     1      37.746  43.899  28.219  1.00  0.00    -0.396 OA
ATOM     42  H2  UNL     1      37.488  44.799  28.053  1.00  0.00     0.210 HD
ENDBRANCH  11  41
TORSDOF 11
ENDMDL
MODEL 4
REMARK VINA RESULT: -10.263003747      1.211      1.412
REMARK  11 active torsions:
REMARK  status: ('A' for Active; 'I' for Inactive)
REMARK    1  A    between atoms: C7_7  and  O1_8 
REMARK    2  A    between atoms: C11_13  and  O2_14 
REMARK    3  A    between atoms: C19_23  and  O3_24 
REMARK    4  A    between atoms: O3_24  and  C20_25 
REMARK    5  A    between atoms: C20_25  and  C21_27 
REMARK    6  A    between atoms: C21_27  and  C22_28 
REMARK    7  A    between atoms: C22_28  and  C23_29 
REMARK    8  A    between atoms: C23_29  and  C24_30 
REMARK    9  A    between atoms: C24_30  and  C25_31 
REMARK   10  A    between atoms: C25_31  and  O6_33 
REMARK   11  A    between atoms: O6_33  and  C26_34 
ROOT
HETATM    1  C1  UNL     1      35.480  44.778  18.565  1.00  0.00     0.015 C 
HETATM    2  C2  UNL     1      34.758  45.062  17.285  1.00  0.00    -0.038 C 
HETATM    3  C3  UNL     1      33.411  45.623  17.604  1.00  0.00     0.010 C 
HETATM    4  C4  UNL     1      32.234  45.110  16.906  1.00  0.00     0.007 C 
HETATM    5  C5  UNL     1      32.257  43.737  16.335  1.00  0.00     0.001 C 
HETATM    6  C6  UNL     1      33.539  42.979  16.453  1.00  0.00     0.024 C 
HETATM    7  C7  UNL     1      33.583  41.986  17.544  1.00  0.00     0.123 C 
HETATM    8  C8  UNL     1      32.571  42.232  18.671  1.00  0.00     0.037 C 
HETATM    9  C9  UNL     1      31.187  42.257  18.087  1.00  0.00    -0.001 C 
HETATM   10  C10 UNL     1      30.638  40.860  18.189  1.00  0.00     0.037 C 
HETATM   11  C11 UNL     1      29.482  40.568  17.313  1.00  0.00     0.118 C 
HETATM   12  C12 UNL     1      29.640  40.996  15.896  1.00  0.00     0.032 C 
HETATM   13  C13 UNL     1      30.815  41.871  15.635  1.00  0.00     0.012 C 
HETATM   14  C14 UNL     1      31.059  42.884  16.758  1.00  0.00    -0.036 C 
HETATM   15  C15 UNL     1      29.845  43.822  16.702  1.00  0.00     0.016 C 
HETATM   16  C16 UNL     1      34.672  43.947  16.318  1.00  0.00     0.001 C 
HETATM   17  C17 UNL     1      36.000  43.303  16.007  1.00  0.00     0.008 C 
HETATM   18  C18 UNL     1      36.831  44.369  15.275  1.00  0.00     0.033 C 
HETATM   19  C19 UNL     1      36.980  45.518  16.245  1.00  0.00     0.132 C 
HETATM   20  C32 UNL     1      35.626  46.133  16.581  1.00  0.00     0.042 C 
ENDROOT
BRANCH  19  21
HETATM   21  O3  UNL     1      37.846  46.528  15.779  1.00  0.00    -0.316 OA
BRANCH  21  22
HETATM   22  C20 UNL     1      38.896  47.039  16.565  1.00  0.00     0.259 C 
HETATM   23  O4  UNL     1      39.322  48.156  16.190  1.00  0.00    -0.265 OA
BRANCH  22  24
HETATM   24  C21 UNL     1      39.444  46.334  17.718  1.00  0.00     0.111 C 
BRANCH  24  25
HETATM   25  C22 UNL     1      40.817  46.812  18.108  1.00  0.00     0.010 C 
BRANCH  25  26
HETATM   26  C23 UNL     1      41.427  46.138  19.283  1.00  0.00     0.010 C 
BRANCH  26  27
HETATM   27  C24 UNL     1      40.808  44.794  19.610  1.00  0.00     0.111 C 
BRANCH  27  28
HETATM   28  C25 UNL     1      40.311  44.754  21.011  1.00  0.00     0.264 C 
HETATM   29  O5  UNL     1      41.068  44.470  21.964  1.00  0.00    -0.265 OA
BRANCH  28  30
HETATM   30  O6  UNL     1      38.976  45.033  21.317  1.00  0.00    -0.277 OA
BRANCH  30  31
HETATM   31  C26 UNL     1      38.357  44.430  22.398  1.00  0.00     0.101 A 
HETATM   32  C27 UNL     1      37.785  43.182  22.273  1.00  0.00     0.041 A 
HETATM   33  C28 UNL     1      37.158  42.556  23.345  1.00  0.00     0.029 A 
HETATM   34  C29 UNL     1      37.111  43.215  24.570  1.00  0.00     0.048 A 
HETATM   35  N1  UNL     1      36.473  42.578  25.662  1.00  0.00    -0.102 NA
HETATM   36  C30 UNL     1      37.680  44.466  24.707  1.00  0.00     0.053 A 
HETATM   37  C31 UNL     1      38.302  45.070  23.616  1.00  0.00     0.069 A 
HETATM   38 CL1  UNL     1      39.036  46.652  23.742  1.00  0.00    -0.081 Cl
ENDBRANCH  30  31
ENDBRANCH  28  30
ENDBRANCH  27  28
ENDBRANCH  26  27
ENDBRANCH  25  26
ENDBRANCH  24  25
ENDBRANCH  22  24
ENDBRANCH  21  22
ENDBRANCH  19  21
BRANCH   7  39
HETATM   39  O1  UNL     1      34.838  41.717  18.065  1.00  0.00    -0.395 OA
ATOM     40  H1  UNL     1      35.236  42.417  18.569  1.00  0.00     0.210 HD
ENDBRANCH   7  39
BRANCH  11  41
HETATM   41  O2  UNL     1      28.328  41.062  17.917  1.00  0.00    -0.396 OA
ATOM     42  H2  UNL     1      28.120  41.906  17.532  1.00  0.00     0.210 HD
ENDBRANCH  11  41
TORSDOF 11
ENDMDL
MODEL 5
REMARK VINA RESULT: -10.226515572      3.818      9.989
REMARK  11 active torsions:
REMARK  status: ('A' for Active; 'I' for Inactive)
REMARK    1  A    between atoms: C7_7  and  O1_8 
REMARK    2  A    between atoms: C11_13  and  O2_14 
REMARK    3  A    between atoms: C19_23  and  O3_24 
REMARK    4  A    between atoms: O3_24  and  C20_25 
REMARK    5  A    between atoms: C20_25  and  C21_27 
REMARK    6  A    between atoms: C21_27  and  C22_28 
REMARK    7  A    between atoms: C22_28  and  C23_29 
REMARK    8  A    between atoms: C23_29  and  C24_30 
REMARK    9  A    between atoms: C24_30  and  C25_31 
REMARK   10  A    between atoms: C25_31  and  O6_33 
REMARK   11  A    between atoms: O6_33  and  C26_34 
ROOT
HETATM    1  C1  UNL     1      35.542  42.055  18.655  1.00  0.00     0.015 C 
HETATM    2  C2  UNL     1      34.914  42.797  17.517  1.00  0.00    -0.038 C 
HETATM    3  C3  UNL     1      35.731  42.576  16.286  1.00  0.00     0.010 C 
HETATM    4  C4  UNL     1      36.073  43.713  15.436  1.00  0.00     0.007 C 
HETATM    5  C5  UNL     1      36.118  45.080  16.017  1.00  0.00     0.001 C 
HETATM    6  C6  UNL     1      35.731  45.215  17.454  1.00  0.00     0.024 C 
HETATM    7  C7  UNL     1      36.857  45.317  18.401  1.00  0.00     0.123 C 
HETATM    8  C8  UNL     1      38.188  44.765  17.872  1.00  0.00     0.037 C 
HETATM    9  C9  UNL     1      38.546  45.489  16.604  1.00  0.00    -0.001 C 
HETATM   10  C10 UNL     1      39.426  46.647  16.989  1.00  0.00     0.037 C 
HETATM   11  C11 UNL     1      39.548  47.714  15.973  1.00  0.00     0.118 C 
HETATM   12  C12 UNL     1      38.261  48.173  15.381  1.00  0.00     0.032 C 
HETATM   13  C13 UNL     1      37.084  47.322  15.709  1.00  0.00     0.012 C 
HETATM   14  C14 UNL     1      37.419  45.827  15.715  1.00  0.00    -0.036 C 
HETATM   15  C15 UNL     1      37.751  45.501  14.252  1.00  0.00     0.016 C 
HETATM   16  C16 UNL     1      34.639  44.232  17.741  1.00  0.00     0.001 C 
HETATM   17  C17 UNL     1      33.869  44.517  19.006  1.00  0.00     0.008 C 
HETATM   18  C18 UNL     1      32.476  43.897  18.807  1.00  0.00     0.033 C 
HETATM   19  C19 UNL     1      32.705  42.415  18.613  1.00  0.00     0.132 C 
HETATM   20  C32 UNL     1      33.520  42.145  17.353  1.00  0.00     0.042 C 
ENDROOT
BRANCH  19  21
HETATM   21  O3  UNL     1      31.509  41.672  18.561  1.00  0.00    -0.316 OA
BRANCH  21  22
HETATM   22  C20 UNL     1      31.451  40.316  18.937  1.00  0.00     0.259 C 
HETATM   23  O4  UNL     1      32.285  39.989  19.813  1.00  0.00    -0.265 OA
BRANCH  22  24
HETATM   24  C21 UNL     1      30.505  39.368  18.358  1.00  0.00     0.111 C 
BRANCH  24  25
HETATM   25  C22 UNL     1      29.539  38.805  19.365  1.00  0.00     0.010 C 
BRANCH  25  26
HETATM   26  C23 UNL     1      28.102  39.077  19.103  1.00  0.00     0.010 C 
BRANCH  26  27
HETATM   27  C24 UNL     1      27.845  40.380  18.375  1.00  0.00     0.111 C 
BRANCH  27  28
HETATM   28  C25 UNL     1      27.078  40.156  17.121  1.00  0.00     0.264 C 
HETATM   29  O5  UNL     1      26.117  39.358  17.078  1.00  0.00    -0.265 OA
BRANCH  28  30
HETATM   30  O6  UNL     1      27.402  40.831  15.940  1.00  0.00    -0.277 OA
BRANCH  30  31
HETATM   31  C26 UNL     1      28.159  41.989  15.971  1.00  0.00     0.101 A 
HETATM   32  C27 UNL     1      29.530  41.934  15.847  1.00  0.00     0.041 A 
HETATM   33  C28 UNL     1      30.312  43.084  15.875  1.00  0.00     0.029 A 
HETATM   34  C29 UNL     1      29.684  44.316  16.034  1.00  0.00     0.048 A 
HETATM   35  N1  UNL     1      30.480  45.487  16.063  1.00  0.00    -0.102 NA
HETATM   36  C30 UNL     1      28.311  44.384  16.160  1.00  0.00     0.053 A 
HETATM   37  C31 UNL     1      27.552  43.215  16.128  1.00  0.00     0.069 A 
HETATM   38 CL1  UNL     1      25.810  43.251  16.283  1.00  0.00    -0.081 Cl
ENDBRANCH  30  31
ENDBRANCH  28  30
ENDBRANCH  27  28
ENDBRANCH  26  27
ENDBRANCH  25  26
ENDBRANCH  24  25
ENDBRANCH  22  24
ENDBRANCH  21  22
ENDBRANCH  19  21
BRANCH   7  39
HETATM   39  O1  UNL     1      36.612  44.853  19.683  1.00  0.00    -0.395 OA
ATOM     40  H1  UNL     1      36.833  45.449  20.389  1.00  0.00     0.210 HD
ENDBRANCH   7  39
BRANCH  11  41
HETATM   41  O2  UNL     1      40.487  47.321  15.022  1.00  0.00    -0.396 OA
ATOM     42  H2  UNL     1      41.319  47.176  15.457  1.00  0.00     0.210 HD
ENDBRANCH  11  41
TORSDOF 11
ENDMDL
