MODEL 1
REMARK VINA RESULT: -8.314364239      0.000      0.000
REMARK  8 active torsions:
REMARK  status: ('A' for Active; 'I' for Inactive)
REMARK    1  A    between atoms: C4_4  and  C5_5 
REMARK    2  A    between atoms: C5_5  and  N1_6 
REMARK    3  A    between atoms: C6_7  and  N2_8 
REMARK    4  A    between atoms: C7_11  and  C8_12 
REMARK       I    between atoms: C8_12  and  N3_14 
REMARK    5  A    between atoms: N3_14  and  C9_16 
REMARK    6  A    between atoms: C9_16  and  C10_17 
REMARK    7  A    between atoms: C10_17  and  N4_18 
REMARK    8  A    between atoms: C13_21  and  O2_22 
ROOT
HETATM    1  N1  UNL     1      -5.701 -25.052  23.836  1.00  0.00    -0.322 N 
HETATM    2  C6  UNL     1      -4.478 -25.129  23.224  1.00  0.00     0.121 A 
HETATM    3  C7  UNL     1      -4.132 -24.040  22.407  1.00  0.00     0.109 A 
HETATM    4  C13 UNL     1      -4.975 -22.944  22.225  1.00  0.00     0.098 A 
HETATM    5  C14 UNL     1      -6.229 -22.924  22.889  1.00  0.00     0.039 A 
HETATM    6  C15 UNL     1      -7.158 -21.924  22.840  1.00  0.00    -0.040 A 
HETATM    7  C16 UNL     1      -7.027 -20.641  22.027  1.00  0.00     0.049 C 
HETATM    8  C17 UNL     1      -8.292 -22.107  23.586  1.00  0.00     0.059 A 
HETATM    9  S1  UNL     1      -8.052 -23.619  24.318  1.00  0.00    -0.083 SA
HETATM   10  C18 UNL     1      -6.512 -23.991  23.658  1.00  0.00     0.091 A 
ENDROOT
BRANCH   3  11
HETATM   11  C8  UNL     1      -2.838 -24.106  21.749  1.00  0.00     0.258 C 
HETATM   12  O1  UNL     1      -1.808 -23.990  22.517  1.00  0.00    -0.267 OA
HETATM   13  N3  UNL     1      -2.530 -24.278  20.392  1.00  0.00    -0.355 N 
ATOM     14  H3  UNL     1      -3.295 -24.383  19.725  1.00  0.00     0.162 HD
BRANCH  13  15
HETATM   15  C9  UNL     1      -1.156 -24.314  19.895  1.00  0.00     0.153 C 
BRANCH  15  16
HETATM   16  C10 UNL     1      -0.725 -22.989  19.352  1.00  0.00     0.291 C 
BRANCH  16  17
HETATM   17  N4  UNL     1      -1.668 -22.567  18.308  1.00  0.00     0.081 N 
HETATM   18  C11 UNL     1      -2.316 -21.319  18.723  1.00  0.00     0.309 C 
HETATM   19  C12 UNL     1      -0.913 -22.253  17.109  1.00  0.00     0.309 C 
ENDBRANCH  16  17
ENDBRANCH  15  16
ENDBRANCH  13  15
ENDBRANCH   3  11
BRANCH   2  20
HETATM   20  N2  UNL     1      -3.789 -26.104  23.433  1.00  0.00    -0.384 N 
ATOM     21  H22 UNL     1      -4.066 -26.924  23.972  1.00  0.00     0.157 HD
ATOM     22  H21 UNL     1      -2.851 -26.128  23.035  1.00  0.00     0.157 HD
ENDBRANCH   2  20
BRANCH   4  23
HETATM   23  O2  UNL     1      -4.582 -21.950  21.437  1.00  0.00    -0.359 OA
ATOM     24  H2  UNL     1      -5.164 -21.646  20.750  1.00  0.00     0.217 HD
ENDBRANCH   4  23
BRANCH   1  25
HETATM   25  C5  UNL     1      -6.112 -26.103  24.710  1.00  0.00     0.170 C 
BRANCH  25  26
HETATM   26  C4  UNL     1      -5.354 -26.166  26.024  1.00  0.00    -0.032 A 
HETATM   27  C3  UNL     1      -5.679 -25.357  27.068  1.00  0.00     0.023 A 
HETATM   28  C2  UNL     1      -4.939 -25.472  28.208  1.00  0.00    -0.021 A 
HETATM   29  C1  UNL     1      -5.102 -24.693  29.492  1.00  0.00     0.056 C 
HETATM   30  S2  UNL     1      -3.819 -26.683  27.830  1.00  0.00    -0.106 SA
HETATM   31  C19 UNL     1      -4.316 -27.023  26.217  1.00  0.00     0.058 A 
ENDBRANCH  25  26
ENDBRANCH   1  25
TORSDOF 8
ENDMDL
MODEL 2
REMARK VINA RESULT: -8.142540354      0.953      1.155
REMARK  8 active torsions:
REMARK  status: ('A' for Active; 'I' for Inactive)
REMARK    1  A    between atoms: C4_4  and  C5_5 
REMARK    2  A    between atoms: C5_5  and  N1_6 
REMARK    3  A    between atoms: C6_7  and  N2_8 
REMARK    4  A    between atoms: C7_11  and  C8_12 
REMARK       I    between atoms: C8_12  and  N3_14 
REMARK    5  A    between atoms: N3_14  and  C9_16 
REMARK    6  A    between atoms: C9_16  and  C10_17 
REMARK    7  A    between atoms: C10_17  and  N4_18 
REMARK    8  A    between atoms: C13_21  and  O2_22 
ROOT
HETATM    1  N1  UNL     1      -5.641 -24.860  23.565  1.00  0.00    -0.322 N 
HETATM    2  C6  UNL     1      -4.548 -24.636  22.771  1.00  0.00     0.121 A 
HETATM    3  C7  UNL     1      -4.533 -23.414  22.079  1.00  0.00     0.109 A 
HETATM    4  C13 UNL     1      -5.563 -22.479  22.189  1.00  0.00     0.098 A 
HETATM    5  C14 UNL     1      -6.668 -22.771  23.030  1.00  0.00     0.039 A 
HETATM    6  C15 UNL     1      -7.742 -21.962  23.268  1.00  0.00    -0.040 A 
HETATM    7  C16 UNL     1      -7.968 -20.591  22.641  1.00  0.00     0.049 C 
HETATM    8  C17 UNL     1      -8.683 -22.438  24.142  1.00  0.00     0.059 A 
HETATM    9  S1  UNL     1      -8.075 -23.955  24.601  1.00  0.00    -0.083 SA
HETATM   10  C18 UNL     1      -6.634 -23.954  23.669  1.00  0.00     0.091 A 
ENDROOT
BRANCH   3  11
HETATM   11  C8  UNL     1      -3.381 -23.161  21.231  1.00  0.00     0.258 C 
HETATM   12  O1  UNL     1      -2.251 -23.026  21.840  1.00  0.00    -0.267 OA
HETATM   13  N3  UNL     1      -3.304 -23.040  19.836  1.00  0.00    -0.355 N 
ATOM     14  H3  UNL     1      -4.158 -23.141  19.288  1.00  0.00     0.162 HD
BRANCH  13  15
HETATM   15  C9  UNL     1      -2.048 -22.774  19.137  1.00  0.00     0.153 C 
BRANCH  15  16
HETATM   16  C10 UNL     1      -2.043 -21.424  18.493  1.00  0.00     0.291 C 
BRANCH  16  17
HETATM   17  N4  UNL     1      -0.756 -21.219  17.816  1.00  0.00     0.081 N 
HETATM   18  C11 UNL     1       0.005 -22.472  17.841  1.00  0.00     0.309 C 
HETATM   19  C12 UNL     1      -1.017 -20.931  16.417  1.00  0.00     0.309 C 
ENDBRANCH  16  17
ENDBRANCH  15  16
ENDBRANCH  13  15
ENDBRANCH   3  11
BRANCH   2  20
HETATM   20  N2  UNL     1      -3.683 -25.484  22.729  1.00  0.00    -0.384 N 
ATOM     21  H22 UNL     1      -2.687 -25.313  22.598  1.00  0.00     0.157 HD
ATOM     22  H21 UNL     1      -3.957 -26.460  22.842  1.00  0.00     0.157 HD
ENDBRANCH   2  20
BRANCH   4  23
HETATM   23  O2  UNL     1      -5.482 -21.345  21.504  1.00  0.00    -0.359 OA
ATOM     24  H2  UNL     1      -4.868 -20.676  21.787  1.00  0.00     0.217 HD
ENDBRANCH   4  23
BRANCH   1  25
HETATM   25  C5  UNL     1      -5.716 -26.064  24.329  1.00  0.00     0.170 C 
BRANCH  25  26
HETATM   26  C4  UNL     1      -4.954 -26.029  25.641  1.00  0.00    -0.032 A 
HETATM   27  C3  UNL     1      -5.511 -25.512  26.769  1.00  0.00     0.023 A 
HETATM   28  C2  UNL     1      -4.752 -25.511  27.903  1.00  0.00    -0.021 A 
HETATM   29  C1  UNL     1      -5.142 -24.996  29.269  1.00  0.00     0.056 C 
HETATM   30  S2  UNL     1      -3.298 -26.217  27.403  1.00  0.00    -0.106 SA
HETATM   31  C19 UNL     1      -3.684 -26.502  25.751  1.00  0.00     0.058 A 
ENDBRANCH  25  26
ENDBRANCH   1  25
TORSDOF 8
ENDMDL
MODEL 3
REMARK VINA RESULT: -7.906566374      1.098      1.488
REMARK  8 active torsions:
REMARK  status: ('A' for Active; 'I' for Inactive)
REMARK    1  A    between atoms: C4_4  and  C5_5 
REMARK    2  A    between atoms: C5_5  and  N1_6 
REMARK    3  A    between atoms: C6_7  and  N2_8 
REMARK    4  A    between atoms: C7_11  and  C8_12 
REMARK       I    between atoms: C8_12  and  N3_14 
REMARK    5  A    between atoms: N3_14  and  C9_16 
REMARK    6  A    between atoms: C9_16  and  C10_17 
REMARK    7  A    between atoms: C10_17  and  N4_18 
REMARK    8  A    between atoms: C13_21  and  O2_22 
ROOT
HETATM    1  N1  UNL     1      -5.617 -24.832  23.554  1.00  0.00    -0.322 N 
HETATM    2  C6  UNL     1      -4.487 -24.651  22.800  1.00  0.00     0.121 A 
HETATM    3  C7  UNL     1      -4.415 -23.446  22.082  1.00  0.00     0.109 A 
HETATM    4  C13 UNL     1      -5.426 -22.486  22.128  1.00  0.00     0.098 A 
HETATM    5  C14 UNL     1      -6.571 -22.733  22.930  1.00  0.00     0.039 A 
HETATM    6  C15 UNL     1      -7.635 -21.894  23.105  1.00  0.00    -0.040 A 
HETATM    7  C16 UNL     1      -7.802 -20.534  22.438  1.00  0.00     0.049 C 
HETATM    8  C17 UNL     1      -8.622 -22.328  23.950  1.00  0.00     0.059 A 
HETATM    9  S1  UNL     1      -8.069 -23.847  24.467  1.00  0.00    -0.083 SA
HETATM   10  C18 UNL     1      -6.591 -23.902  23.596  1.00  0.00     0.091 A 
ENDROOT
BRANCH   3  11
HETATM   11  C8  UNL     1      -3.224 -23.240  21.277  1.00  0.00     0.258 C 
HETATM   12  O1  UNL     1      -2.115 -23.134  21.928  1.00  0.00    -0.267 OA
HETATM   13  N3  UNL     1      -3.089 -23.137  19.885  1.00  0.00    -0.355 N 
ATOM     14  H3  UNL     1      -3.924 -23.217  19.305  1.00  0.00     0.162 HD
BRANCH  13  15
HETATM   15  C9  UNL     1      -1.799 -22.919  19.233  1.00  0.00     0.153 C 
BRANCH  15  16
HETATM   16  C10 UNL     1      -1.845 -21.771  18.276  1.00  0.00     0.291 C 
BRANCH  16  17
HETATM   17  N4  UNL     1      -0.965 -22.059  17.136  1.00  0.00     0.081 N 
HETATM   18  C11 UNL     1      -0.648 -20.805  16.446  1.00  0.00     0.309 C 
HETATM   19  C12 UNL     1       0.294 -22.570  17.648  1.00  0.00     0.309 C 
ENDBRANCH  16  17
ENDBRANCH  15  16
ENDBRANCH  13  15
ENDBRANCH   3  11
BRANCH   2  20
HETATM   20  N2  UNL     1      -3.642 -25.520  22.813  1.00  0.00    -0.384 N 
ATOM     21  H22 UNL     1      -3.790 -26.499  22.571  1.00  0.00     0.157 HD
ATOM     22  H21 UNL     1      -2.691 -25.265  23.078  1.00  0.00     0.157 HD
ENDBRANCH   2  20
BRANCH   4  23
HETATM   23  O2  UNL     1      -5.290 -21.371  21.422  1.00  0.00    -0.359 OA
ATOM     24  H2  UNL     1      -4.806 -21.396  20.604  1.00  0.00     0.217 HD
ENDBRANCH   4  23
BRANCH   1  25
HETATM   25  C5  UNL     1      -5.752 -26.015  24.340  1.00  0.00     0.170 C 
BRANCH  25  26
HETATM   26  C4  UNL     1      -5.168 -25.916  25.738  1.00  0.00    -0.032 A 
HETATM   27  C3  UNL     1      -3.881 -26.274  25.995  1.00  0.00     0.023 A 
HETATM   28  C2  UNL     1      -3.442 -26.164  27.281  1.00  0.00    -0.021 A 
HETATM   29  C1  UNL     1      -2.068 -26.496  27.815  1.00  0.00     0.056 C 
HETATM   30  S2  UNL     1      -4.794 -25.574  28.110  1.00  0.00    -0.106 SA
HETATM   31  C19 UNL     1      -5.901 -25.477  26.796  1.00  0.00     0.058 A 
ENDBRANCH  25  26
ENDBRANCH   1  25
TORSDOF 8
ENDMDL
MODEL 4
REMARK VINA RESULT: -7.873790459      1.190      1.622
REMARK  8 active torsions:
REMARK  status: ('A' for Active; 'I' for Inactive)
REMARK    1  A    between atoms: C4_4  and  C5_5 
REMARK    2  A    between atoms: C5_5  and  N1_6 
REMARK    3  A    between atoms: C6_7  and  N2_8 
REMARK    4  A    between atoms: C7_11  and  C8_12 
REMARK       I    between atoms: C8_12  and  N3_14 
REMARK    5  A    between atoms: N3_14  and  C9_16 
REMARK    6  A    between atoms: C9_16  and  C10_17 
REMARK    7  A    between atoms: C10_17  and  N4_18 
REMARK    8  A    between atoms: C13_21  and  O2_22 
ROOT
HETATM    1  N1  UNL     1      -5.704 -24.980  23.726  1.00  0.00    -0.322 N 
HETATM    2  C6  UNL     1      -4.514 -24.880  23.055  1.00  0.00     0.121 A 
HETATM    3  C7  UNL     1      -4.320 -23.696  22.325  1.00  0.00     0.109 A 
HETATM    4  C13 UNL     1      -5.274 -22.679  22.281  1.00  0.00     0.098 A 
HETATM    5  C14 UNL     1      -6.486 -22.843  23.000  1.00  0.00     0.039 A 
HETATM    6  C15 UNL     1      -7.509 -21.942  23.083  1.00  0.00    -0.040 A 
HETATM    7  C16 UNL     1      -7.547 -20.587  22.384  1.00  0.00     0.049 C 
HETATM    8  C17 UNL     1      -8.578 -22.301  23.861  1.00  0.00     0.059 A 
HETATM    9  S1  UNL     1      -8.153 -23.839  24.442  1.00  0.00    -0.083 SA
HETATM   10  C18 UNL     1      -6.623 -23.995  23.682  1.00  0.00     0.091 A 
ENDROOT
BRANCH   3  11
HETATM   11  C8  UNL     1      -3.064 -23.574  21.605  1.00  0.00     0.258 C 
HETATM   12  O1  UNL     1      -2.307 -22.588  21.955  1.00  0.00    -0.267 OA
HETATM   13  N3  UNL     1      -2.538 -24.370  20.578  1.00  0.00    -0.355 N 
ATOM     14  H3  UNL     1      -3.079 -25.172  20.254  1.00  0.00     0.162 HD
BRANCH  13  15
HETATM   15  C9  UNL     1      -1.245 -24.097  19.953  1.00  0.00     0.153 C 
BRANCH  15  16
HETATM   16  C10 UNL     1      -0.133 -24.835  20.627  1.00  0.00     0.291 C 
BRANCH  16  17
HETATM   17  N4  UNL     1       0.997 -23.919  20.833  1.00  0.00     0.081 N 
HETATM   18  C11 UNL     1       0.730 -22.661  20.130  1.00  0.00     0.309 C 
HETATM   19  C12 UNL     1       1.066 -23.588  22.245  1.00  0.00     0.309 C 
ENDBRANCH  16  17
ENDBRANCH  15  16
ENDBRANCH  13  15
ENDBRANCH   3  11
BRANCH   2  20
HETATM   20  N2  UNL     1      -3.725 -25.794  23.143  1.00  0.00    -0.384 N 
ATOM     21  H22 UNL     1      -2.990 -25.881  23.845  1.00  0.00     0.157 HD
ATOM     22  H21 UNL     1      -3.791 -26.558  22.471  1.00  0.00     0.157 HD
ENDBRANCH   2  20
BRANCH   4  23
HETATM   23  O2  UNL     1      -5.022 -21.587  21.569  1.00  0.00    -0.359 OA
ATOM     24  H2  UNL     1      -5.684 -20.908  21.513  1.00  0.00     0.217 HD
ENDBRANCH   4  23
BRANCH   1  25
HETATM   25  C5  UNL     1      -5.964 -26.137  24.520  1.00  0.00     0.170 C 
BRANCH  25  26
HETATM   26  C4  UNL     1      -5.223 -26.177  25.844  1.00  0.00    -0.032 A 
HETATM   27  C3  UNL     1      -5.623 -25.419  26.901  1.00  0.00     0.023 A 
HETATM   28  C2  UNL     1      -4.893 -25.507  28.050  1.00  0.00    -0.021 A 
HETATM   29  C1  UNL     1      -5.132 -24.773  29.349  1.00  0.00     0.056 C 
HETATM   30  S2  UNL     1      -3.680 -26.622  27.662  1.00  0.00    -0.106 SA
HETATM   31  C19 UNL     1      -4.126 -26.958  26.034  1.00  0.00     0.058 A 
ENDBRANCH  25  26
ENDBRANCH   1  25
TORSDOF 8
ENDMDL
MODEL 5
REMARK VINA RESULT: -7.781199811      2.818      4.096
REMARK  8 active torsions:
REMARK  status: ('A' for Active; 'I' for Inactive)
REMARK    1  A    between atoms: C4_4  and  C5_5 
REMARK    2  A    between atoms: C5_5  and  N1_6 
REMARK    3  A    between atoms: C6_7  and  N2_8 
REMARK    4  A    between atoms: C7_11  and  C8_12 
REMARK       I    between atoms: C8_12  and  N3_14 
REMARK    5  A    between atoms: N3_14  and  C9_16 
REMARK    6  A    between atoms: C9_16  and  C10_17 
REMARK    7  A    between atoms: C10_17  and  N4_18 
REMARK    8  A    between atoms: C13_21  and  O2_22 
ROOT
HETATM    1  N1  UNL     1      -6.947 -21.403  22.568  1.00  0.00    -0.322 N 
HETATM    2  C6  UNL     1      -5.750 -21.240  21.922  1.00  0.00     0.121 A 
HETATM    3  C7  UNL     1      -5.815 -20.636  20.656  1.00  0.00     0.109 A 
HETATM    4  C13 UNL     1      -7.018 -20.223  20.084  1.00  0.00     0.098 A 
HETATM    5  C14 UNL     1      -8.224 -20.420  20.807  1.00  0.00     0.039 A 
HETATM    6  C15 UNL     1      -9.478 -20.055  20.407  1.00  0.00    -0.040 A 
HETATM    7  C16 UNL     1      -9.819 -19.388  19.079  1.00  0.00     0.049 C 
HETATM    8  C17 UNL     1     -10.499 -20.319  21.281  1.00  0.00     0.059 A 
HETATM    9  S1  UNL     1      -9.719 -21.047  22.601  1.00  0.00    -0.083 SA
HETATM   10  C18 UNL     1      -8.107 -21.003  22.013  1.00  0.00     0.091 A 
ENDROOT
BRANCH   3  11
HETATM   11  C8  UNL     1      -4.555 -20.456  19.955  1.00  0.00     0.258 C 
HETATM   12  O1  UNL     1      -3.830 -19.462  20.345  1.00  0.00    -0.267 OA
HETATM   13  N3  UNL     1      -3.995 -21.205  18.910  1.00  0.00    -0.355 N 
ATOM     14  H3  UNL     1      -4.510 -22.010  18.554  1.00  0.00     0.162 HD
BRANCH  13  15
HETATM   15  C9  UNL     1      -2.704 -20.876  18.309  1.00  0.00     0.153 C 
BRANCH  15  16
HETATM   16  C10 UNL     1      -1.716 -21.986  18.470  1.00  0.00     0.291 C 
BRANCH  16  17
HETATM   17  N4  UNL     1      -1.736 -22.450  19.864  1.00  0.00     0.081 N 
HETATM   18  C11 UNL     1      -1.258 -23.835  19.915  1.00  0.00     0.309 C 
HETATM   19  C12 UNL     1      -0.781 -21.663  20.622  1.00  0.00     0.309 C 
ENDBRANCH  16  17
ENDBRANCH  15  16
ENDBRANCH  13  15
ENDBRANCH   3  11
BRANCH   2  20
HETATM   20  N2  UNL     1      -4.740 -21.610  22.479  1.00  0.00    -0.384 N 
ATOM     21  H22 UNL     1      -4.014 -21.005  22.861  1.00  0.00     0.157 HD
ATOM     22  H21 UNL     1      -4.589 -22.612  22.592  1.00  0.00     0.157 HD
ENDBRANCH   2  20
BRANCH   4  23
HETATM   23  O2  UNL     1      -7.004 -19.660  18.883  1.00  0.00    -0.359 OA
ATOM     24  H2  UNL     1      -7.548 -18.897  18.722  1.00  0.00     0.217 HD
ENDBRANCH   4  23
BRANCH   1  25
HETATM   25  C5  UNL     1      -6.963 -21.978  23.875  1.00  0.00     0.170 C 
BRANCH  25  26
HETATM   26  C4  UNL     1      -6.857 -23.492  23.902  1.00  0.00    -0.032 A 
HETATM   27  C3  UNL     1      -5.649 -24.118  23.894  1.00  0.00     0.023 A 
HETATM   28  C2  UNL     1      -5.646 -25.482  23.909  1.00  0.00    -0.021 A 
HETATM   29  C1  UNL     1      -4.445 -26.398  23.904  1.00  0.00     0.056 C 
HETATM   30  S2  UNL     1      -7.291 -25.879  23.934  1.00  0.00    -0.106 SA
HETATM   31  C19 UNL     1      -7.957 -24.292  23.926  1.00  0.00     0.058 A 
ENDBRANCH  25  26
ENDBRANCH   1  25
TORSDOF 8
ENDMDL
