MODEL 1
REMARK VINA RESULT: -8.453801313      0.000      0.000
REMARK  10 active torsions:
REMARK  status: ('A' for Active; 'I' for Inactive)
REMARK    1  A    between atoms: C5_5  and  O1_6 
REMARK    2  A    between atoms: O1_6  and  C6_7 
REMARK    3  A    between atoms: C6_7  and  C7_9 
REMARK    4  A    between atoms: C7_9  and  C10_12 
REMARK    5  A    between atoms: C10_12  and  C11_13 
REMARK    6  A    between atoms: C11_13  and  C12_14 
REMARK    7  A    between atoms: C12_14  and  O3_15 
REMARK    8  A    between atoms: C12_14  and  C13_17 
REMARK    9  A    between atoms: C13_17  and  O4_20 
REMARK   10  A    between atoms: C21_28  and  O5_29 
ROOT
HETATM    1  C1  UNL     1      -9.679 -19.458  20.213  1.00  0.00     0.046 C 
HETATM    2  C2  UNL     1      -8.812 -19.954  21.382  1.00  0.00     0.063 C 
HETATM    3  C3  UNL     1      -8.750 -18.876  22.458  1.00  0.00     0.046 C 
HETATM    4  C4  UNL     1      -7.445 -20.217  20.883  1.00  0.00     0.075 C 
HETATM    5  C5  UNL     1      -6.852 -21.556  21.247  1.00  0.00     0.170 C 
HETATM    6  C16 UNL     1      -7.508 -22.176  22.412  1.00  0.00     0.009 A 
HETATM    7  C17 UNL     1      -6.792 -23.026  23.212  1.00  0.00     0.035 A 
HETATM    8  C18 UNL     1      -7.350 -23.651  24.335  1.00  0.00     0.048 A 
HETATM    9  C19 UNL     1      -6.598 -24.539  25.170  1.00  0.00     0.099 C 
HETATM   10  N1  UNL     1      -5.989 -25.246  25.863  1.00  0.00    -0.191 NA
HETATM   11  C20 UNL     1      -8.664 -23.401  24.645  1.00  0.00     0.062 A 
HETATM   12  C21 UNL     1      -9.397 -22.541  23.840  1.00  0.00     0.101 A 
HETATM   13  C22 UNL     1      -8.834 -21.931  22.735  1.00  0.00     0.111 A 
HETATM   14  O6  UNL     1      -9.504 -21.070  21.898  1.00  0.00    -0.337 OA
ENDROOT
BRANCH  12  15
HETATM   15  O5  UNL     1     -10.734 -22.275  24.138  1.00  0.00    -0.358 OA
ATOM     16  H5  UNL     1     -11.282 -22.956  24.509  1.00  0.00     0.217 HD
ENDBRANCH  12  15
BRANCH   5  17
HETATM   17  O1  UNL     1      -5.475 -21.456  21.515  1.00  0.00    -0.310 OA
BRANCH  17  18
HETATM   18  C6  UNL     1      -4.500 -22.077  20.753  1.00  0.00     0.267 C 
HETATM   19  O2  UNL     1      -4.583 -23.326  20.657  1.00  0.00    -0.264 OA
BRANCH  18  20
HETATM   20  C7  UNL     1      -3.391 -21.389  20.055  1.00  0.00     0.041 C 
HETATM   21  C8  UNL     1      -3.985 -20.425  19.036  1.00  0.00     0.025 C 
HETATM   22  C9  UNL     1      -2.642 -20.593  21.088  1.00  0.00     0.025 C 
BRANCH  20  23
HETATM   23  C10 UNL     1      -2.570 -22.392  19.338  1.00  0.00     0.022 C 
BRANCH  23  24
HETATM   24  C11 UNL     1      -1.185 -22.587  19.878  1.00  0.00     0.036 C 
BRANCH  24  25
HETATM   25  C12 UNL     1      -1.059 -24.010  20.378  1.00  0.00     0.151 C 
BRANCH  25  26
HETATM   26  O3  UNL     1      -2.192 -24.762  20.166  1.00  0.00    -0.393 OA
ATOM     27  H3  UNL     1      -2.013 -25.691  20.076  1.00  0.00     0.210 HD
ENDBRANCH  25  26
BRANCH  25  28
HETATM   28  C13 UNL     1      -0.634 -24.051  21.831  1.00  0.00     0.076 C 
HETATM   29  C14 UNL     1       0.326 -22.899  22.092  1.00  0.00     0.048 C 
HETATM   30  C15 UNL     1      -1.809 -23.878  22.747  1.00  0.00     0.048 C 
BRANCH  28  31
HETATM   31  O4  UNL     1       0.053 -25.229  22.102  1.00  0.00    -0.388 OA
ATOM     32  H4  UNL     1      -0.497 -25.829  22.593  1.00  0.00     0.210 HD
ENDBRANCH  28  31
ENDBRANCH  25  28
ENDBRANCH  24  25
ENDBRANCH  23  24
ENDBRANCH  20  23
ENDBRANCH  18  20
ENDBRANCH  17  18
ENDBRANCH   5  17
TORSDOF 10
ENDMDL
MODEL 2
REMARK VINA RESULT: -8.363060186      2.060      2.977
REMARK  10 active torsions:
REMARK  status: ('A' for Active; 'I' for Inactive)
REMARK    1  A    between atoms: C5_5  and  O1_6 
REMARK    2  A    between atoms: O1_6  and  C6_7 
REMARK    3  A    between atoms: C6_7  and  C7_9 
REMARK    4  A    between atoms: C7_9  and  C10_12 
REMARK    5  A    between atoms: C10_12  and  C11_13 
REMARK    6  A    between atoms: C11_13  and  C12_14 
REMARK    7  A    between atoms: C12_14  and  O3_15 
REMARK    8  A    between atoms: C12_14  and  C13_17 
REMARK    9  A    between atoms: C13_17  and  O4_20 
REMARK   10  A    between atoms: C21_28  and  O5_29 
ROOT
HETATM    1  C1  UNL     1      -9.480 -19.088  20.199  1.00  0.00     0.046 C 
HETATM    2  C2  UNL     1      -8.746 -19.619  21.442  1.00  0.00     0.063 C 
HETATM    3  C3  UNL     1      -8.943 -18.646  22.600  1.00  0.00     0.046 C 
HETATM    4  C4  UNL     1      -7.303 -19.720  21.137  1.00  0.00     0.075 C 
HETATM    5  C5  UNL     1      -6.644 -21.034  21.475  1.00  0.00     0.170 C 
HETATM    6  C16 UNL     1      -7.399 -21.814  22.473  1.00  0.00     0.009 A 
HETATM    7  C17 UNL     1      -6.727 -22.674  23.301  1.00  0.00     0.035 A 
HETATM    8  C18 UNL     1      -7.379 -23.447  24.271  1.00  0.00     0.048 A 
HETATM    9  C19 UNL     1      -6.674 -24.345  25.135  1.00  0.00     0.099 C 
HETATM   10  N1  UNL     1      -6.106 -25.063  25.852  1.00  0.00    -0.191 NA
HETATM   11  C20 UNL     1      -8.742 -23.336  24.397  1.00  0.00     0.062 A 
HETATM   12  C21 UNL     1      -9.430 -22.467  23.563  1.00  0.00     0.101 A 
HETATM   13  C22 UNL     1      -8.774 -21.711  22.610  1.00  0.00     0.111 A 
HETATM   14  O6  UNL     1      -9.396 -20.832  21.754  1.00  0.00    -0.337 OA
ENDROOT
BRANCH  12  15
HETATM   15  O5  UNL     1     -10.815 -22.342  23.676  1.00  0.00    -0.358 OA
ATOM     16  H5  UNL     1     -11.379 -22.659  22.980  1.00  0.00     0.217 HD
ENDBRANCH  12  15
BRANCH   5  17
HETATM   17  O1  UNL     1      -5.335 -20.848  21.957  1.00  0.00    -0.310 OA
BRANCH  17  18
HETATM   18  C6  UNL     1      -4.222 -20.767  21.138  1.00  0.00     0.267 C 
HETATM   19  O2  UNL     1      -4.175 -19.780  20.362  1.00  0.00    -0.264 OA
BRANCH  18  20
HETATM   20  C7  UNL     1      -3.106 -21.738  21.111  1.00  0.00     0.041 C 
HETATM   21  C8  UNL     1      -2.693 -22.041  22.545  1.00  0.00     0.025 C 
HETATM   22  C9  UNL     1      -3.631 -23.001  20.486  1.00  0.00     0.025 C 
BRANCH  20  23
HETATM   23  C10 UNL     1      -1.953 -21.135  20.402  1.00  0.00     0.022 C 
BRANCH  23  24
HETATM   24  C11 UNL     1      -1.558 -21.820  19.129  1.00  0.00     0.036 C 
BRANCH  24  25
HETATM   25  C12 UNL     1      -1.869 -20.897  17.969  1.00  0.00     0.151 C 
BRANCH  25  26
HETATM   26  O3  UNL     1      -3.209 -20.847  17.660  1.00  0.00    -0.393 OA
ATOM     27  H3  UNL     1      -3.375 -20.682  16.740  1.00  0.00     0.210 HD
ENDBRANCH  25  26
BRANCH  25  28
HETATM   28  C13 UNL     1      -1.036 -21.238  16.752  1.00  0.00     0.076 C 
HETATM   29  C14 UNL     1       0.104 -20.235  16.644  1.00  0.00     0.048 C 
HETATM   30  C15 UNL     1      -0.427 -22.604  16.872  1.00  0.00     0.048 C 
BRANCH  28  31
HETATM   31  O4  UNL     1      -1.797 -21.121  15.594  1.00  0.00    -0.388 OA
ATOM     32  H4  UNL     1      -2.193 -21.955  15.371  1.00  0.00     0.210 HD
ENDBRANCH  28  31
ENDBRANCH  25  28
ENDBRANCH  24  25
ENDBRANCH  23  24
ENDBRANCH  20  23
ENDBRANCH  18  20
ENDBRANCH  17  18
ENDBRANCH   5  17
TORSDOF 10
ENDMDL
MODEL 3
REMARK VINA RESULT: -8.265991063      1.101      1.766
REMARK  10 active torsions:
REMARK  status: ('A' for Active; 'I' for Inactive)
REMARK    1  A    between atoms: C5_5  and  O1_6 
REMARK    2  A    between atoms: O1_6  and  C6_7 
REMARK    3  A    between atoms: C6_7  and  C7_9 
REMARK    4  A    between atoms: C7_9  and  C10_12 
REMARK    5  A    between atoms: C10_12  and  C11_13 
REMARK    6  A    between atoms: C11_13  and  C12_14 
REMARK    7  A    between atoms: C12_14  and  O3_15 
REMARK    8  A    between atoms: C12_14  and  C13_17 
REMARK    9  A    between atoms: C13_17  and  O4_20 
REMARK   10  A    between atoms: C21_28  and  O5_29 
ROOT
HETATM    1  C1  UNL     1      -9.580 -19.111  20.249  1.00  0.00     0.046 C 
HETATM    2  C2  UNL     1      -8.834 -19.639  21.485  1.00  0.00     0.063 C 
HETATM    3  C3  UNL     1      -9.040 -18.677  22.650  1.00  0.00     0.046 C 
HETATM    4  C4  UNL     1      -7.391 -19.717  21.174  1.00  0.00     0.075 C 
HETATM    5  C5  UNL     1      -6.710 -21.024  21.503  1.00  0.00     0.170 C 
HETATM    6  C16 UNL     1      -7.450 -21.820  22.498  1.00  0.00     0.009 A 
HETATM    7  C17 UNL     1      -6.763 -22.676  23.318  1.00  0.00     0.035 A 
HETATM    8  C18 UNL     1      -7.400 -23.463  24.286  1.00  0.00     0.048 A 
HETATM    9  C19 UNL     1      -6.678 -24.357  25.142  1.00  0.00     0.099 C 
HETATM   10  N1  UNL     1      -6.097 -25.070  25.852  1.00  0.00    -0.191 NA
HETATM   11  C20 UNL     1      -8.763 -23.374  24.417  1.00  0.00     0.062 A 
HETATM   12  C21 UNL     1      -9.468 -22.510  23.591  1.00  0.00     0.101 A 
HETATM   13  C22 UNL     1      -8.826 -21.738  22.641  1.00  0.00     0.111 A 
HETATM   14  O6  UNL     1      -9.464 -20.864  21.792  1.00  0.00    -0.337 OA
ENDROOT
BRANCH  12  15
HETATM   15  O5  UNL     1     -10.853 -22.406  23.710  1.00  0.00    -0.358 OA
ATOM     16  H5  UNL     1     -11.368 -22.067  22.987  1.00  0.00     0.217 HD
ENDBRANCH  12  15
BRANCH   5  17
HETATM   17  O1  UNL     1      -5.403 -20.821  21.981  1.00  0.00    -0.310 OA
BRANCH  17  18
HETATM   18  C6  UNL     1      -4.292 -20.741  21.159  1.00  0.00     0.267 C 
HETATM   19  O2  UNL     1      -4.060 -19.617  20.648  1.00  0.00    -0.264 OA
BRANCH  18  20
HETATM   20  C7  UNL     1      -3.375 -21.859  20.848  1.00  0.00     0.041 C 
HETATM   21  C8  UNL     1      -4.198 -23.130  20.685  1.00  0.00     0.025 C 
HETATM   22  C9  UNL     1      -2.718 -21.541  19.533  1.00  0.00     0.025 C 
BRANCH  20  23
HETATM   23  C10 UNL     1      -2.432 -22.044  21.977  1.00  0.00     0.022 C 
BRANCH  23  24
HETATM   24  C11 UNL     1      -1.964 -23.452  22.192  1.00  0.00     0.036 C 
BRANCH  24  25
HETATM   25  C12 UNL     1      -0.491 -23.527  21.851  1.00  0.00     0.151 C 
BRANCH  25  26
HETATM   26  O3  UNL     1       0.097 -22.291  21.711  1.00  0.00    -0.393 OA
ATOM     27  H3  UNL     1       0.993 -22.264  22.027  1.00  0.00     0.210 HD
ENDBRANCH  25  26
BRANCH  25  28
HETATM   28  C13 UNL     1      -0.249 -24.393  20.632  1.00  0.00     0.076 C 
HETATM   29  C14 UNL     1       0.292 -23.517  19.510  1.00  0.00     0.048 C 
HETATM   30  C15 UNL     1       0.775 -25.454  20.912  1.00  0.00     0.048 C 
BRANCH  28  31
HETATM   31  O4  UNL     1      -1.443 -24.945  20.183  1.00  0.00    -0.388 OA
ATOM     32  H4  UNL     1      -1.288 -25.791  19.781  1.00  0.00     0.210 HD
ENDBRANCH  28  31
ENDBRANCH  25  28
ENDBRANCH  24  25
ENDBRANCH  23  24
ENDBRANCH  20  23
ENDBRANCH  18  20
ENDBRANCH  17  18
ENDBRANCH   5  17
TORSDOF 10
ENDMDL
MODEL 4
REMARK VINA RESULT: -8.155636985      2.058      2.640
REMARK  10 active torsions:
REMARK  status: ('A' for Active; 'I' for Inactive)
REMARK    1  A    between atoms: C5_5  and  O1_6 
REMARK    2  A    between atoms: O1_6  and  C6_7 
REMARK    3  A    between atoms: C6_7  and  C7_9 
REMARK    4  A    between atoms: C7_9  and  C10_12 
REMARK    5  A    between atoms: C10_12  and  C11_13 
REMARK    6  A    between atoms: C11_13  and  C12_14 
REMARK    7  A    between atoms: C12_14  and  O3_15 
REMARK    8  A    between atoms: C12_14  and  C13_17 
REMARK    9  A    between atoms: C13_17  and  O4_20 
REMARK   10  A    between atoms: C21_28  and  O5_29 
ROOT
HETATM    1  C1  UNL     1      -9.286 -19.060  19.401  1.00  0.00     0.046 C 
HETATM    2  C2  UNL     1      -8.555 -19.548  20.663  1.00  0.00     0.063 C 
HETATM    3  C3  UNL     1      -8.470 -18.407  21.671  1.00  0.00     0.046 C 
HETATM    4  C4  UNL     1      -7.187 -19.965  20.291  1.00  0.00     0.075 C 
HETATM    5  C5  UNL     1      -6.749 -21.323  20.783  1.00  0.00     0.170 C 
HETATM    6  C16 UNL     1      -7.543 -21.799  21.930  1.00  0.00     0.009 A 
HETATM    7  C17 UNL     1      -6.969 -22.651  22.837  1.00  0.00     0.035 A 
HETATM    8  C18 UNL     1      -7.663 -23.143  23.949  1.00  0.00     0.048 A 
HETATM    9  C19 UNL     1      -7.060 -24.034  24.895  1.00  0.00     0.099 C 
HETATM   10  N1  UNL     1      -6.571 -24.743  25.677  1.00  0.00    -0.191 NA
HETATM   11  C20 UNL     1      -8.967 -22.757  24.139  1.00  0.00     0.062 A 
HETATM   12  C21 UNL     1      -9.556 -21.894  23.226  1.00  0.00     0.101 A 
HETATM   13  C22 UNL     1      -8.860 -21.416  22.133  1.00  0.00     0.111 A 
HETATM   14  O6  UNL     1      -9.384 -20.559  21.193  1.00  0.00    -0.337 OA
ENDROOT
BRANCH  12  15
HETATM   15  O5  UNL     1     -10.880 -21.491  23.402  1.00  0.00    -0.358 OA
ATOM     16  H5  UNL     1     -11.246 -20.809  22.851  1.00  0.00     0.217 HD
ENDBRANCH  12  15
BRANCH   5  17
HETATM   17  O1  UNL     1      -5.392 -21.327  21.152  1.00  0.00    -0.310 OA
BRANCH  17  18
HETATM   18  C6  UNL     1      -4.429 -22.095  20.519  1.00  0.00     0.267 C 
HETATM   19  O2  UNL     1      -4.471 -22.112  19.264  1.00  0.00    -0.264 OA
BRANCH  18  20
HETATM   20  C7  UNL     1      -3.376 -22.880  21.201  1.00  0.00     0.041 C 
HETATM   21  C8  UNL     1      -2.292 -23.220  20.186  1.00  0.00     0.025 C 
HETATM   22  C9  UNL     1      -2.781 -21.997  22.262  1.00  0.00     0.025 C 
BRANCH  20  23
HETATM   23  C10 UNL     1      -3.963 -24.143  21.710  1.00  0.00     0.022 C 
BRANCH  23  24
HETATM   24  C11 UNL     1      -3.787 -24.380  23.179  1.00  0.00     0.036 C 
BRANCH  24  25
HETATM   25  C12 UNL     1      -3.839 -25.871  23.435  1.00  0.00     0.151 C 
BRANCH  25  26
HETATM   26  O3  UNL     1      -5.121 -26.372  23.463  1.00  0.00    -0.393 OA
ATOM     27  H3  UNL     1      -5.196 -27.180  23.957  1.00  0.00     0.210 HD
ENDBRANCH  25  26
BRANCH  25  28
HETATM   28  C13 UNL     1      -3.075 -26.245  24.688  1.00  0.00     0.076 C 
HETATM   29  C14 UNL     1      -2.851 -27.751  24.693  1.00  0.00     0.048 C 
HETATM   30  C15 UNL     1      -1.727 -25.587  24.721  1.00  0.00     0.048 C 
BRANCH  28  31
HETATM   31  O4  UNL     1      -3.819 -25.937  25.821  1.00  0.00    -0.388 OA
ATOM     32  H4  UNL     1      -4.022 -26.726  26.310  1.00  0.00     0.210 HD
ENDBRANCH  28  31
ENDBRANCH  25  28
ENDBRANCH  24  25
ENDBRANCH  23  24
ENDBRANCH  20  23
ENDBRANCH  18  20
ENDBRANCH  17  18
ENDBRANCH   5  17
TORSDOF 10
ENDMDL
MODEL 5
REMARK VINA RESULT: -8.011608886      3.391      6.759
REMARK  10 active torsions:
REMARK  status: ('A' for Active; 'I' for Inactive)
REMARK    1  A    between atoms: C5_5  and  O1_6 
REMARK    2  A    between atoms: O1_6  and  C6_7 
REMARK    3  A    between atoms: C6_7  and  C7_9 
REMARK    4  A    between atoms: C7_9  and  C10_12 
REMARK    5  A    between atoms: C10_12  and  C11_13 
REMARK    6  A    between atoms: C11_13  and  C12_14 
REMARK    7  A    between atoms: C12_14  and  O3_15 
REMARK    8  A    between atoms: C12_14  and  C13_17 
REMARK    9  A    between atoms: C13_17  and  O4_20 
REMARK   10  A    between atoms: C21_28  and  O5_29 
ROOT
HETATM    1  C1  UNL     1      -1.497 -23.526  19.674  1.00  0.00     0.046 C 
HETATM    2  C2  UNL     1      -2.477 -22.793  20.604  1.00  0.00     0.063 C 
HETATM    3  C3  UNL     1      -1.734 -21.698  21.362  1.00  0.00     0.046 C 
HETATM    4  C4  UNL     1      -3.028 -23.762  21.576  1.00  0.00     0.075 C 
HETATM    5  C5  UNL     1      -4.529 -23.773  21.725  1.00  0.00     0.170 C 
HETATM    6  C16 UNL     1      -5.160 -22.524  21.259  1.00  0.00     0.009 A 
HETATM    7  C17 UNL     1      -6.342 -22.119  21.821  1.00  0.00     0.035 A 
HETATM    8  C18 UNL     1      -6.997 -20.946  21.427  1.00  0.00     0.048 A 
HETATM    9  C19 UNL     1      -8.233 -20.525  22.017  1.00  0.00     0.099 C 
HETATM   10  N1  UNL     1      -9.227 -20.167  22.503  1.00  0.00    -0.191 NA
HETATM   11  C20 UNL     1      -6.434 -20.172  20.443  1.00  0.00     0.062 A 
HETATM   12  C21 UNL     1      -5.236 -20.575  19.869  1.00  0.00     0.101 A 
HETATM   13  C22 UNL     1      -4.600 -21.735  20.267  1.00  0.00     0.111 A 
HETATM   14  O6  UNL     1      -3.414 -22.189  19.740  1.00  0.00    -0.337 OA
ENDROOT
BRANCH  12  15
HETATM   15  O5  UNL     1      -4.649 -19.802  18.867  1.00  0.00    -0.358 OA
ATOM     16  H5  UNL     1      -3.915 -19.236  19.073  1.00  0.00     0.217 HD
ENDBRANCH  12  15
BRANCH   5  17
HETATM   17  O1  UNL     1      -4.915 -23.993  23.060  1.00  0.00    -0.310 OA
BRANCH  17  18
HETATM   18  C6  UNL     1      -5.313 -25.225  23.548  1.00  0.00     0.267 C 
HETATM   19  O2  UNL     1      -4.639 -26.215  23.169  1.00  0.00    -0.264 OA
BRANCH  18  20
HETATM   20  C7  UNL     1      -6.450 -25.457  24.467  1.00  0.00     0.041 C 
HETATM   21  C8  UNL     1      -6.982 -24.107  24.928  1.00  0.00     0.025 C 
HETATM   22  C9  UNL     1      -7.524 -26.152  23.677  1.00  0.00     0.025 C 
BRANCH  20  23
HETATM   23  C10 UNL     1      -5.973 -26.209  25.651  1.00  0.00     0.022 C 
BRANCH  23  24
HETATM   24  C11 UNL     1      -5.565 -25.365  26.821  1.00  0.00     0.036 C 
BRANCH  24  25
HETATM   25  C12 UNL     1      -4.453 -26.076  27.563  1.00  0.00     0.151 C 
BRANCH  25  26
HETATM   26  O3  UNL     1      -4.160 -27.316  27.043  1.00  0.00    -0.393 OA
ATOM     27  H3  UNL     1      -3.751 -27.276  26.186  1.00  0.00     0.210 HD
ENDBRANCH  25  26
BRANCH  25  28
HETATM   28  C13 UNL     1      -4.740 -26.156  29.047  1.00  0.00     0.076 C 
HETATM   29  C14 UNL     1      -3.488 -26.646  29.762  1.00  0.00     0.048 C 
HETATM   30  C15 UNL     1      -5.084 -24.808  29.609  1.00  0.00     0.048 C 
BRANCH  28  31
HETATM   31  O4  UNL     1      -5.746 -27.083  29.298  1.00  0.00    -0.388 OA
ATOM     32  H4  UNL     1      -5.461 -27.714  29.949  1.00  0.00     0.210 HD
ENDBRANCH  28  31
ENDBRANCH  25  28
ENDBRANCH  24  25
ENDBRANCH  23  24
ENDBRANCH  20  23
ENDBRANCH  18  20
ENDBRANCH  17  18
ENDBRANCH   5  17
TORSDOF 10
ENDMDL
