MODEL 1
REMARK VINA RESULT: -6.146100580      0.000      0.000
REMARK  5 active torsions:
REMARK  status: ('A' for Active; 'I' for Inactive)
REMARK    1  A    between atoms: C2_2  and  C3_4 
REMARK    2  A    between atoms: C3_4  and  C4_5 
REMARK    3  A    between atoms: C4_5  and  C5_6 
REMARK    4  A    between atoms: C4_5  and  N2_8 
REMARK       I    between atoms: N2_8  and  C7_10 
REMARK       I    between atoms: C7_10  and  N3_12 
REMARK    5  A    between atoms: N3_12  and  C8_14 
REMARK       I    between atoms: N6_24  and  C14_25 
REMARK       I    between atoms: C14_25  and  N7_27 
ROOT
HETATM    1  C8  UNL     1      26.835  -1.026  13.911  1.00  0.00     0.134 A 
HETATM    2  N4  UNL     1      26.160  -0.550  14.955  1.00  0.00    -0.285 N 
ATOM      3  H4  UNL     1      26.033   0.438  15.174  1.00  0.00     0.188 HD
HETATM    4  N5  UNL     1      25.681  -1.552  15.662  1.00  0.00    -0.301 N 
ATOM      5  H5  UNL     1      25.126  -1.460  16.512  1.00  0.00     0.186 HD
HETATM    6  C9  UNL     1      26.036  -2.719  15.089  1.00  0.00     0.056 A 
HETATM    7  C10 UNL     1      26.764  -2.416  13.983  1.00  0.00     0.041 A 
HETATM    8  C11 UNL     1      27.169  -3.661  13.345  1.00  0.00     0.063 C 
HETATM    9  C12 UNL     1      26.977  -3.604  11.845  1.00  0.00     0.044 C 
HETATM   10  C13 UNL     1      28.623  -4.010  13.598  1.00  0.00     0.044 C 
HETATM   11  N6  UNL     1      26.366  -4.697  13.960  1.00  0.00    -0.315 N 
HETATM   12  C14 UNL     1      26.111  -5.959  13.344  1.00  0.00     0.321 C 
HETATM   13  O2  UNL     1      26.592  -6.162  12.168  1.00  0.00    -0.247 OA
HETATM   14  N7  UNL     1      25.385  -7.013  13.893  1.00  0.00    -0.343 N 
HETATM   15  C15 UNL     1      25.236  -8.224  13.047  1.00  0.00     0.154 C 
HETATM   16  C16 UNL     1      24.791  -7.030  15.195  1.00  0.00     0.154 C 
HETATM   17  C17 UNL     1      25.914  -4.217  15.222  1.00  0.00     0.188 C 
ENDROOT
BRANCH   1  18
HETATM   18  N3  UNL     1      27.459  -0.373  12.972  1.00  0.00    -0.293 N 
HETATM   19  C7  UNL     1      26.691   0.344  12.050  1.00  0.00     0.322 C 
HETATM   20  N2  UNL     1      25.729  -0.218  11.188  1.00  0.00    -0.335 N 
HETATM   21  O1  UNL     1      26.880   1.602  11.990  1.00  0.00    -0.247 OA
ATOM     22  H2  UNL     1      25.561  -1.224  11.220  1.00  0.00     0.164 HD
ATOM     23  H3  UNL     1      28.477  -0.385  12.911  1.00  0.00     0.172 HD
BRANCH  20  24
HETATM   24  C4  UNL     1      24.959   0.608  10.242  1.00  0.00     0.110 C 
BRANCH  24  25
HETATM   25  C3  UNL     1      25.083   0.115   8.870  1.00  0.00     0.024 C 
BRANCH  25  26
HETATM   26  C2  UNL     1      24.573  -1.148   8.417  1.00  0.00     0.035 C 
HETATM   27  C1  UNL     1      23.390  -1.180   7.768  1.00  0.00     0.039 C 
HETATM   28  N1  UNL     1      25.142  -2.433   8.634  1.00  0.00    -0.104 NA
ENDBRANCH  25  26
ENDBRANCH  24  25
BRANCH  24  29
HETATM   29  C5  UNL     1      23.651   0.977  10.831  1.00  0.00     0.025 C 
HETATM   30  C6  UNL     1      22.782   1.931  10.071  1.00  0.00     0.007 C 
ENDBRANCH  24  29
ENDBRANCH  20  24
ENDBRANCH   1  18
TORSDOF 5
ENDMDL
MODEL 2
REMARK VINA RESULT: -5.967108752      3.286      8.751
REMARK  5 active torsions:
REMARK  status: ('A' for Active; 'I' for Inactive)
REMARK    1  A    between atoms: C2_2  and  C3_4 
REMARK    2  A    between atoms: C3_4  and  C4_5 
REMARK    3  A    between atoms: C4_5  and  C5_6 
REMARK    4  A    between atoms: C4_5  and  N2_8 
REMARK       I    between atoms: N2_8  and  C7_10 
REMARK       I    between atoms: C7_10  and  N3_12 
REMARK    5  A    between atoms: N3_12  and  C8_14 
REMARK       I    between atoms: N6_24  and  C14_25 
REMARK       I    between atoms: C14_25  and  N7_27 
ROOT
HETATM    1  C8  UNL     1      24.582  -6.199  14.431  1.00  0.00     0.134 A 
HETATM    2  N4  UNL     1      24.218  -7.226  13.667  1.00  0.00    -0.285 N 
ATOM      3  H4  UNL     1      23.935  -8.144  14.011  1.00  0.00     0.188 HD
HETATM    4  N5  UNL     1      24.278  -6.875  12.400  1.00  0.00    -0.301 N 
ATOM      5  H5  UNL     1      24.049  -7.479  11.611  1.00  0.00     0.186 HD
HETATM    6  C9  UNL     1      24.687  -5.595  12.305  1.00  0.00     0.056 A 
HETATM    7  C10 UNL     1      24.886  -5.144  13.571  1.00  0.00     0.041 A 
HETATM    8  C11 UNL     1      25.338  -3.762  13.500  1.00  0.00     0.063 C 
HETATM    9  C12 UNL     1      24.629  -2.893  14.516  1.00  0.00     0.044 C 
HETATM   10  C13 UNL     1      26.828  -3.612  13.744  1.00  0.00     0.044 C 
HETATM   11  N6  UNL     1      25.081  -3.334  12.140  1.00  0.00    -0.315 N 
HETATM   12  C14 UNL     1      24.949  -1.963  11.764  1.00  0.00     0.321 C 
HETATM   13  O2  UNL     1      25.025  -1.075  12.691  1.00  0.00    -0.247 OA
HETATM   14  N7  UNL     1      24.743  -1.480  10.474  1.00  0.00    -0.343 N 
HETATM   15  C15 UNL     1      24.612  -0.007  10.334  1.00  0.00     0.154 C 
HETATM   16  C16 UNL     1      24.662  -2.273   9.286  1.00  0.00     0.154 C 
HETATM   17  C17 UNL     1      24.993  -4.494  11.319  1.00  0.00     0.188 C 
ENDROOT
BRANCH   1  18
HETATM   18  N3  UNL     1      24.659  -6.128  15.729  1.00  0.00    -0.293 N 
HETATM   19  C7  UNL     1      24.397  -7.287  16.466  1.00  0.00     0.322 C 
HETATM   20  N2  UNL     1      23.177  -7.992  16.454  1.00  0.00    -0.335 N 
HETATM   21  O1  UNL     1      25.335  -7.734  17.200  1.00  0.00    -0.247 OA
ATOM     22  H2  UNL     1      22.412  -7.652  15.873  1.00  0.00     0.164 HD
ATOM     23  H3  UNL     1      24.904  -5.254  16.195  1.00  0.00     0.172 HD
BRANCH  20  24
HETATM   24  C4  UNL     1      22.979  -9.209  17.261  1.00  0.00     0.110 C 
BRANCH  24  25
HETATM   25  C3  UNL     1      22.033  -8.983  18.354  1.00  0.00     0.024 C 
BRANCH  25  26
HETATM   26  C2  UNL     1      22.024  -7.812  19.186  1.00  0.00     0.035 C 
HETATM   27  C1  UNL     1      22.843  -7.767  20.258  1.00  0.00     0.039 C 
HETATM   28  N1  UNL     1      21.181  -6.675  19.061  1.00  0.00    -0.104 NA
ENDBRANCH  25  26
ENDBRANCH  24  25
BRANCH  24  29
HETATM   29  C5  UNL     1      22.897 -10.399  16.383  1.00  0.00     0.025 C 
HETATM   30  C6  UNL     1      22.046 -11.547  16.831  1.00  0.00     0.007 C 
ENDBRANCH  24  29
ENDBRANCH  20  24
ENDBRANCH   1  18
TORSDOF 5
ENDMDL
MODEL 3
REMARK VINA RESULT: -5.894932016      2.561      3.693
REMARK  5 active torsions:
REMARK  status: ('A' for Active; 'I' for Inactive)
REMARK    1  A    between atoms: C2_2  and  C3_4 
REMARK    2  A    between atoms: C3_4  and  C4_5 
REMARK    3  A    between atoms: C4_5  and  C5_6 
REMARK    4  A    between atoms: C4_5  and  N2_8 
REMARK       I    between atoms: N2_8  and  C7_10 
REMARK       I    between atoms: C7_10  and  N3_12 
REMARK    5  A    between atoms: N3_12  and  C8_14 
REMARK       I    between atoms: N6_24  and  C14_25 
REMARK       I    between atoms: C14_25  and  N7_27 
ROOT
HETATM    1  C8  UNL     1      25.935  -1.906  14.396  1.00  0.00     0.134 A 
HETATM    2  N4  UNL     1      26.078  -0.706  14.956  1.00  0.00    -0.285 N 
ATOM      3  H4  UNL     1      25.388   0.044  14.925  1.00  0.00     0.188 HD
HETATM    4  N5  UNL     1      27.247  -0.638  15.556  1.00  0.00    -0.301 N 
ATOM      5  H5  UNL     1      27.603   0.173  16.062  1.00  0.00     0.186 HD
HETATM    6  C9  UNL     1      27.903  -1.805  15.401  1.00  0.00     0.056 A 
HETATM    7  C10 UNL     1      27.098  -2.623  14.674  1.00  0.00     0.041 A 
HETATM    8  C11 UNL     1      27.785  -3.892  14.483  1.00  0.00     0.063 C 
HETATM    9  C12 UNL     1      26.858  -5.065  14.715  1.00  0.00     0.044 C 
HETATM   10  C13 UNL     1      28.367  -4.048  13.090  1.00  0.00     0.044 C 
HETATM   11  N6  UNL     1      28.897  -3.881  15.412  1.00  0.00    -0.315 N 
HETATM   12  C14 UNL     1      29.541  -5.067  15.874  1.00  0.00     0.321 C 
HETATM   13  O2  UNL     1      29.081  -6.199  15.470  1.00  0.00    -0.247 OA
HETATM   14  N7  UNL     1      30.637  -5.129  16.733  1.00  0.00    -0.343 N 
HETATM   15  C15 UNL     1      31.119  -6.487  17.092  1.00  0.00     0.154 C 
HETATM   16  C16 UNL     1      31.336  -4.006  17.278  1.00  0.00     0.154 C 
HETATM   17  C17 UNL     1      29.184  -2.526  15.743  1.00  0.00     0.188 C 
ENDROOT
BRANCH   1  18
HETATM   18  N3  UNL     1      24.931  -2.378  13.713  1.00  0.00    -0.293 N 
HETATM   19  C7  UNL     1      24.946  -2.210  12.325  1.00  0.00     0.322 C 
HETATM   20  N2  UNL     1      24.970  -0.966  11.663  1.00  0.00    -0.335 N 
HETATM   21  O1  UNL     1      24.936  -3.263  11.612  1.00  0.00    -0.247 OA
ATOM     22  H2  UNL     1      24.979  -0.109  12.214  1.00  0.00     0.164 HD
ATOM     23  H3  UNL     1      24.159  -2.856  14.176  1.00  0.00     0.172 HD
BRANCH  20  24
HETATM   24  C4  UNL     1      24.984  -0.873  10.192  1.00  0.00     0.110 C 
BRANCH  24  25
HETATM   25  C3  UNL     1      23.653  -0.582   9.658  1.00  0.00     0.024 C 
BRANCH  25  26
HETATM   26  C2  UNL     1      23.041   0.716   9.681  1.00  0.00     0.035 C 
HETATM   27  C1  UNL     1      22.192   1.055   8.688  1.00  0.00     0.039 C 
HETATM   28  N1  UNL     1      23.275   1.761  10.615  1.00  0.00    -0.104 NA
ENDBRANCH  25  26
ENDBRANCH  24  25
BRANCH  24  29
HETATM   29  C5  UNL     1      26.191  -0.148   9.736  1.00  0.00     0.025 C 
HETATM   30  C6  UNL     1      26.986   0.607  10.757  1.00  0.00     0.007 C 
ENDBRANCH  24  29
ENDBRANCH  20  24
ENDBRANCH   1  18
TORSDOF 5
ENDMDL
MODEL 4
REMARK VINA RESULT: -5.843443287      3.484      8.470
REMARK  5 active torsions:
REMARK  status: ('A' for Active; 'I' for Inactive)
REMARK    1  A    between atoms: C2_2  and  C3_4 
REMARK    2  A    between atoms: C3_4  and  C4_5 
REMARK    3  A    between atoms: C4_5  and  C5_6 
REMARK    4  A    between atoms: C4_5  and  N2_8 
REMARK       I    between atoms: N2_8  and  C7_10 
REMARK       I    between atoms: C7_10  and  N3_12 
REMARK    5  A    between atoms: N3_12  and  C8_14 
REMARK       I    between atoms: N6_24  and  C14_25 
REMARK       I    between atoms: C14_25  and  N7_27 
ROOT
HETATM    1  C8  UNL     1      25.202  -5.166  15.598  1.00  0.00     0.134 A 
HETATM    2  N4  UNL     1      25.002  -4.119  16.395  1.00  0.00    -0.285 N 
ATOM      3  H4  UNL     1      25.067  -4.133  17.413  1.00  0.00     0.188 HD
HETATM    4  N5  UNL     1      24.708  -3.062  15.668  1.00  0.00    -0.301 N 
ATOM      5  H5  UNL     1      24.509  -2.132  16.035  1.00  0.00     0.186 HD
HETATM    6  C9  UNL     1      24.709  -3.398  14.363  1.00  0.00     0.056 A 
HETATM    7  C10 UNL     1      25.018  -4.719  14.290  1.00  0.00     0.041 A 
HETATM    8  C11 UNL     1      25.019  -5.113  12.889  1.00  0.00     0.063 C 
HETATM    9  C12 UNL     1      26.216  -5.979  12.557  1.00  0.00     0.044 C 
HETATM   10  C13 UNL     1      23.778  -5.891  12.491  1.00  0.00     0.044 C 
HETATM   11  N6  UNL     1      25.011  -3.878  12.133  1.00  0.00    -0.315 N 
HETATM   12  C14 UNL     1      25.456  -3.786  10.779  1.00  0.00     0.321 C 
HETATM   13  O2  UNL     1      25.920  -4.850  10.225  1.00  0.00    -0.247 OA
HETATM   14  N7  UNL     1      25.438  -2.644   9.982  1.00  0.00    -0.343 N 
HETATM   15  C15 UNL     1      25.978  -2.791   8.606  1.00  0.00     0.154 C 
HETATM   16  C16 UNL     1      24.936  -1.362  10.369  1.00  0.00     0.154 C 
HETATM   17  C17 UNL     1      24.503  -2.847  12.973  1.00  0.00     0.188 C 
ENDROOT
BRANCH   1  18
HETATM   18  N3  UNL     1      25.512  -6.391  15.914  1.00  0.00    -0.293 N 
HETATM   19  C7  UNL     1      24.524  -7.187  16.501  1.00  0.00     0.322 C 
HETATM   20  N2  UNL     1      23.879  -6.905  17.722  1.00  0.00    -0.335 N 
HETATM   21  O1  UNL     1      24.185  -8.245  15.880  1.00  0.00    -0.247 OA
ATOM     22  H2  UNL     1      24.134  -6.063  18.236  1.00  0.00     0.164 HD
ATOM     23  H3  UNL     1      26.447  -6.758  15.740  1.00  0.00     0.172 HD
BRANCH  20  24
HETATM   24  C4  UNL     1      22.845  -7.797  18.275  1.00  0.00     0.110 C 
BRANCH  24  25
HETATM   25  C3  UNL     1      23.424  -8.815  19.152  1.00  0.00     0.024 C 
BRANCH  25  26
HETATM   26  C2  UNL     1      24.195  -8.524  20.327  1.00  0.00     0.035 C 
HETATM   27  C1  UNL     1      24.067  -9.324  21.407  1.00  0.00     0.039 C 
HETATM   28  N1  UNL     1      25.061  -7.417  20.534  1.00  0.00    -0.104 NA
ENDBRANCH  25  26
ENDBRANCH  24  25
BRANCH  24  29
HETATM   29  C5  UNL     1      21.647  -7.016  18.659  1.00  0.00     0.025 C 
HETATM   30  C6  UNL     1      20.565  -7.717  19.423  1.00  0.00     0.007 C 
ENDBRANCH  24  29
ENDBRANCH  20  24
ENDBRANCH   1  18
TORSDOF 5
ENDMDL
MODEL 5
REMARK VINA RESULT: -5.789173340      1.999      7.227
REMARK  5 active torsions:
REMARK  status: ('A' for Active; 'I' for Inactive)
REMARK    1  A    between atoms: C2_2  and  C3_4 
REMARK    2  A    between atoms: C3_4  and  C4_5 
REMARK    3  A    between atoms: C4_5  and  C5_6 
REMARK    4  A    between atoms: C4_5  and  N2_8 
REMARK       I    between atoms: N2_8  and  C7_10 
REMARK       I    between atoms: C7_10  and  N3_12 
REMARK    5  A    between atoms: N3_12  and  C8_14 
REMARK       I    between atoms: N6_24  and  C14_25 
REMARK       I    between atoms: C14_25  and  N7_27 
ROOT
HETATM    1  C8  UNL     1      26.858  -3.435  10.067  1.00  0.00     0.134 A 
HETATM    2  N4  UNL     1      26.652  -4.356   9.129  1.00  0.00    -0.285 N 
ATOM      3  H4  UNL     1      27.022  -5.307   9.145  1.00  0.00     0.188 HD
HETATM    4  N5  UNL     1      25.898  -3.851   8.176  1.00  0.00    -0.301 N 
ATOM      5  H5  UNL     1      25.593  -4.350   7.340  1.00  0.00     0.186 HD
HETATM    6  C9  UNL     1      25.590  -2.574   8.473  1.00  0.00     0.056 A 
HETATM    7  C10 UNL     1      26.182  -2.286   9.661  1.00  0.00     0.041 A 
HETATM    8  C11 UNL     1      25.872  -0.905  10.006  1.00  0.00     0.063 C 
HETATM    9  C12 UNL     1      25.481  -0.771  11.462  1.00  0.00     0.044 C 
HETATM   10  C13 UNL     1      27.033   0.041   9.763  1.00  0.00     0.044 C 
HETATM   11  N6  UNL     1      24.802  -0.508   9.113  1.00  0.00    -0.315 N 
HETATM   12  C14 UNL     1      23.909   0.569   9.394  1.00  0.00     0.321 C 
HETATM   13  O2  UNL     1      24.046   1.188  10.514  1.00  0.00    -0.247 OA
HETATM   14  N7  UNL     1      22.888   1.030   8.566  1.00  0.00    -0.343 N 
HETATM   15  C15 UNL     1      22.072   2.156   9.088  1.00  0.00     0.154 C 
HETATM   16  C16 UNL     1      22.574   0.524   7.265  1.00  0.00     0.154 C 
HETATM   17  C17 UNL     1      24.830  -1.367   7.978  1.00  0.00     0.188 C 
ENDROOT
BRANCH   1  18
HETATM   18  N3  UNL     1      27.544  -3.528  11.171  1.00  0.00    -0.293 N 
HETATM   19  C7  UNL     1      27.046  -4.348  12.186  1.00  0.00     0.322 C 
HETATM   20  N2  UNL     1      25.804  -4.174  12.830  1.00  0.00    -0.335 N 
HETATM   21  O1  UNL     1      27.773  -5.326  12.554  1.00  0.00    -0.247 OA
ATOM     22  H2  UNL     1      25.205  -3.398  12.551  1.00  0.00     0.164 HD
ATOM     23  H3  UNL     1      28.419  -3.017  11.290  1.00  0.00     0.172 HD
BRANCH  20  24
HETATM   24  C4  UNL     1      25.349  -5.085  13.894  1.00  0.00     0.110 C 
BRANCH  24  25
HETATM   25  C3  UNL     1      25.564  -4.512  15.223  1.00  0.00     0.024 C 
BRANCH  25  26
HETATM   26  C2  UNL     1      26.091  -3.197  15.459  1.00  0.00     0.035 C 
HETATM   27  C1  UNL     1      25.235  -2.189  15.729  1.00  0.00     0.039 C 
HETATM   28  N1  UNL     1      27.450  -2.789  15.375  1.00  0.00    -0.104 NA
ENDBRANCH  25  26
ENDBRANCH  24  25
BRANCH  24  29
HETATM   29  C5  UNL     1      24.070  -5.724  13.510  1.00  0.00     0.025 C 
HETATM   30  C6  UNL     1      23.943  -6.266  12.119  1.00  0.00     0.007 C 
ENDBRANCH  24  29
ENDBRANCH  20  24
ENDBRANCH   1  18
TORSDOF 5
ENDMDL
