MODEL 1
REMARK VINA RESULT: -4.564049244      0.000      0.000
REMARK  2 active torsions:
REMARK  status: ('A' for Active; 'I' for Inactive)
REMARK    1  A    between atoms: N1_4  and  N2_5 
REMARK    2  A    between atoms: N2_5  and  C4_7 
ROOT
HETATM    1  N2  UNL     1       7.852 -13.547   9.422  1.00  0.00    -0.294 N 
ATOM      2  H2  UNL     1       8.458 -12.929   8.883  1.00  0.00     0.188 HD
ENDROOT
BRANCH   1   3
HETATM    3  N1  UNL     1       6.529 -13.190   9.675  1.00  0.00    -0.289 N 
HETATM    4  C2  UNL     1       5.295 -12.676   9.079  1.00  0.00     0.039 A 
HETATM    5  C1  UNL     1       4.619 -12.237   8.037  1.00  0.00     0.041 C 
HETATM    6  C3  UNL     1       5.351 -13.009  10.526  1.00  0.00     0.206 A 
ENDBRANCH   1   3
BRANCH   1   7
HETATM    7  C4  UNL     1       8.347 -14.778   9.921  1.00  0.00     0.190 C 
HETATM    8  N3  UNL     1       8.292 -14.965  11.192  1.00  0.00    -0.394 N 
ATOM      9  H32 UNL     1       7.906 -14.246  11.803  1.00  0.00     0.156 HD
ATOM     10  H31 UNL     1       8.649 -15.851  11.551  1.00  0.00     0.156 HD
ENDBRANCH   1   7
TORSDOF 2
ENDMDL
MODEL 2
REMARK VINA RESULT: -4.257808751      1.642      3.861
REMARK  2 active torsions:
REMARK  status: ('A' for Active; 'I' for Inactive)
REMARK    1  A    between atoms: N1_4  and  N2_5 
REMARK    2  A    between atoms: N2_5  and  C4_7 
ROOT
HETATM    1  N2  UNL     1       5.943 -12.741   8.056  1.00  0.00    -0.294 N 
ATOM      2  H2  UNL     1       6.382 -13.056   7.192  1.00  0.00     0.188 HD
ENDROOT
BRANCH   1   3
HETATM    3  N1  UNL     1       6.419 -13.182   9.289  1.00  0.00    -0.289 N 
HETATM    4  C2  UNL     1       7.468 -13.951   9.960  1.00  0.00     0.039 A 
HETATM    5  C1  UNL     1       8.564 -14.682   9.914  1.00  0.00     0.041 C 
HETATM    6  C3  UNL     1       6.386 -13.306  10.748  1.00  0.00     0.206 A 
ENDBRANCH   1   3
BRANCH   1   7
HETATM    7  C4  UNL     1       4.842 -11.849   8.016  1.00  0.00     0.190 C 
HETATM    8  N3  UNL     1       3.694 -12.339   7.711  1.00  0.00    -0.394 N 
ATOM      9  H32 UNL     1       3.596 -13.334   7.508  1.00  0.00     0.156 HD
ATOM     10  H31 UNL     1       2.902 -11.697   7.682  1.00  0.00     0.156 HD
ENDBRANCH   1   7
TORSDOF 2
ENDMDL
MODEL 3
REMARK VINA RESULT: -4.148352337      0.647      1.445
REMARK  2 active torsions:
REMARK  status: ('A' for Active; 'I' for Inactive)
REMARK    1  A    between atoms: N1_4  and  N2_5 
REMARK    2  A    between atoms: N2_5  and  C4_7 
ROOT
HETATM    1  N2  UNL     1       8.077 -13.638   9.289  1.00  0.00    -0.294 N 
ATOM      2  H2  UNL     1       8.864 -13.111   8.909  1.00  0.00     0.188 HD
ENDROOT
BRANCH   1   3
HETATM    3  N1  UNL     1       6.772 -13.183   9.107  1.00  0.00    -0.289 N 
HETATM    4  C2  UNL     1       5.503 -12.897   9.777  1.00  0.00     0.039 A 
HETATM    5  C1  UNL     1       4.762 -12.859  10.866  1.00  0.00     0.041 C 
HETATM    6  C3  UNL     1       5.650 -12.676   8.315  1.00  0.00     0.206 A 
ENDBRANCH   1   3
BRANCH   1   7
HETATM    7  C4  UNL     1       8.299 -14.840  10.006  1.00  0.00     0.190 C 
HETATM    8  N3  UNL     1       8.114 -14.813  11.277  1.00  0.00    -0.394 N 
ATOM      9  H32 UNL     1       7.819 -13.952  11.737  1.00  0.00     0.156 HD
ATOM     10  H31 UNL     1       8.274 -15.679  11.794  1.00  0.00     0.156 HD
ENDBRANCH   1   7
TORSDOF 2
ENDMDL
MODEL 4
REMARK VINA RESULT: -3.852094479      8.990      9.197
REMARK  2 active torsions:
REMARK  status: ('A' for Active; 'I' for Inactive)
REMARK    1  A    between atoms: N1_4  and  N2_5 
REMARK    2  A    between atoms: N2_5  and  C4_7 
ROOT
HETATM    1  N2  UNL     1      12.310 -19.634   8.123  1.00  0.00    -0.294 N 
ATOM      2  H2  UNL     1      11.416 -19.295   8.477  1.00  0.00     0.188 HD
ENDROOT
BRANCH   1   3
HETATM    3  N1  UNL     1      12.737 -19.289   6.842  1.00  0.00    -0.289 N 
HETATM    4  C2  UNL     1      12.344 -19.201   5.435  1.00  0.00     0.039 A 
HETATM    5  C1  UNL     1      11.448 -19.356   4.481  1.00  0.00     0.041 C 
HETATM    6  C3  UNL     1      13.711 -18.807   5.861  1.00  0.00     0.206 A 
ENDBRANCH   1   3
BRANCH   1   7
HETATM    7  C4  UNL     1      13.133 -20.460   8.930  1.00  0.00     0.190 C 
HETATM    8  N3  UNL     1      12.859 -20.523  10.184  1.00  0.00    -0.394 N 
ATOM      9  H32 UNL     1      12.076 -19.994  10.568  1.00  0.00     0.156 HD
ATOM     10  H31 UNL     1      13.451 -21.118  10.764  1.00  0.00     0.156 HD
ENDBRANCH   1   7
TORSDOF 2
ENDMDL
MODEL 5
REMARK VINA RESULT: -3.785108344      1.683      3.415
REMARK  2 active torsions:
REMARK  status: ('A' for Active; 'I' for Inactive)
REMARK    1  A    between atoms: N1_4  and  N2_5 
REMARK    2  A    between atoms: N2_5  and  C4_7 
ROOT
HETATM    1  N2  UNL     1       6.295 -12.914   7.945  1.00  0.00    -0.294 N 
ATOM      2  H2  UNL     1       6.950 -13.353   7.299  1.00  0.00     0.188 HD
ENDROOT
BRANCH   1   3
HETATM    3  N1  UNL     1       6.360 -13.189   9.310  1.00  0.00    -0.289 N 
HETATM    4  C2  UNL     1       5.632 -13.126  10.578  1.00  0.00     0.039 A 
HETATM    5  C1  UNL     1       4.554 -12.814  11.268  1.00  0.00     0.041 C 
HETATM    6  C3  UNL     1       7.011 -13.675  10.528  1.00  0.00     0.206 A 
ENDBRANCH   1   3
BRANCH   1   7
HETATM    7  C4  UNL     1       5.308 -12.017   7.465  1.00  0.00     0.190 C 
HETATM    8  N3  UNL     1       4.079 -12.314   7.691  1.00  0.00    -0.394 N 
ATOM      9  H32 UNL     1       3.839 -13.166   8.198  1.00  0.00     0.156 HD
ATOM     10  H31 UNL     1       3.368 -11.668   7.345  1.00  0.00     0.156 HD
ENDBRANCH   1   7
TORSDOF 2
ENDMDL
