MODEL 1
REMARK VINA RESULT: -4.192818738      0.000      0.000
REMARK  2 active torsions:
REMARK  status: ('A' for Active; 'I' for Inactive)
REMARK    1  A    between atoms: C2_2  and  C3_3 
REMARK    2  A    between atoms: C3_3  and  N1_4 
ROOT
HETATM    1  N1  UNL     1       7.373 -13.228   9.557  1.00  0.00     0.142 N 
HETATM    2  C4  UNL     1       6.683 -13.655  10.755  1.00  0.00     0.507 C 
HETATM    3  N2  UNL     1       7.906 -14.412  11.066  1.00  0.00    -0.022 N 
ATOM      4  H21 UNL     1       7.877 -15.275  11.608  1.00  0.00     0.281 HD
ATOM      5  H22 UNL     1       8.599 -14.060  11.726  1.00  0.00     0.281 HD
HETATM    6  C5  UNL     1       8.153 -14.420   9.641  1.00  0.00     0.507 C 
ENDROOT
BRANCH   1   7
HETATM    7  C3  UNL     1       6.528 -13.109   8.391  1.00  0.00     0.303 C 
BRANCH   7   8
HETATM    8  C2  UNL     1       5.208 -12.560   8.803  1.00  0.00    -0.007 C 
HETATM    9  C1  UNL     1       4.344 -12.223   7.869  1.00  0.00     0.008 C 
ENDBRANCH   7   8
ENDBRANCH   1   7
TORSDOF 2
ENDMDL
MODEL 2
REMARK VINA RESULT: -4.084479803      1.808      3.731
REMARK  2 active torsions:
REMARK  status: ('A' for Active; 'I' for Inactive)
REMARK    1  A    between atoms: C2_2  and  C3_3 
REMARK    2  A    between atoms: C3_3  and  N1_4 
ROOT
HETATM    1  N1  UNL     1       5.934 -12.300   8.526  1.00  0.00     0.142 N 
HETATM    2  C4  UNL     1       5.291 -12.507   7.246  1.00  0.00     0.507 C 
HETATM    3  N2  UNL     1       4.049 -12.094   7.919  1.00  0.00    -0.022 N 
ATOM      4  H21 UNL     1       3.138 -12.443   7.621  1.00  0.00     0.281 HD
ATOM      5  H22 UNL     1       3.679 -11.148   7.826  1.00  0.00     0.281 HD
HETATM    6  C5  UNL     1       4.670 -12.547   9.144  1.00  0.00     0.507 C 
ENDROOT
BRANCH   1   7
HETATM    7  C3  UNL     1       6.979 -13.251   8.829  1.00  0.00     0.303 C 
BRANCH   7   8
HETATM    8  C2  UNL     1       6.909 -13.605  10.273  1.00  0.00    -0.007 C 
HETATM    9  C1  UNL     1       7.815 -14.420  10.769  1.00  0.00     0.008 C 
ENDBRANCH   7   8
ENDBRANCH   1   7
TORSDOF 2
ENDMDL
MODEL 3
REMARK VINA RESULT: -3.904930264      0.540      1.196
REMARK  2 active torsions:
REMARK  status: ('A' for Active; 'I' for Inactive)
REMARK    1  A    between atoms: C2_2  and  C3_3 
REMARK    2  A    between atoms: C3_3  and  N1_4 
ROOT
HETATM    1  N1  UNL     1       6.628 -13.631   9.368  1.00  0.00     0.142 N 
HETATM    2  C4  UNL     1       8.008 -14.014   9.576  1.00  0.00     0.507 C 
HETATM    3  N2  UNL     1       7.613 -14.294  10.966  1.00  0.00    -0.022 N 
ATOM      4  H21 UNL     1       8.275 -14.205  11.737  1.00  0.00     0.281 HD
ATOM      5  H22 UNL     1       7.419 -15.242  11.286  1.00  0.00     0.281 HD
HETATM    6  C5  UNL     1       6.554 -13.330  10.762  1.00  0.00     0.507 C 
ENDROOT
BRANCH   1   7
HETATM    7  C3  UNL     1       6.448 -12.510   8.473  1.00  0.00     0.303 C 
BRANCH   7   8
HETATM    8  C2  UNL     1       5.035 -12.051   8.548  1.00  0.00    -0.007 C 
HETATM    9  C1  UNL     1       4.186 -12.466   7.632  1.00  0.00     0.008 C 
ENDBRANCH   7   8
ENDBRANCH   1   7
TORSDOF 2
ENDMDL
MODEL 4
REMARK VINA RESULT: -3.866628704      1.777      3.628
REMARK  2 active torsions:
REMARK  status: ('A' for Active; 'I' for Inactive)
REMARK    1  A    between atoms: C2_2  and  C3_3 
REMARK    2  A    between atoms: C3_3  and  N1_4 
ROOT
HETATM    1  N1  UNL     1       5.792 -13.111   8.472  1.00  0.00     0.142 N 
HETATM    2  C4  UNL     1       4.728 -12.517   9.251  1.00  0.00     0.507 C 
HETATM    3  N2  UNL     1       4.172 -12.072   7.963  1.00  0.00    -0.022 N 
ATOM      4  H21 UNL     1       3.615 -11.221   7.887  1.00  0.00     0.281 HD
ATOM      5  H22 UNL     1       3.409 -12.572   7.509  1.00  0.00     0.281 HD
HETATM    6  C5  UNL     1       5.527 -12.138   7.461  1.00  0.00     0.507 C 
ENDROOT
BRANCH   1   7
HETATM    7  C3  UNL     1       7.097 -13.037   9.089  1.00  0.00     0.303 C 
BRANCH   7   8
HETATM    8  C2  UNL     1       7.047 -13.717  10.411  1.00  0.00    -0.007 C 
HETATM    9  C1  UNL     1       8.002 -14.569  10.720  1.00  0.00     0.008 C 
ENDBRANCH   7   8
ENDBRANCH   1   7
TORSDOF 2
ENDMDL
MODEL 5
REMARK VINA RESULT: -3.283484760      9.020     10.450
REMARK  2 active torsions:
REMARK  status: ('A' for Active; 'I' for Inactive)
REMARK    1  A    between atoms: C2_2  and  C3_3 
REMARK    2  A    between atoms: C3_3  and  N1_4 
ROOT
HETATM    1  N1  UNL     1      13.730 -19.481   6.145  1.00  0.00     0.142 N 
HETATM    2  C4  UNL     1      12.303 -19.263   6.055  1.00  0.00     0.507 C 
HETATM    3  N2  UNL     1      12.258 -19.650   7.474  1.00  0.00    -0.022 N 
ATOM      4  H21 UNL     1      11.436 -20.098   7.880  1.00  0.00     0.281 HD
ATOM      5  H22 UNL     1      12.205 -18.954   8.217  1.00  0.00     0.281 HD
HETATM    6  C5  UNL     1      13.474 -20.390   7.216  1.00  0.00     0.507 C 
ENDROOT
BRANCH   1   7
HETATM    7  C3  UNL     1      14.322 -20.057   4.958  1.00  0.00     0.303 C 
BRANCH   7   8
HETATM    8  C2  UNL     1      13.435 -21.138   4.450  1.00  0.00    -0.007 C 
HETATM    9  C1  UNL     1      13.099 -21.134   3.178  1.00  0.00     0.008 C 
ENDBRANCH   7   8
ENDBRANCH   1   7
TORSDOF 2
ENDMDL
