MODEL 1
REMARK VINA RESULT: -6.558792385      0.000      0.000
REMARK  14 active torsions:
REMARK  status: ('A' for Active; 'I' for Inactive)
REMARK    1  A    between atoms: N1_1  and  C1_4 
REMARK    2  A    between atoms: C2_7  and  O1_8 
REMARK    3  A    between atoms: O1_8  and  C3_9 
REMARK    4  A    between atoms: C4_11  and  C5_12 
REMARK    5  A    between atoms: C5_12  and  O3_13 
REMARK    6  A    between atoms: C6_15  and  O4_16 
REMARK    7  A    between atoms: C7_18  and  O5_19 
REMARK    8  A    between atoms: C9_23  and  N4_24 
REMARK    9  A    between atoms: N4_24  and  C10_26 
REMARK   10  A    between atoms: C10_26  and  C11_27 
REMARK   11  A    between atoms: C11_27  and  C12_28 
REMARK   12  A    between atoms: C12_28  and  C13_29 
REMARK   13  A    between atoms: C13_29  and  C14_30 
REMARK   14  A    between atoms: C14_30  and  N5_31 
ROOT
HETATM    1  C1  UNL     1      11.088  19.379  17.656  1.00  0.00     0.679 A 
HETATM    2  N2  UNL     1      10.543  20.241  16.796  1.00  0.00    -0.169 N 
ATOM      3  H2  UNL     1      10.037  19.895  15.980  1.00  0.00     0.186 HD
HETATM    4  C2  UNL     1      10.658  21.560  17.001  1.00  0.00     0.188 A 
HETATM    5  C8  UNL     1      11.355  22.053  18.127  1.00  0.00     0.142 A 
HETATM    6  N3  UNL     1      11.475  23.444  18.343  1.00  0.00    -0.094 NA
HETATM    7  C9  UNL     1      11.903  21.144  18.992  1.00  0.00     0.145 A 
HETATM    8  N6  UNL     1      11.754  19.836  18.732  1.00  0.00    -0.175 N 
ATOM      9  H6  UNL     1      12.163  19.159  19.377  1.00  0.00     0.186 HD
ENDROOT
BRANCH   4  10
HETATM   10  O1  UNL     1      10.119  22.505  16.152  1.00  0.00    -0.299 OA
BRANCH  10  11
HETATM   11  C3  UNL     1      10.101  22.443  14.781  1.00  0.00     0.300 C 
HETATM   12  O2  UNL     1       9.516  21.219  14.365  1.00  0.00    -0.348 OA
HETATM   13  C4  UNL     1       9.308  21.400  12.992  1.00  0.00     0.179 C 
HETATM   14  C6  UNL     1       8.788  22.803  12.847  1.00  0.00     0.182 C 
HETATM   15  C7  UNL     1       9.159  23.460  14.146  1.00  0.00     0.205 C 
BRANCH  13  16
HETATM   16  C5  UNL     1       8.301  20.358  12.547  1.00  0.00     0.198 C 
BRANCH  16  17
HETATM   17  O3  UNL     1       8.786  19.616  11.489  1.00  0.00    -0.398 OA
ATOM     18  H3  UNL     1       8.451  19.939  10.661  1.00  0.00     0.209 HD
ENDBRANCH  16  17
ENDBRANCH  13  16
BRANCH  14  19
HETATM   19  O4  UNL     1       7.438  22.863  12.572  1.00  0.00    -0.390 OA
ATOM     20  H4  UNL     1       7.223  23.454  11.860  1.00  0.00     0.210 HD
ENDBRANCH  14  19
BRANCH  15  21
HETATM   21  O5  UNL     1       8.057  23.721  14.916  1.00  0.00    -0.388 OA
ATOM     22  H5  UNL     1       7.241  23.501  14.481  1.00  0.00     0.210 HD
ENDBRANCH  15  21
ENDBRANCH  10  11
ENDBRANCH   4  10
BRANCH   1  23
HETATM   23  N1  UNL     1      10.959  18.106  17.428  1.00  0.00    -0.234 N 
ATOM     24  H12 UNL     1      11.283  17.686  16.557  1.00  0.00     0.174 HD
ATOM     25  H11 UNL     1      10.522  17.524  18.143  1.00  0.00     0.174 HD
ENDBRANCH   1  23
BRANCH   7  26
HETATM   26  N4  UNL     1      12.563  21.503  20.055  1.00  0.00    -0.374 N 
ATOM     27  H4  UNL     1      12.160  22.201  20.679  1.00  0.00     0.161 HD
BRANCH  26  28
HETATM   28  C10 UNL     1      13.852  20.937  20.371  1.00  0.00     0.121 C 
BRANCH  28  29
HETATM   29  C11 UNL     1      14.640  21.942  21.166  1.00  0.00     0.020 C 
BRANCH  29  30
HETATM   30  C12 UNL     1      13.771  23.078  21.629  1.00  0.00     0.003 C 
BRANCH  30  31
HETATM   31  C13 UNL     1      14.453  24.416  21.545  1.00  0.00     0.027 C 
BRANCH  31  32
HETATM   32  C14 UNL     1      13.560  25.300  20.666  1.00  0.00     0.229 C 
BRANCH  32  33
HETATM   33  N5  UNL     1      12.190  24.866  20.947  1.00  0.00    -0.079 N 
ATOM     34  H53 UNL     1      11.805  24.238  20.241  1.00  0.00     0.274 HD
ATOM     35  H52 UNL     1      12.117  24.220  21.733  1.00  0.00     0.274 HD
ATOM     36  H51 UNL     1      11.655  25.725  21.069  1.00  0.00     0.274 HD
ENDBRANCH  32  33
ENDBRANCH  31  32
ENDBRANCH  30  31
ENDBRANCH  29  30
ENDBRANCH  28  29
ENDBRANCH  26  28
ENDBRANCH   7  26
TORSDOF 14
ENDMDL
MODEL 2
REMARK VINA RESULT: -6.488467675      1.604      2.738
REMARK  14 active torsions:
REMARK  status: ('A' for Active; 'I' for Inactive)
REMARK    1  A    between atoms: N1_1  and  C1_4 
REMARK    2  A    between atoms: C2_7  and  O1_8 
REMARK    3  A    between atoms: O1_8  and  C3_9 
REMARK    4  A    between atoms: C4_11  and  C5_12 
REMARK    5  A    between atoms: C5_12  and  O3_13 
REMARK    6  A    between atoms: C6_15  and  O4_16 
REMARK    7  A    between atoms: C7_18  and  O5_19 
REMARK    8  A    between atoms: C9_23  and  N4_24 
REMARK    9  A    between atoms: N4_24  and  C10_26 
REMARK   10  A    between atoms: C10_26  and  C11_27 
REMARK   11  A    between atoms: C11_27  and  C12_28 
REMARK   12  A    between atoms: C12_28  and  C13_29 
REMARK   13  A    between atoms: C13_29  and  C14_30 
REMARK   14  A    between atoms: C14_30  and  N5_31 
ROOT
HETATM    1  C1  UNL     1      10.623  20.039  19.064  1.00  0.00     0.679 A 
HETATM    2  N2  UNL     1      10.059  20.752  18.087  1.00  0.00    -0.169 N 
ATOM      3  H2  UNL     1       9.240  20.391  17.601  1.00  0.00     0.186 HD
HETATM    4  C2  UNL     1      10.569  21.943  17.746  1.00  0.00     0.188 A 
HETATM    5  C8  UNL     1      11.704  22.457  18.413  1.00  0.00     0.142 A 
HETATM    6  N3  UNL     1      12.241  23.714  18.052  1.00  0.00    -0.094 NA
HETATM    7  C9  UNL     1      12.259  21.702  19.412  1.00  0.00     0.145 A 
HETATM    8  N6  UNL     1      11.703  20.517  19.708  1.00  0.00    -0.175 N 
ATOM      9  H6  UNL     1      12.117  19.955  20.452  1.00  0.00     0.186 HD
ENDROOT
BRANCH   4  10
HETATM   10  O1  UNL     1      10.037  22.733  16.746  1.00  0.00    -0.299 OA
BRANCH  10  11
HETATM   11  C3  UNL     1      10.167  22.522  15.396  1.00  0.00     0.300 C 
HETATM   12  O2  UNL     1       9.660  21.240  15.060  1.00  0.00    -0.348 OA
HETATM   13  C4  UNL     1       9.594  21.264  13.662  1.00  0.00     0.179 C 
HETATM   14  C6  UNL     1       9.058  22.623  13.309  1.00  0.00     0.182 C 
HETATM   15  C7  UNL     1       9.273  23.430  14.558  1.00  0.00     0.205 C 
BRANCH  13  16
HETATM   16  C5  UNL     1       8.666  20.144  13.234  1.00  0.00     0.198 C 
BRANCH  16  17
HETATM   17  O3  UNL     1       8.842  19.833  11.901  1.00  0.00    -0.398 OA
ATOM     18  H3  UNL     1       9.545  19.205  11.785  1.00  0.00     0.209 HD
ENDBRANCH  16  17
ENDBRANCH  13  16
BRANCH  14  19
HETATM   19  O4  UNL     1       7.744  22.605  12.891  1.00  0.00    -0.390 OA
ATOM     20  H4  UNL     1       7.642  22.740  11.957  1.00  0.00     0.210 HD
ENDBRANCH  14  19
BRANCH  15  21
HETATM   21  O5  UNL     1       8.089  23.733  15.177  1.00  0.00    -0.388 OA
ATOM     22  H5  UNL     1       7.331  23.411  14.702  1.00  0.00     0.210 HD
ENDBRANCH  15  21
ENDBRANCH  10  11
ENDBRANCH   4  10
BRANCH   1  23
HETATM   23  N1  UNL     1      10.104  18.887  19.371  1.00  0.00    -0.234 N 
ATOM     24  H12 UNL     1       9.601  18.329  18.682  1.00  0.00     0.174 HD
ATOM     25  H11 UNL     1      10.209  18.544  20.326  1.00  0.00     0.174 HD
ENDBRANCH   1  23
BRANCH   7  26
HETATM   26  N4  UNL     1      13.304  22.091  20.081  1.00  0.00    -0.374 N 
ATOM     27  H4  UNL     1      13.224  22.888  20.711  1.00  0.00     0.161 HD
BRANCH  26  28
HETATM   28  C10 UNL     1      14.576  21.420  19.954  1.00  0.00     0.121 C 
BRANCH  28  29
HETATM   29  C11 UNL     1      14.882  20.715  21.246  1.00  0.00     0.020 C 
BRANCH  29  30
HETATM   30  C12 UNL     1      14.678  19.230  21.123  1.00  0.00     0.003 C 
BRANCH  30  31
HETATM   31  C13 UNL     1      15.125  18.680  19.796  1.00  0.00     0.027 C 
BRANCH  31  32
HETATM   32  C14 UNL     1      14.028  17.707  19.343  1.00  0.00     0.229 C 
BRANCH  32  33
HETATM   33  N5  UNL     1      13.154  17.541  20.505  1.00  0.00    -0.079 N 
ATOM     34  H53 UNL     1      13.015  16.569  20.779  1.00  0.00     0.274 HD
ATOM     35  H52 UNL     1      13.573  17.853  21.382  1.00  0.00     0.274 HD
ATOM     36  H51 UNL     1      12.291  18.029  20.266  1.00  0.00     0.274 HD
ENDBRANCH  32  33
ENDBRANCH  31  32
ENDBRANCH  30  31
ENDBRANCH  29  30
ENDBRANCH  28  29
ENDBRANCH  26  28
ENDBRANCH   7  26
TORSDOF 14
ENDMDL
MODEL 3
REMARK VINA RESULT: -6.472422034      1.991      3.585
REMARK  14 active torsions:
REMARK  status: ('A' for Active; 'I' for Inactive)
REMARK    1  A    between atoms: N1_1  and  C1_4 
REMARK    2  A    between atoms: C2_7  and  O1_8 
REMARK    3  A    between atoms: O1_8  and  C3_9 
REMARK    4  A    between atoms: C4_11  and  C5_12 
REMARK    5  A    between atoms: C5_12  and  O3_13 
REMARK    6  A    between atoms: C6_15  and  O4_16 
REMARK    7  A    between atoms: C7_18  and  O5_19 
REMARK    8  A    between atoms: C9_23  and  N4_24 
REMARK    9  A    between atoms: N4_24  and  C10_26 
REMARK   10  A    between atoms: C10_26  and  C11_27 
REMARK   11  A    between atoms: C11_27  and  C12_28 
REMARK   12  A    between atoms: C12_28  and  C13_29 
REMARK   13  A    between atoms: C13_29  and  C14_30 
REMARK   14  A    between atoms: C14_30  and  N5_31 
ROOT
HETATM    1  C1  UNL     1      13.266  23.285  17.950  1.00  0.00     0.679 A 
HETATM    2  N2  UNL     1      12.289  23.559  17.084  1.00  0.00    -0.169 N 
ATOM      3  H2  UNL     1      12.399  24.321  16.416  1.00  0.00     0.186 HD
HETATM    4  C2  UNL     1      11.162  22.834  17.092  1.00  0.00     0.188 A 
HETATM    5  C8  UNL     1      10.997  21.774  18.011  1.00  0.00     0.142 A 
HETATM    6  N3  UNL     1       9.808  21.009  18.018  1.00  0.00    -0.094 NA
HETATM    7  C9  UNL     1      12.018  21.517  18.886  1.00  0.00     0.145 A 
HETATM    8  N6  UNL     1      13.122  22.279  18.831  1.00  0.00    -0.175 N 
ATOM      9  H6  UNL     1      13.882  22.087  19.483  1.00  0.00     0.186 HD
ENDROOT
BRANCH   4  10
HETATM   10  O1  UNL     1      10.112  23.062  16.225  1.00  0.00    -0.299 OA
BRANCH  10  11
HETATM   11  C3  UNL     1      10.101  22.788  14.881  1.00  0.00     0.300 C 
HETATM   12  O2  UNL     1       9.734  21.435  14.670  1.00  0.00    -0.348 OA
HETATM   13  C4  UNL     1       9.493  21.365  13.293  1.00  0.00     0.179 C 
HETATM   14  C6  UNL     1       8.740  22.621  12.954  1.00  0.00     0.182 C 
HETATM   15  C7  UNL     1       8.997  23.522  14.127  1.00  0.00     0.205 C 
BRANCH  13  16
HETATM   16  C5  UNL     1       8.678  20.112  13.039  1.00  0.00     0.198 C 
BRANCH  16  17
HETATM   17  O3  UNL     1       8.745  19.734  11.713  1.00  0.00    -0.398 OA
ATOM     18  H3  UNL     1       7.899  19.821  11.289  1.00  0.00     0.209 HD
ENDBRANCH  16  17
ENDBRANCH  13  16
BRANCH  14  19
HETATM   19  O4  UNL     1       7.399  22.409  12.712  1.00  0.00    -0.390 OA
ATOM     20  H4  UNL     1       7.102  22.767  11.884  1.00  0.00     0.210 HD
ENDBRANCH  14  19
BRANCH  15  21
HETATM   21  O5  UNL     1       7.869  23.708  14.882  1.00  0.00    -0.388 OA
ATOM     22  H5  UNL     1       7.514  24.586  14.806  1.00  0.00     0.210 HD
ENDBRANCH  15  21
ENDBRANCH  10  11
ENDBRANCH   4  10
BRANCH   1  23
HETATM   23  N1  UNL     1      14.346  24.008  17.918  1.00  0.00    -0.234 N 
ATOM     24  H12 UNL     1      14.877  24.134  17.056  1.00  0.00     0.174 HD
ATOM     25  H11 UNL     1      14.660  24.456  18.779  1.00  0.00     0.174 HD
ENDBRANCH   1  23
BRANCH   7  26
HETATM   26  N4  UNL     1      11.957  20.563  19.769  1.00  0.00    -0.374 N 
ATOM     27  H4  UNL     1      11.073  20.380  20.244  1.00  0.00     0.161 HD
BRANCH  26  28
HETATM   28  C10 UNL     1      13.109  19.758  20.095  1.00  0.00     0.121 C 
BRANCH  28  29
HETATM   29  C11 UNL     1      13.040  18.475  19.312  1.00  0.00     0.020 C 
BRANCH  29  30
HETATM   30  C12 UNL     1      14.178  17.557  19.661  1.00  0.00     0.003 C 
BRANCH  30  31
HETATM   31  C13 UNL     1      15.455  18.290  19.970  1.00  0.00     0.027 C 
BRANCH  31  32
HETATM   32  C14 UNL     1      16.080  17.574  21.175  1.00  0.00     0.229 C 
BRANCH  32  33
HETATM   33  N5  UNL     1      15.561  18.272  22.352  1.00  0.00    -0.079 N 
ATOM     34  H53 UNL     1      14.566  18.122  22.513  1.00  0.00     0.274 HD
ATOM     35  H52 UNL     1      15.886  17.883  23.237  1.00  0.00     0.274 HD
ATOM     36  H51 UNL     1      15.813  19.252  22.217  1.00  0.00     0.274 HD
ENDBRANCH  32  33
ENDBRANCH  31  32
ENDBRANCH  30  31
ENDBRANCH  29  30
ENDBRANCH  28  29
ENDBRANCH  26  28
ENDBRANCH   7  26
TORSDOF 14
ENDMDL
MODEL 4
REMARK VINA RESULT: -6.432600833      1.377      1.612
REMARK  14 active torsions:
REMARK  status: ('A' for Active; 'I' for Inactive)
REMARK    1  A    between atoms: N1_1  and  C1_4 
REMARK    2  A    between atoms: C2_7  and  O1_8 
REMARK    3  A    between atoms: O1_8  and  C3_9 
REMARK    4  A    between atoms: C4_11  and  C5_12 
REMARK    5  A    between atoms: C5_12  and  O3_13 
REMARK    6  A    between atoms: C6_15  and  O4_16 
REMARK    7  A    between atoms: C7_18  and  O5_19 
REMARK    8  A    between atoms: C9_23  and  N4_24 
REMARK    9  A    between atoms: N4_24  and  C10_26 
REMARK   10  A    between atoms: C10_26  and  C11_27 
REMARK   11  A    between atoms: C11_27  and  C12_28 
REMARK   12  A    between atoms: C12_28  and  C13_29 
REMARK   13  A    between atoms: C13_29  and  C14_30 
REMARK   14  A    between atoms: C14_30  and  N5_31 
ROOT
HETATM    1  C1  UNL     1      10.455  19.493  16.777  1.00  0.00     0.679 A 
HETATM    2  N2  UNL     1       9.983  20.505  16.047  1.00  0.00    -0.169 N 
ATOM      3  H2  UNL     1       9.555  20.322  15.140  1.00  0.00     0.186 HD
HETATM    4  C2  UNL     1      10.069  21.761  16.505  1.00  0.00     0.188 A 
HETATM    5  C8  UNL     1      10.658  22.030  17.761  1.00  0.00     0.142 A 
HETATM    6  N3  UNL     1      10.748  23.355  18.242  1.00  0.00    -0.094 NA
HETATM    7  C9  UNL     1      11.133  20.970  18.487  1.00  0.00     0.145 A 
HETATM    8  N6  UNL     1      11.018  19.735  17.975  1.00  0.00    -0.175 N 
ATOM      9  H6  UNL     1      11.372  18.946  18.517  1.00  0.00     0.186 HD
ENDROOT
BRANCH   4  10
HETATM   10  O1  UNL     1       9.601  22.854  15.802  1.00  0.00    -0.299 OA
BRANCH  10  11
HETATM   11  C3  UNL     1       9.814  23.108  14.470  1.00  0.00     0.300 C 
HETATM   12  O2  UNL     1       8.672  22.724  13.721  1.00  0.00    -0.348 OA
HETATM   13  C4  UNL     1       8.902  23.280  12.457  1.00  0.00     0.179 C 
HETATM   14  C6  UNL     1       9.453  24.653  12.716  1.00  0.00     0.182 C 
HETATM   15  C7  UNL     1       9.900  24.597  14.149  1.00  0.00     0.205 C 
BRANCH  13  16
HETATM   16  C5  UNL     1       7.572  23.315  11.730  1.00  0.00     0.198 C 
BRANCH  16  17
HETATM   17  O3  UNL     1       6.687  22.401  12.265  1.00  0.00    -0.398 OA
ATOM     18  H3  UNL     1       6.744  21.565  11.817  1.00  0.00     0.209 HD
ENDBRANCH  16  17
ENDBRANCH  13  16
BRANCH  14  19
HETATM   19  O4  UNL     1       8.550  25.665  12.467  1.00  0.00    -0.390 OA
ATOM     20  H4  UNL     1       8.805  26.500  12.839  1.00  0.00     0.210 HD
ENDBRANCH  14  19
BRANCH  15  21
HETATM   21  O5  UNL     1       9.106  25.364  14.960  1.00  0.00    -0.388 OA
ATOM     22  H5  UNL     1       9.538  26.156  15.258  1.00  0.00     0.210 HD
ENDBRANCH  15  21
ENDBRANCH  10  11
ENDBRANCH   4  10
BRANCH   1  23
HETATM   23  N1  UNL     1      10.357  18.287  16.305  1.00  0.00    -0.234 N 
ATOM     24  H12 UNL     1       9.555  17.997  15.746  1.00  0.00     0.174 HD
ATOM     25  H11 UNL     1      11.106  17.622  16.503  1.00  0.00     0.174 HD
ENDBRANCH   1  23
BRANCH   7  26
HETATM   26  N4  UNL     1      11.692  21.118  19.653  1.00  0.00    -0.374 N 
ATOM     27  H4  UNL     1      11.135  21.475  20.429  1.00  0.00     0.161 HD
BRANCH  26  28
HETATM   28  C10 UNL     1      13.079  20.790  19.873  1.00  0.00     0.121 C 
BRANCH  28  29
HETATM   29  C11 UNL     1      13.884  22.060  19.872  1.00  0.00     0.020 C 
BRANCH  29  30
HETATM   30  C12 UNL     1      14.361  22.410  21.254  1.00  0.00     0.003 C 
BRANCH  30  31
HETATM   31  C13 UNL     1      13.557  23.506  21.898  1.00  0.00     0.027 C 
BRANCH  31  32
HETATM   32  C14 UNL     1      13.379  24.593  20.829  1.00  0.00     0.229 C 
BRANCH  32  33
HETATM   33  N5  UNL     1      11.954  24.928  20.852  1.00  0.00    -0.079 N 
ATOM     34  H53 UNL     1      11.424  24.419  21.558  1.00  0.00     0.274 HD
ATOM     35  H52 UNL     1      11.758  25.864  21.206  1.00  0.00     0.274 HD
ATOM     36  H51 UNL     1      11.625  24.771  19.899  1.00  0.00     0.274 HD
ENDBRANCH  32  33
ENDBRANCH  31  32
ENDBRANCH  30  31
ENDBRANCH  29  30
ENDBRANCH  28  29
ENDBRANCH  26  28
ENDBRANCH   7  26
TORSDOF 14
ENDMDL
MODEL 5
REMARK VINA RESULT: -6.400313641      1.602      2.617
REMARK  14 active torsions:
REMARK  status: ('A' for Active; 'I' for Inactive)
REMARK    1  A    between atoms: N1_1  and  C1_4 
REMARK    2  A    between atoms: C2_7  and  O1_8 
REMARK    3  A    between atoms: O1_8  and  C3_9 
REMARK    4  A    between atoms: C4_11  and  C5_12 
REMARK    5  A    between atoms: C5_12  and  O3_13 
REMARK    6  A    between atoms: C6_15  and  O4_16 
REMARK    7  A    between atoms: C7_18  and  O5_19 
REMARK    8  A    between atoms: C9_23  and  N4_24 
REMARK    9  A    between atoms: N4_24  and  C10_26 
REMARK   10  A    between atoms: C10_26  and  C11_27 
REMARK   11  A    between atoms: C11_27  and  C12_28 
REMARK   12  A    between atoms: C12_28  and  C13_29 
REMARK   13  A    between atoms: C13_29  and  C14_30 
REMARK   14  A    between atoms: C14_30  and  N5_31 
ROOT
HETATM    1  C1  UNL     1      11.036  19.870  19.028  1.00  0.00     0.679 A 
HETATM    2  N2  UNL     1      10.381  20.505  18.055  1.00  0.00    -0.169 N 
ATOM      3  H2  UNL     1       9.678  20.009  17.507  1.00  0.00     0.186 HD
HETATM    4  C2  UNL     1      10.645  21.792  17.796  1.00  0.00     0.188 A 
HETATM    5  C8  UNL     1      11.616  22.491  18.548  1.00  0.00     0.142 A 
HETATM    6  N3  UNL     1      11.893  23.850  18.274  1.00  0.00    -0.094 NA
HETATM    7  C9  UNL     1      12.271  21.813  19.541  1.00  0.00     0.145 A 
HETATM    8  N6  UNL     1      11.963  20.524  19.752  1.00  0.00    -0.175 N 
ATOM      9  H6  UNL     1      12.451  20.019  20.491  1.00  0.00     0.186 HD
ENDROOT
BRANCH   4  10
HETATM   10  O1  UNL     1      10.005  22.509  16.805  1.00  0.00    -0.299 OA
BRANCH  10  11
HETATM   11  C3  UNL     1      10.166  22.337  15.453  1.00  0.00     0.300 C 
HETATM   12  O2  UNL     1       9.618  21.090  15.059  1.00  0.00    -0.348 OA
HETATM   13  C4  UNL     1       9.595  21.162  13.661  1.00  0.00     0.179 C 
HETATM   14  C6  UNL     1       9.125  22.553  13.340  1.00  0.00     0.182 C 
HETATM   15  C7  UNL     1       9.335  23.309  14.621  1.00  0.00     0.205 C 
BRANCH  13  16
HETATM   16  C5  UNL     1       8.636  20.097  13.169  1.00  0.00     0.198 C 
BRANCH  16  17
HETATM   17  O3  UNL     1       8.832  19.829  11.829  1.00  0.00    -0.398 OA
ATOM     18  H3  UNL     1       9.757  19.757  11.626  1.00  0.00     0.209 HD
ENDBRANCH  16  17
ENDBRANCH  13  16
BRANCH  14  19
HETATM   19  O4  UNL     1       7.825  22.603  12.885  1.00  0.00    -0.390 OA
ATOM     20  H4  UNL     1       7.415  23.452  13.000  1.00  0.00     0.210 HD
ENDBRANCH  14  19
BRANCH  15  21
HETATM   21  O5  UNL     1       8.146  23.640  15.216  1.00  0.00    -0.388 OA
ATOM     22  H5  UNL     1       7.616  24.222  14.684  1.00  0.00     0.210 HD
ENDBRANCH  15  21
ENDBRANCH  10  11
ENDBRANCH   4  10
BRANCH   1  23
HETATM   23  N1  UNL     1      10.757  18.620  19.253  1.00  0.00    -0.234 N 
ATOM     24  H12 UNL     1      10.607  17.962  18.489  1.00  0.00     0.174 HD
ATOM     25  H11 UNL     1      10.690  18.302  20.220  1.00  0.00     0.174 HD
ENDBRANCH   1  23
BRANCH   7  26
HETATM   26  N4  UNL     1      13.181  22.371  20.284  1.00  0.00    -0.374 N 
ATOM     27  H4  UNL     1      13.196  23.387  20.372  1.00  0.00     0.161 HD
BRANCH  26  28
HETATM   28  C10 UNL     1      14.168  21.589  20.987  1.00  0.00     0.121 C 
BRANCH  28  29
HETATM   29  C11 UNL     1      15.461  21.637  20.219  1.00  0.00     0.020 C 
BRANCH  29  30
HETATM   30  C12 UNL     1      16.159  20.306  20.235  1.00  0.00     0.003 C 
BRANCH  30  31
HETATM   31  C13 UNL     1      15.230  19.155  20.510  1.00  0.00     0.027 C 
BRANCH  31  32
HETATM   32  C14 UNL     1      15.919  18.293  21.577  1.00  0.00     0.229 C 
BRANCH  32  33
HETATM   33  N5  UNL     1      15.218  18.591  22.826  1.00  0.00    -0.079 N 
ATOM     34  H53 UNL     1      15.585  19.405  23.319  1.00  0.00     0.274 HD
ATOM     35  H52 UNL     1      14.272  18.949  22.692  1.00  0.00     0.274 HD
ATOM     36  H51 UNL     1      15.258  17.729  23.370  1.00  0.00     0.274 HD
ENDBRANCH  32  33
ENDBRANCH  31  32
ENDBRANCH  30  31
ENDBRANCH  29  30
ENDBRANCH  28  29
ENDBRANCH  26  28
ENDBRANCH   7  26
TORSDOF 14
ENDMDL
