MODEL 1
REMARK VINA RESULT: -5.315212818      0.000      0.000
REMARK  4 active torsions:
REMARK  status: ('A' for Active; 'I' for Inactive)
REMARK    1  A    between atoms: C3_3  and  C4_4 
REMARK    2  A    between atoms: C4_4  and  N1_5 
REMARK    3  A    between atoms: N1_5  and  C5_7 
REMARK    4  A    between atoms: C8_16  and  C9_17 
ROOT
HETATM    1  C1  UNL     1     -43.633   4.389   2.374  1.00  0.00     0.012 C 
HETATM    2  C2  UNL     1     -43.731   3.956   1.255  1.00  0.00    -0.116 C 
HETATM    3  C3  UNL     1     -43.866   3.422  -0.080  1.00  0.00     0.112 C 
ENDROOT
BRANCH   3   4
HETATM    4  C4  UNL     1     -42.461   3.146  -0.630  1.00  0.00     0.133 C 
BRANCH   4   5
HETATM    5  N1  UNL     1     -41.804   4.410  -0.726  1.00  0.00    -0.373 N 
ATOM      6  H1  UNL     1     -41.310   4.732   0.107  1.00  0.00     0.161 HD
BRANCH   5   7
HETATM    7  C5  UNL     1     -41.768   5.172  -1.734  1.00  0.00     0.133 A 
HETATM    8  N2  UNL     1     -41.226   4.779  -2.893  1.00  0.00    -0.337 N 
HETATM    9  C6  UNL     1     -41.196   5.617  -3.975  1.00  0.00     0.183 A 
ATOM     10  H2  UNL     1     -40.830   3.842  -2.970  1.00  0.00     0.168 HD
HETATM   11  N3  UNL     1     -41.701   6.856  -3.928  1.00  0.00    -0.337 N 
HETATM   12  C7  UNL     1     -42.258   7.295  -2.778  1.00  0.00     0.138 A 
ATOM     13  H3  UNL     1     -41.665   7.461  -4.749  1.00  0.00     0.168 HD
HETATM   14  N4  UNL     1     -42.841   8.441  -2.386  1.00  0.00    -0.327 N 
HETATM   15  C11 UNL     1     -42.293   6.441  -1.663  1.00  0.00     0.122 A 
HETATM   16  C8  UNL     1     -43.221   8.319  -1.105  1.00  0.00     0.106 A 
ATOM     17  H4  UNL     1     -42.973   9.269  -2.967  1.00  0.00     0.169 HD
HETATM   18  N5  UNL     1     -42.882   7.085  -0.660  1.00  0.00    -0.336 N 
ATOM     19  H5  UNL     1     -43.049   6.716   0.276  1.00  0.00     0.168 HD
BRANCH  16  20
HETATM   20  C9  UNL     1     -43.883   9.322  -0.306  1.00  0.00     0.038 C 
HETATM   21  C10 UNL     1     -45.114   9.705  -0.607  1.00  0.00     0.015 C 
ENDBRANCH  16  20
ENDBRANCH   5   7
ENDBRANCH   4   5
ENDBRANCH   3   4
TORSDOF 4
ENDMDL
MODEL 2
REMARK VINA RESULT: -5.176899735      1.694      4.049
REMARK  4 active torsions:
REMARK  status: ('A' for Active; 'I' for Inactive)
REMARK    1  A    between atoms: C3_3  and  C4_4 
REMARK    2  A    between atoms: C4_4  and  N1_5 
REMARK    3  A    between atoms: N1_5  and  C5_7 
REMARK    4  A    between atoms: C8_16  and  C9_17 
ROOT
HETATM    1  C1  UNL     1     -45.149   2.137   2.346  1.00  0.00     0.012 C 
HETATM    2  C2  UNL     1     -44.609   3.213   2.351  1.00  0.00    -0.116 C 
HETATM    3  C3  UNL     1     -43.949   4.497   2.377  1.00  0.00     0.112 C 
ENDROOT
BRANCH   3   4
HETATM    4  C4  UNL     1     -44.996   5.579   2.087  1.00  0.00     0.133 C 
BRANCH   4   5
HETATM    5  N1  UNL     1     -45.003   5.775   0.673  1.00  0.00    -0.373 N 
ATOM      6  H1  UNL     1     -45.586   5.140   0.127  1.00  0.00     0.161 HD
BRANCH   5   7
HETATM    7  C5  UNL     1     -44.363   6.652   0.025  1.00  0.00     0.133 A 
HETATM    8  N2  UNL     1     -44.670   7.952   0.112  1.00  0.00    -0.337 N 
HETATM    9  C6  UNL     1     -43.967   8.890  -0.596  1.00  0.00     0.183 A 
ATOM     10  H2  UNL     1     -45.438   8.248   0.715  1.00  0.00     0.168 HD
HETATM   11  N3  UNL     1     -42.950   8.556  -1.401  1.00  0.00    -0.337 N 
HETATM   12  C7  UNL     1     -42.606   7.255  -1.519  1.00  0.00     0.138 A 
ATOM     13  H3  UNL     1     -42.443   9.274  -1.918  1.00  0.00     0.168 HD
HETATM   14  N4  UNL     1     -41.670   6.582  -2.213  1.00  0.00    -0.327 N 
HETATM   15  C11 UNL     1     -43.322   6.287  -0.796  1.00  0.00     0.122 A 
HETATM   16  C8  UNL     1     -41.788   5.274  -1.945  1.00  0.00     0.106 A 
ATOM     17  H4  UNL     1     -40.983   6.999  -2.841  1.00  0.00     0.169 HD
HETATM   18  N5  UNL     1     -42.808   5.092  -1.070  1.00  0.00    -0.336 N 
ATOM     19  H5  UNL     1     -43.124   4.199  -0.691  1.00  0.00     0.168 HD
BRANCH  16  20
HETATM   20  C9  UNL     1     -40.976   4.210  -2.485  1.00  0.00     0.038 C 
HETATM   21  C10 UNL     1     -40.495   3.270  -1.686  1.00  0.00     0.015 C 
ENDBRANCH  16  20
ENDBRANCH   5   7
ENDBRANCH   4   5
ENDBRANCH   3   4
TORSDOF 4
ENDMDL
MODEL 3
REMARK VINA RESULT: -5.089452174      1.538      1.935
REMARK  4 active torsions:
REMARK  status: ('A' for Active; 'I' for Inactive)
REMARK    1  A    between atoms: C3_3  and  C4_4 
REMARK    2  A    between atoms: C4_4  and  N1_5 
REMARK    3  A    between atoms: N1_5  and  C5_7 
REMARK    4  A    between atoms: C8_16  and  C9_17 
ROOT
HETATM    1  C1  UNL     1     -43.869   4.400   2.363  1.00  0.00     0.012 C 
HETATM    2  C2  UNL     1     -43.586   3.751   1.389  1.00  0.00    -0.116 C 
HETATM    3  C3  UNL     1     -43.239   2.954   0.235  1.00  0.00     0.112 C 
ENDROOT
BRANCH   3   4
HETATM    4  C4  UNL     1     -42.457   3.842  -0.742  1.00  0.00     0.133 C 
BRANCH   4   5
HETATM    5  N1  UNL     1     -43.385   4.793  -1.264  1.00  0.00    -0.373 N 
ATOM      6  H1  UNL     1     -44.355   4.487  -1.343  1.00  0.00     0.161 HD
BRANCH   5   7
HETATM    7  C5  UNL     1     -43.131   5.974  -1.639  1.00  0.00     0.133 A 
HETATM    8  N2  UNL     1     -42.324   6.222  -2.677  1.00  0.00    -0.337 N 
HETATM    9  C6  UNL     1     -42.060   7.506  -3.071  1.00  0.00     0.183 A 
ATOM     10  H2  UNL     1     -41.901   5.443  -3.183  1.00  0.00     0.168 HD
HETATM   11  N3  UNL     1     -42.589   8.564  -2.443  1.00  0.00    -0.337 N 
HETATM   12  C7  UNL     1     -43.409   8.360  -1.389  1.00  0.00     0.138 A 
ATOM     13  H3  UNL     1     -42.375   9.511  -2.756  1.00  0.00     0.168 HD
HETATM   14  N4  UNL     1     -44.093   9.161  -0.552  1.00  0.00    -0.327 N 
HETATM   15  C11 UNL     1     -43.685   7.045  -0.980  1.00  0.00     0.122 A 
HETATM   16  C8  UNL     1     -44.758   8.400   0.329  1.00  0.00     0.106 A 
ATOM     17  H4  UNL     1     -44.103  10.180  -0.582  1.00  0.00     0.169 HD
HETATM   18  N5  UNL     1     -44.507   7.095   0.065  1.00  0.00    -0.336 N 
ATOM     19  H5  UNL     1     -44.880   6.294   0.576  1.00  0.00     0.168 HD
BRANCH  16  20
HETATM   20  C9  UNL     1     -45.611   8.868   1.396  1.00  0.00     0.038 C 
HETATM   21  C10 UNL     1     -45.805   8.118   2.469  1.00  0.00     0.015 C 
ENDBRANCH  16  20
ENDBRANCH   5   7
ENDBRANCH   4   5
ENDBRANCH   3   4
TORSDOF 4
ENDMDL
MODEL 4
REMARK VINA RESULT: -5.072868205      1.446      3.857
REMARK  4 active torsions:
REMARK  status: ('A' for Active; 'I' for Inactive)
REMARK    1  A    between atoms: C3_3  and  C4_4 
REMARK    2  A    between atoms: C4_4  and  N1_5 
REMARK    3  A    between atoms: N1_5  and  C5_7 
REMARK    4  A    between atoms: C8_16  and  C9_17 
ROOT
HETATM    1  C1  UNL     1     -45.195   2.141   2.364  1.00  0.00     0.012 C 
HETATM    2  C2  UNL     1     -44.590   3.182   2.338  1.00  0.00    -0.116 C 
HETATM    3  C3  UNL     1     -43.861   4.429   2.331  1.00  0.00     0.112 C 
ENDROOT
BRANCH   3   4
HETATM    4  C4  UNL     1     -44.610   5.415   1.425  1.00  0.00     0.133 C 
BRANCH   4   5
HETATM    5  N1  UNL     1     -43.957   5.383   0.156  1.00  0.00    -0.373 N 
ATOM      6  H1  UNL     1     -43.739   4.461  -0.222  1.00  0.00     0.161 HD
BRANCH   5   7
HETATM    7  C5  UNL     1     -43.619   6.377  -0.549  1.00  0.00     0.133 A 
HETATM    8  N2  UNL     1     -43.986   7.623  -0.226  1.00  0.00    -0.337 N 
HETATM    9  C6  UNL     1     -43.612   8.689  -1.000  1.00  0.00     0.183 A 
ATOM     10  H2  UNL     1     -44.552   7.781   0.609  1.00  0.00     0.168 HD
HETATM   11  N3  UNL     1     -42.870   8.538  -2.105  1.00  0.00    -0.337 N 
HETATM   12  C7  UNL     1     -42.477   7.298  -2.468  1.00  0.00     0.138 A 
ATOM     13  H3  UNL     1     -42.606   9.350  -2.664  1.00  0.00     0.168 HD
HETATM   14  N4  UNL     1     -41.752   6.794  -3.482  1.00  0.00    -0.327 N 
HETATM   15  C11 UNL     1     -42.857   6.200  -1.679  1.00  0.00     0.122 A 
HETATM   16  C8  UNL     1     -41.678   5.462  -3.342  1.00  0.00     0.106 A 
ATOM     17  H4  UNL     1     -41.327   7.335  -4.234  1.00  0.00     0.169 HD
HETATM   18  N5  UNL     1     -42.360   5.096  -2.229  1.00  0.00    -0.336 N 
ATOM     19  H5  UNL     1     -42.472   4.145  -1.877  1.00  0.00     0.168 HD
BRANCH  16  20
HETATM   20  C9  UNL     1     -40.991   4.543  -4.217  1.00  0.00     0.038 C 
HETATM   21  C10 UNL     1     -41.428   4.349  -5.451  1.00  0.00     0.015 C 
ENDBRANCH  16  20
ENDBRANCH   5   7
ENDBRANCH   4   5
ENDBRANCH   3   4
TORSDOF 4
ENDMDL
MODEL 5
REMARK VINA RESULT: -5.071047554      1.543      2.119
REMARK  4 active torsions:
REMARK  status: ('A' for Active; 'I' for Inactive)
REMARK    1  A    between atoms: C3_3  and  C4_4 
REMARK    2  A    between atoms: C4_4  and  N1_5 
REMARK    3  A    between atoms: N1_5  and  C5_7 
REMARK    4  A    between atoms: C8_16  and  C9_17 
ROOT
HETATM    1  C1  UNL     1     -46.172   3.264   3.108  1.00  0.00     0.012 C 
HETATM    2  C2  UNL     1     -45.101   3.702   2.776  1.00  0.00    -0.116 C 
HETATM    3  C3  UNL     1     -43.822   4.250   2.388  1.00  0.00     0.112 C 
ENDROOT
BRANCH   3   4
HETATM    4  C4  UNL     1     -43.518   3.787   0.957  1.00  0.00     0.133 C 
BRANCH   4   5
HETATM    5  N1  UNL     1     -44.014   4.802   0.084  1.00  0.00    -0.373 N 
ATOM      6  H1  UNL     1     -45.024   4.821  -0.066  1.00  0.00     0.161 HD
BRANCH   5   7
HETATM    7  C5  UNL     1     -43.336   5.680  -0.522  1.00  0.00     0.133 A 
HETATM    8  N2  UNL     1     -42.215   5.367  -1.184  1.00  0.00    -0.337 N 
HETATM    9  C6  UNL     1     -41.491   6.329  -1.836  1.00  0.00     0.183 A 
ATOM     10  H2  UNL     1     -41.896   4.398  -1.202  1.00  0.00     0.168 HD
HETATM   11  N3  UNL     1     -41.865   7.615  -1.843  1.00  0.00    -0.337 N 
HETATM   12  C7  UNL     1     -42.990   7.976  -1.188  1.00  0.00     0.138 A 
ATOM     13  H3  UNL     1     -41.307   8.313  -2.336  1.00  0.00     0.168 HD
HETATM   14  N4  UNL     1     -43.641   9.137  -0.992  1.00  0.00    -0.327 N 
HETATM   15  C11 UNL     1     -43.738   6.994  -0.517  1.00  0.00     0.122 A 
HETATM   16  C8  UNL     1     -44.730   8.903  -0.245  1.00  0.00     0.106 A 
ATOM     17  H4  UNL     1     -43.353  10.046  -1.352  1.00  0.00     0.169 HD
HETATM   18  N5  UNL     1     -44.789   7.581   0.048  1.00  0.00    -0.336 N 
ATOM     19  H5  UNL     1     -45.511   7.119   0.602  1.00  0.00     0.168 HD
BRANCH  16  20
HETATM   20  C9  UNL     1     -45.698   9.880   0.191  1.00  0.00     0.038 C 
HETATM   21  C10 UNL     1     -46.312  10.648  -0.695  1.00  0.00     0.015 C 
ENDBRANCH  16  20
ENDBRANCH   5   7
ENDBRANCH   4   5
ENDBRANCH   3   4
TORSDOF 4
ENDMDL
