MODEL 1
REMARK VINA RESULT: -6.003942969      0.000      0.000
REMARK  5 active torsions:
REMARK  status: ('A' for Active; 'I' for Inactive)
REMARK    1  A    between atoms: C2_3  and  N2_4 
REMARK    2  A    between atoms: N2_4  and  C3_6 
REMARK    3  A    between atoms: C3_6  and  N3_8 
REMARK    4  A    between atoms: N3_8  and  C4_10 
REMARK    5  A    between atoms: C4_10  and  N4_12 
ROOT
HETATM    1  N1  UNL     1      11.115   6.978  12.620  1.00  0.00    -0.196 NA
HETATM    2  C1  UNL     1      12.044   6.490  12.151  1.00  0.00     0.078 C 
HETATM    3  C2  UNL     1      13.203   5.855  11.568  1.00  0.00     0.246 C 
ENDROOT
BRANCH   3   4
HETATM    4  N2  UNL     1      14.203   5.508  12.540  1.00  0.00    -0.355 N 
ATOM      5  H2  UNL     1      13.952   5.431  13.525  1.00  0.00     0.162 HD
BRANCH   4   6
HETATM    6  C3  UNL     1      15.534   5.273  12.131  1.00  0.00     0.174 C 
HETATM    7  S1  UNL     1      16.226   3.866  12.560  1.00  0.00    -0.041 SA
BRANCH   6   8
HETATM    8  N3  UNL     1      16.194   6.263  11.377  1.00  0.00    -0.310 N 
ATOM      9  H3  UNL     1      16.154   6.203  10.360  1.00  0.00     0.170 HD
BRANCH   8  10
HETATM   10  C4  UNL     1      16.902   7.325  11.952  1.00  0.00     0.176 C 
HETATM   11  S2  UNL     1      18.367   7.077  12.683  1.00  0.00    -0.041 SA
BRANCH  10  12
HETATM   12  N4  UNL     1      16.376   8.673  11.929  1.00  0.00    -0.358 N 
HETATM   13  C5  UNL     1      15.331   8.863  10.953  1.00  0.00     0.125 C 
HETATM   14  C6  UNL     1      14.323   9.827  11.525  1.00  0.00     0.020 C 
HETATM   15  C7  UNL     1      14.688  11.265  11.206  1.00  0.00     0.002 C 
HETATM   16  C8  UNL     1      16.134  11.548  11.626  1.00  0.00     0.002 C 
HETATM   17  C9  UNL     1      16.456  10.927  12.940  1.00  0.00     0.020 C 
HETATM   18  C10 UNL     1      17.006   9.528  12.877  1.00  0.00     0.125 C 
ENDBRANCH  10  12
ENDBRANCH   8  10
ENDBRANCH   6   8
ENDBRANCH   4   6
ENDBRANCH   3   4
TORSDOF 5
ENDMDL
MODEL 2
REMARK VINA RESULT: -5.961007065      3.906      4.859
REMARK  5 active torsions:
REMARK  status: ('A' for Active; 'I' for Inactive)
REMARK    1  A    between atoms: C2_3  and  N2_4 
REMARK    2  A    between atoms: N2_4  and  C3_6 
REMARK    3  A    between atoms: C3_6  and  N3_8 
REMARK    4  A    between atoms: N3_8  and  C4_10 
REMARK    5  A    between atoms: C4_10  and  N4_12 
ROOT
HETATM    1  N1  UNL     1      10.314   3.200   5.663  1.00  0.00    -0.196 NA
HETATM    2  C1  UNL     1      10.794   4.111   6.176  1.00  0.00     0.078 C 
HETATM    3  C2  UNL     1      11.408   5.239   6.836  1.00  0.00     0.246 C 
ENDROOT
BRANCH   3   4
HETATM    4  N2  UNL     1      10.748   5.603   8.060  1.00  0.00    -0.355 N 
ATOM      5  H2  UNL     1       9.735   5.710   8.080  1.00  0.00     0.162 HD
BRANCH   4   6
HETATM    6  C3  UNL     1      11.503   5.812   9.235  1.00  0.00     0.174 C 
HETATM    7  S1  UNL     1      12.457   4.602   9.753  1.00  0.00    -0.041 SA
BRANCH   6   8
HETATM    8  N3  UNL     1      11.395   7.051   9.896  1.00  0.00    -0.310 N 
ATOM      9  H3  UNL     1      10.829   7.782   9.464  1.00  0.00     0.170 HD
BRANCH   8  10
HETATM   10  C4  UNL     1      12.023   7.330  11.115  1.00  0.00     0.176 C 
HETATM   11  S2  UNL     1      11.309   6.930  12.555  1.00  0.00    -0.041 SA
BRANCH  10  12
HETATM   12  N4  UNL     1      13.316   7.979  11.158  1.00  0.00    -0.358 N 
HETATM   13  C5  UNL     1      14.312   7.221  11.875  1.00  0.00     0.125 C 
HETATM   14  C6  UNL     1      15.640   7.422  11.189  1.00  0.00     0.020 C 
HETATM   15  C7  UNL     1      16.370   8.634  11.737  1.00  0.00     0.002 C 
HETATM   16  C8  UNL     1      15.455   9.862  11.702  1.00  0.00     0.002 C 
HETATM   17  C9  UNL     1      14.665   9.922  10.442  1.00  0.00     0.020 C 
HETATM   18  C10 UNL     1      13.329   9.232  10.482  1.00  0.00     0.125 C 
ENDBRANCH  10  12
ENDBRANCH   8  10
ENDBRANCH   6   8
ENDBRANCH   4   6
ENDBRANCH   3   4
TORSDOF 5
ENDMDL
MODEL 3
REMARK VINA RESULT: -5.940719831      1.002      1.016
REMARK  5 active torsions:
REMARK  status: ('A' for Active; 'I' for Inactive)
REMARK    1  A    between atoms: C2_3  and  N2_4 
REMARK    2  A    between atoms: N2_4  and  C3_6 
REMARK    3  A    between atoms: C3_6  and  N3_8 
REMARK    4  A    between atoms: N3_8  and  C4_10 
REMARK    5  A    between atoms: C4_10  and  N4_12 
ROOT
HETATM    1  N1  UNL     1      11.188   5.814  10.360  1.00  0.00    -0.196 NA
HETATM    2  C1  UNL     1      11.874   6.215  11.192  1.00  0.00     0.078 C 
HETATM    3  C2  UNL     1      12.751   6.723  12.219  1.00  0.00     0.246 C 
ENDROOT
BRANCH   3   4
HETATM    4  N2  UNL     1      13.820   5.819  12.546  1.00  0.00    -0.355 N 
ATOM      5  H2  UNL     1      13.918   5.471  13.500  1.00  0.00     0.162 HD
BRANCH   4   6
HETATM    6  C3  UNL     1      14.733   5.412  11.549  1.00  0.00     0.174 C 
HETATM    7  S1  UNL     1      14.837   3.825  11.213  1.00  0.00    -0.041 SA
BRANCH   6   8
HETATM    8  N3  UNL     1      15.504   6.394  10.898  1.00  0.00    -0.310 N 
ATOM      9  H3  UNL     1      15.408   6.495   9.888  1.00  0.00     0.170 HD
BRANCH   8  10
HETATM   10  C4  UNL     1      16.396   7.240  11.567  1.00  0.00     0.176 C 
HETATM   11  S2  UNL     1      17.814   6.660  12.196  1.00  0.00    -0.041 SA
BRANCH  10  12
HETATM   12  N4  UNL     1      16.109   8.649  11.733  1.00  0.00    -0.358 N 
HETATM   13  C5  UNL     1      15.102   9.139  10.823  1.00  0.00     0.125 C 
HETATM   14  C6  UNL     1      14.280  10.175  11.545  1.00  0.00     0.020 C 
HETATM   15  C7  UNL     1      14.883  11.560  11.401  1.00  0.00     0.002 C 
HETATM   16  C8  UNL     1      16.360  11.539  11.807  1.00  0.00     0.002 C 
HETATM   17  C9  UNL     1      16.583  10.705  13.020  1.00  0.00     0.020 C 
HETATM   18  C10 UNL     1      16.885   9.254  12.762  1.00  0.00     0.125 C 
ENDBRANCH  10  12
ENDBRANCH   8  10
ENDBRANCH   6   8
ENDBRANCH   4   6
ENDBRANCH   3   4
TORSDOF 5
ENDMDL
MODEL 4
REMARK VINA RESULT: -5.895392078      3.718      4.755
REMARK  5 active torsions:
REMARK  status: ('A' for Active; 'I' for Inactive)
REMARK    1  A    between atoms: C2_3  and  N2_4 
REMARK    2  A    between atoms: N2_4  and  C3_6 
REMARK    3  A    between atoms: C3_6  and  N3_8 
REMARK    4  A    between atoms: N3_8  and  C4_10 
REMARK    5  A    between atoms: C4_10  and  N4_12 
ROOT
HETATM    1  N1  UNL     1       8.096   4.769   6.606  1.00  0.00    -0.196 NA
HETATM    2  C1  UNL     1       8.826   4.358   7.394  1.00  0.00     0.078 C 
HETATM    3  C2  UNL     1       9.724   3.836   8.397  1.00  0.00     0.246 C 
ENDROOT
BRANCH   3   4
HETATM    4  N2  UNL     1       9.920   4.736   9.501  1.00  0.00    -0.355 N 
ATOM      5  H2  UNL     1       9.126   5.023  10.072  1.00  0.00     0.162 HD
BRANCH   4   6
HETATM    6  C3  UNL     1      11.212   5.223   9.795  1.00  0.00     0.174 C 
HETATM    7  S1  UNL     1      12.445   4.163   9.795  1.00  0.00    -0.041 SA
BRANCH   6   8
HETATM    8  N3  UNL     1      11.370   6.595  10.072  1.00  0.00    -0.310 N 
ATOM      9  H3  UNL     1      11.036   7.270   9.384  1.00  0.00     0.170 HD
BRANCH   8  10
HETATM   10  C4  UNL     1      11.963   7.080  11.244  1.00  0.00     0.176 C 
HETATM   11  S2  UNL     1      11.209   6.921  12.710  1.00  0.00    -0.041 SA
BRANCH  10  12
HETATM   12  N4  UNL     1      13.252   7.738  11.213  1.00  0.00    -0.358 N 
HETATM   13  C5  UNL     1      14.285   7.004  11.902  1.00  0.00     0.125 C 
HETATM   14  C6  UNL     1      15.578   7.196  11.151  1.00  0.00     0.020 C 
HETATM   15  C7  UNL     1      16.323   8.425  11.637  1.00  0.00     0.002 C 
HETATM   16  C8  UNL     1      15.399   9.647  11.615  1.00  0.00     0.002 C 
HETATM   17  C9  UNL     1      14.552   9.672  10.391  1.00  0.00     0.020 C 
HETATM   18  C10 UNL     1      13.225   8.974  10.508  1.00  0.00     0.125 C 
ENDBRANCH  10  12
ENDBRANCH   8  10
ENDBRANCH   6   8
ENDBRANCH   4   6
ENDBRANCH   3   4
TORSDOF 5
ENDMDL
MODEL 5
REMARK VINA RESULT: -5.875592233      4.283      5.442
REMARK  5 active torsions:
REMARK  status: ('A' for Active; 'I' for Inactive)
REMARK    1  A    between atoms: C2_3  and  N2_4 
REMARK    2  A    between atoms: N2_4  and  C3_6 
REMARK    3  A    between atoms: C3_6  and  N3_8 
REMARK    4  A    between atoms: N3_8  and  C4_10 
REMARK    5  A    between atoms: C4_10  and  N4_12 
ROOT
HETATM    1  N1  UNL     1       9.976   1.245   8.894  1.00  0.00    -0.196 NA
HETATM    2  C1  UNL     1       9.535   2.308   8.915  1.00  0.00     0.078 C 
HETATM    3  C2  UNL     1       8.966   3.634   8.925  1.00  0.00     0.246 C 
ENDROOT
BRANCH   3   4
HETATM    4  N2  UNL     1       9.319   4.408   7.767  1.00  0.00    -0.355 N 
ATOM      5  H2  UNL     1       8.685   4.451   6.970  1.00  0.00     0.162 HD
BRANCH   4   6
HETATM    6  C3  UNL     1      10.544   5.110   7.732  1.00  0.00     0.174 C 
HETATM    7  S1  UNL     1      11.431   5.029   6.372  1.00  0.00    -0.041 SA
BRANCH   6   8
HETATM    8  N3  UNL     1      10.936   5.842   8.870  1.00  0.00    -0.310 N 
ATOM      9  H3  UNL     1      10.315   6.577   9.211  1.00  0.00     0.170 HD
BRANCH   8  10
HETATM   10  C4  UNL     1      12.133   5.613   9.558  1.00  0.00     0.176 C 
HETATM   11  S2  UNL     1      12.674   4.074   9.840  1.00  0.00    -0.041 SA
BRANCH  10  12
HETATM   12  N4  UNL     1      12.937   6.714  10.046  1.00  0.00    -0.358 N 
HETATM   13  C5  UNL     1      12.170   7.904  10.322  1.00  0.00     0.125 C 
HETATM   14  C6  UNL     1      12.771   8.581  11.528  1.00  0.00     0.020 C 
HETATM   15  C7  UNL     1      13.869   9.550  11.129  1.00  0.00     0.002 C 
HETATM   16  C8  UNL     1      14.892   8.849  10.230  1.00  0.00     0.002 C 
HETATM   17  C9  UNL     1      15.193   7.472  10.711  1.00  0.00     0.020 C 
HETATM   18  C10 UNL     1      14.318   6.386  10.149  1.00  0.00     0.125 C 
ENDBRANCH  10  12
ENDBRANCH   8  10
ENDBRANCH   6   8
ENDBRANCH   4   6
ENDBRANCH   3   4
TORSDOF 5
ENDMDL
