MODEL 1
REMARK VINA RESULT: -6.567256138      0.000      0.000
REMARK  9 active torsions:
REMARK  status: ('A' for Active; 'I' for Inactive)
REMARK    1  A    between atoms: C2_2  and  C3_3 
REMARK    2  A    between atoms: C3_3  and  C5_5 
REMARK    3  A    between atoms: C5_5  and  N1_6 
REMARK    4  A    between atoms: C5_5  and  C6_10 
REMARK       I    between atoms: C6_10  and  N2_12 
REMARK    5  A    between atoms: N2_12  and  N3_14 
REMARK       I    between atoms: N4_19  and  C11_21 
REMARK    6  A    between atoms: C11_21  and  C12_23 
REMARK    7  A    between atoms: C12_23  and  N5_24 
REMARK    8  A    between atoms: C12_23  and  C15_33 
REMARK       I    between atoms: N5_24  and  C13_26 
REMARK    9  A    between atoms: C13_26  and  C14_28 
ROOT
HETATM    1  N3  UNL     1      -3.361  -5.625  17.112  1.00  0.00    -0.278 N 
HETATM    2  C7  UNL     1      -1.940  -5.688  16.895  1.00  0.00     0.151 C 
HETATM    3  C8  UNL     1      -1.677  -7.060  16.351  1.00  0.00     0.029 C 
HETATM    4  C9  UNL     1      -2.927  -7.843  16.634  1.00  0.00     0.080 C 
HETATM    5  C10 UNL     1      -3.842  -6.939  17.363  1.00  0.00     0.101 C 
HETATM    6  N4  UNL     1      -4.854  -7.299  18.076  1.00  0.00    -0.313 N 
ATOM      7  H4  UNL     1      -5.402  -6.570  18.534  1.00  0.00     0.170 HD
HETATM    8  C11 UNL     1      -5.250  -8.639  18.262  1.00  0.00     0.254 C 
HETATM    9  O2  UNL     1      -4.444  -9.418  18.827  1.00  0.00    -0.270 OA
ENDROOT
BRANCH   1  10
HETATM   10  N2  UNL     1      -4.106  -4.452  17.073  1.00  0.00    -0.265 N 
HETATM   11  C6  UNL     1      -4.562  -3.756  18.208  1.00  0.00     0.267 C 
HETATM   12  O1  UNL     1      -4.227  -4.300  19.322  1.00  0.00    -0.269 OA
ATOM     13  H2  UNL     1      -4.339  -4.069  16.157  1.00  0.00     0.190 HD
BRANCH  11  14
HETATM   14  C5  UNL     1      -5.344  -2.525  18.208  1.00  0.00     0.280 C 
BRANCH  14  15
HETATM   15  C3  UNL     1      -5.768  -2.034  19.573  1.00  0.00     0.021 C 
HETATM   16  C4  UNL     1      -7.171  -1.546  19.655  1.00  0.00     0.012 C 
BRANCH  15  17
HETATM   17  C2  UNL     1      -4.875  -0.848  19.970  1.00  0.00     0.002 C 
HETATM   18  C1  UNL     1      -5.470  -0.050  21.087  1.00  0.00     0.005 C 
ENDBRANCH  15  17
ENDBRANCH  14  15
BRANCH  14  19
HETATM   19  N1  UNL     1      -4.487  -1.473  17.617  1.00  0.00    -0.066 N 
ATOM     20  H13 UNL     1      -4.222  -1.668  16.652  1.00  0.00     0.275 HD
ATOM     21  H12 UNL     1      -4.986  -0.601  17.442  1.00  0.00     0.275 HD
ATOM     22  H11 UNL     1      -3.685  -1.359  18.237  1.00  0.00     0.275 HD
ENDBRANCH  14  19
ENDBRANCH  11  14
ENDBRANCH   1  10
BRANCH   8  23
HETATM   23  C12 UNL     1      -6.567  -9.170  17.826  1.00  0.00     0.267 C 
BRANCH  23  24
HETATM   24  N5  UNL     1      -7.279  -9.823  18.883  1.00  0.00    -0.334 N 
HETATM   25  C13 UNL     1      -8.604  -9.477  19.184  1.00  0.00     0.283 C 
HETATM   26  O3  UNL     1      -9.168  -8.575  18.509  1.00  0.00    -0.265 OA
ATOM     27  H5  UNL     1      -6.816 -10.552  19.425  1.00  0.00     0.164 HD
BRANCH  25  28
HETATM   28  C14 UNL     1      -9.330 -10.159  20.278  1.00  0.00     0.178 C 
HETATM   29  N6  UNL     1     -10.542  -9.842  20.564  1.00  0.00    -0.383 N 
ATOM     30  H62 UNL     1     -11.007  -9.108  20.028  1.00  0.00     0.157 HD
ATOM     31  H61 UNL     1     -11.043 -10.312  21.318  1.00  0.00     0.157 HD
HETATM   32  N7  UNL     1      -8.685 -11.176  21.021  1.00  0.00    -0.077 NA
ENDBRANCH  25  28
ENDBRANCH  23  24
BRANCH  23  33
HETATM   33  C15 UNL     1      -6.440 -10.099  16.685  1.00  0.00     0.263 C 
HETATM   34  N8  UNL     1      -6.137  -9.611  15.383  1.00  0.00    -0.060 NA
HETATM   35  O4  UNL     1      -6.595 -11.321  16.844  1.00  0.00    -0.274 OA
ENDBRANCH  23  33
ENDBRANCH   8  23
TORSDOF 9
ENDMDL
MODEL 2
REMARK VINA RESULT: -6.503111050      1.325      1.423
REMARK  9 active torsions:
REMARK  status: ('A' for Active; 'I' for Inactive)
REMARK    1  A    between atoms: C2_2  and  C3_3 
REMARK    2  A    between atoms: C3_3  and  C5_5 
REMARK    3  A    between atoms: C5_5  and  N1_6 
REMARK    4  A    between atoms: C5_5  and  C6_10 
REMARK       I    between atoms: C6_10  and  N2_12 
REMARK    5  A    between atoms: N2_12  and  N3_14 
REMARK       I    between atoms: N4_19  and  C11_21 
REMARK    6  A    between atoms: C11_21  and  C12_23 
REMARK    7  A    between atoms: C12_23  and  N5_24 
REMARK    8  A    between atoms: C12_23  and  C15_33 
REMARK       I    between atoms: N5_24  and  C13_26 
REMARK    9  A    between atoms: C13_26  and  C14_28 
ROOT
HETATM    1  N3  UNL     1      -3.290  -5.645  18.144  1.00  0.00    -0.278 N 
HETATM    2  C7  UNL     1      -1.857  -5.634  18.022  1.00  0.00     0.151 C 
HETATM    3  C8  UNL     1      -1.539  -6.626  16.943  1.00  0.00     0.029 C 
HETATM    4  C9  UNL     1      -2.797  -7.426  16.759  1.00  0.00     0.080 C 
HETATM    5  C10 UNL     1      -3.772  -6.922  17.748  1.00  0.00     0.101 C 
HETATM    6  N4  UNL     1      -4.829  -7.541  18.154  1.00  0.00    -0.313 N 
ATOM      7  H4  UNL     1      -5.417  -7.081  18.849  1.00  0.00     0.170 HD
HETATM    8  C11 UNL     1      -5.221  -8.815  17.694  1.00  0.00     0.254 C 
HETATM    9  O2  UNL     1      -4.448  -9.780  17.907  1.00  0.00    -0.270 OA
ENDROOT
BRANCH   1  10
HETATM   10  N2  UNL     1      -4.045  -4.562  18.581  1.00  0.00    -0.265 N 
HETATM   11  C6  UNL     1      -4.545  -3.545  17.746  1.00  0.00     0.267 C 
HETATM   12  O1  UNL     1      -4.244  -3.696  16.506  1.00  0.00    -0.269 OA
ATOM     13  H2  UNL     1      -4.251  -4.500  19.578  1.00  0.00     0.190 HD
BRANCH  11  14
HETATM   14  C5  UNL     1      -5.338  -2.396  18.166  1.00  0.00     0.280 C 
BRANCH  14  15
HETATM   15  C3  UNL     1      -5.483  -2.228  19.661  1.00  0.00     0.021 C 
HETATM   16  C4  UNL     1      -6.885  -2.219  20.156  1.00  0.00     0.012 C 
BRANCH  15  17
HETATM   17  C2  UNL     1      -4.874  -0.876  20.066  1.00  0.00     0.002 C 
HETATM   18  C1  UNL     1      -5.611  -0.252  21.208  1.00  0.00     0.005 C 
ENDBRANCH  15  17
ENDBRANCH  14  15
BRANCH  14  19
HETATM   19  N1  UNL     1      -4.645  -1.190  17.660  1.00  0.00    -0.066 N 
ATOM     20  H13 UNL     1      -5.282  -0.498  17.265  1.00  0.00     0.275 HD
ATOM     21  H12 UNL     1      -4.263  -0.606  18.403  1.00  0.00     0.275 HD
ATOM     22  H11 UNL     1      -3.939  -1.508  16.996  1.00  0.00     0.275 HD
ENDBRANCH  14  19
ENDBRANCH  11  14
ENDBRANCH   1  10
BRANCH   8  23
HETATM   23  C12 UNL     1      -6.496  -9.067  16.977  1.00  0.00     0.267 C 
BRANCH  23  24
HETATM   24  N5  UNL     1      -7.535  -9.541  17.841  1.00  0.00    -0.334 N 
HETATM   25  C13 UNL     1      -8.852  -9.078  17.711  1.00  0.00     0.283 C 
HETATM   26  O3  UNL     1      -9.116  -8.231  16.818  1.00  0.00    -0.265 OA
ATOM     27  H5  UNL     1      -7.313 -10.227  18.562  1.00  0.00     0.164 HD
BRANCH  25  28
HETATM   28  C14 UNL     1      -9.916  -9.576  18.610  1.00  0.00     0.178 C 
HETATM   29  N6  UNL     1      -9.980  -9.190  19.834  1.00  0.00    -0.383 N 
ATOM     30  H62 UNL     1      -9.285  -8.531  20.188  1.00  0.00     0.157 HD
ATOM     31  H61 UNL     1     -10.714  -9.532  20.454  1.00  0.00     0.157 HD
HETATM   32  N7  UNL     1     -10.879 -10.489  18.119  1.00  0.00    -0.077 NA
ENDBRANCH  25  28
ENDBRANCH  23  24
BRANCH  23  33
HETATM   33  C15 UNL     1      -6.326 -10.020  15.861  1.00  0.00     0.263 C 
HETATM   34  N8  UNL     1      -6.681 -11.389  16.016  1.00  0.00    -0.060 NA
HETATM   35  O4  UNL     1      -5.871  -9.640  14.769  1.00  0.00    -0.274 OA
ENDBRANCH  23  33
ENDBRANCH   8  23
TORSDOF 9
ENDMDL
MODEL 3
REMARK VINA RESULT: -6.472746868      3.615      5.689
REMARK  9 active torsions:
REMARK  status: ('A' for Active; 'I' for Inactive)
REMARK    1  A    between atoms: C2_2  and  C3_3 
REMARK    2  A    between atoms: C3_3  and  C5_5 
REMARK    3  A    between atoms: C5_5  and  N1_6 
REMARK    4  A    between atoms: C5_5  and  C6_10 
REMARK       I    between atoms: C6_10  and  N2_12 
REMARK    5  A    between atoms: N2_12  and  N3_14 
REMARK       I    between atoms: N4_19  and  C11_21 
REMARK    6  A    between atoms: C11_21  and  C12_23 
REMARK    7  A    between atoms: C12_23  and  N5_24 
REMARK    8  A    between atoms: C12_23  and  C15_33 
REMARK       I    between atoms: N5_24  and  C13_26 
REMARK    9  A    between atoms: C13_26  and  C14_28 
ROOT
HETATM    1  N3  UNL     1      -4.686  -2.307  18.812  1.00  0.00    -0.278 N 
HETATM    2  C7  UNL     1      -4.970  -1.420  17.715  1.00  0.00     0.151 C 
HETATM    3  C8  UNL     1      -5.121  -2.305  16.513  1.00  0.00     0.029 C 
HETATM    4  C9  UNL     1      -4.545  -3.630  16.924  1.00  0.00     0.080 C 
HETATM    5  C10 UNL     1      -4.042  -3.468  18.304  1.00  0.00     0.101 C 
HETATM    6  N4  UNL     1      -3.190  -4.235  18.895  1.00  0.00    -0.313 N 
ATOM      7  H4  UNL     1      -2.922  -4.006  19.852  1.00  0.00     0.170 HD
HETATM    8  C11 UNL     1      -2.607  -5.371  18.298  1.00  0.00     0.254 C 
HETATM    9  O2  UNL     1      -1.900  -5.202  17.275  1.00  0.00    -0.270 OA
ENDROOT
BRANCH   1  10
HETATM   10  N2  UNL     1      -5.004  -2.036  20.138  1.00  0.00    -0.265 N 
HETATM   11  C6  UNL     1      -6.308  -1.809  20.618  1.00  0.00     0.267 C 
HETATM   12  O1  UNL     1      -7.215  -1.874  19.710  1.00  0.00    -0.269 OA
ATOM     13  H2  UNL     1      -4.239  -2.000  20.811  1.00  0.00     0.190 HD
BRANCH  11  14
HETATM   14  C5  UNL     1      -6.681  -1.522  21.998  1.00  0.00     0.280 C 
BRANCH  14  15
HETATM   15  C3  UNL     1      -6.826  -0.056  22.333  1.00  0.00     0.021 C 
HETATM   16  C4  UNL     1      -8.084   0.575  21.850  1.00  0.00     0.012 C 
BRANCH  15  17
HETATM   17  C2  UNL     1      -5.674   0.717  21.671  1.00  0.00     0.002 C 
HETATM   18  C1  UNL     1      -4.831   1.433  22.678  1.00  0.00     0.005 C 
ENDBRANCH  15  17
ENDBRANCH  14  15
BRANCH  14  19
HETATM   19  N1  UNL     1      -8.002  -2.150  22.223  1.00  0.00    -0.066 N 
ATOM     20  H13 UNL     1      -8.613  -1.596  22.823  1.00  0.00     0.275 HD
ATOM     21  H12 UNL     1      -8.596  -2.144  21.393  1.00  0.00     0.275 HD
ATOM     22  H11 UNL     1      -7.829  -3.088  22.585  1.00  0.00     0.275 HD
ENDBRANCH  14  19
ENDBRANCH  11  14
ENDBRANCH   1  10
BRANCH   8  23
HETATM   23  C12 UNL     1      -2.786  -6.750  18.820  1.00  0.00     0.267 C 
BRANCH  23  24
HETATM   24  N5  UNL     1      -1.550  -7.460  18.949  1.00  0.00    -0.334 N 
HETATM   25  C13 UNL     1      -0.869  -7.514  20.173  1.00  0.00     0.283 C 
HETATM   26  O3  UNL     1      -1.362  -6.924  21.171  1.00  0.00    -0.265 OA
ATOM     27  H5  UNL     1      -1.157  -7.935  18.136  1.00  0.00     0.164 HD
BRANCH  25  28
HETATM   28  C14 UNL     1       0.408  -8.251  20.294  1.00  0.00     0.178 C 
HETATM   29  N6  UNL     1       1.436  -7.907  19.603  1.00  0.00    -0.383 N 
ATOM     30  H62 UNL     1       1.367  -7.114  18.964  1.00  0.00     0.157 HD
ATOM     31  H61 UNL     1       2.317  -8.415  19.686  1.00  0.00     0.157 HD
HETATM   32  N7  UNL     1       0.503  -9.350  21.179  1.00  0.00    -0.077 NA
ENDBRANCH  25  28
ENDBRANCH  23  24
BRANCH  23  33
HETATM   33  C15 UNL     1      -3.712  -7.543  17.986  1.00  0.00     0.263 C 
HETATM   34  N8  UNL     1      -3.226  -8.304  16.886  1.00  0.00    -0.060 NA
HETATM   35  O4  UNL     1      -4.929  -7.558  18.232  1.00  0.00    -0.274 OA
ENDBRANCH  23  33
ENDBRANCH   8  23
TORSDOF 9
ENDMDL
MODEL 4
REMARK VINA RESULT: -6.390929216      0.807      1.011
REMARK  9 active torsions:
REMARK  status: ('A' for Active; 'I' for Inactive)
REMARK    1  A    between atoms: C2_2  and  C3_3 
REMARK    2  A    between atoms: C3_3  and  C5_5 
REMARK    3  A    between atoms: C5_5  and  N1_6 
REMARK    4  A    between atoms: C5_5  and  C6_10 
REMARK       I    between atoms: C6_10  and  N2_12 
REMARK    5  A    between atoms: N2_12  and  N3_14 
REMARK       I    between atoms: N4_19  and  C11_21 
REMARK    6  A    between atoms: C11_21  and  C12_23 
REMARK    7  A    between atoms: C12_23  and  N5_24 
REMARK    8  A    between atoms: C12_23  and  C15_33 
REMARK       I    between atoms: N5_24  and  C13_26 
REMARK    9  A    between atoms: C13_26  and  C14_28 
ROOT
HETATM    1  N3  UNL     1      -3.297  -5.657  17.113  1.00  0.00    -0.278 N 
HETATM    2  C7  UNL     1      -1.871  -5.699  16.924  1.00  0.00     0.151 C 
HETATM    3  C8  UNL     1      -1.579  -7.067  16.382  1.00  0.00     0.029 C 
HETATM    4  C9  UNL     1      -2.824  -7.867  16.638  1.00  0.00     0.080 C 
HETATM    5  C10 UNL     1      -3.764  -6.977  17.352  1.00  0.00     0.101 C 
HETATM    6  N4  UNL     1      -4.785  -7.353  18.045  1.00  0.00    -0.313 N 
ATOM      7  H4  UNL     1      -5.351  -6.633  18.493  1.00  0.00     0.170 HD
HETATM    8  C11 UNL     1      -5.166  -8.699  18.220  1.00  0.00     0.254 C 
HETATM    9  O2  UNL     1      -4.361  -9.468  18.798  1.00  0.00    -0.270 OA
ENDROOT
BRANCH   1  10
HETATM   10  N2  UNL     1      -4.057  -4.494  17.063  1.00  0.00    -0.265 N 
HETATM   11  C6  UNL     1      -4.533  -3.800  18.191  1.00  0.00     0.267 C 
HETATM   12  O1  UNL     1      -4.202  -4.336  19.311  1.00  0.00    -0.269 OA
ATOM     13  H2  UNL     1      -4.286  -4.117  16.143  1.00  0.00     0.190 HD
BRANCH  11  14
HETATM   14  C5  UNL     1      -5.331  -2.579  18.180  1.00  0.00     0.280 C 
BRANCH  14  15
HETATM   15  C3  UNL     1      -5.754  -2.076  19.540  1.00  0.00     0.021 C 
HETATM   16  C4  UNL     1      -7.152  -1.572  19.615  1.00  0.00     0.012 C 
BRANCH  15  17
HETATM   17  C2  UNL     1      -4.850  -0.897  19.933  1.00  0.00     0.002 C 
HETATM   18  C1  UNL     1      -5.452  -0.071  21.026  1.00  0.00     0.005 C 
ENDBRANCH  15  17
ENDBRANCH  14  15
BRANCH  14  19
HETATM   19  N1  UNL     1      -4.491  -1.525  17.570  1.00  0.00    -0.066 N 
ATOM     20  H13 UNL     1      -3.772  -1.172  18.200  1.00  0.00     0.275 HD
ATOM     21  H12 UNL     1      -3.867  -1.878  16.845  1.00  0.00     0.275 HD
ATOM     22  H11 UNL     1      -5.123  -0.797  17.235  1.00  0.00     0.275 HD
ENDBRANCH  14  19
ENDBRANCH  11  14
ENDBRANCH   1  10
BRANCH   8  23
HETATM   23  C12 UNL     1      -6.467  -9.246  17.757  1.00  0.00     0.267 C 
BRANCH  23  24
HETATM   24  N5  UNL     1      -6.998 -10.239  18.642  1.00  0.00    -0.334 N 
HETATM   25  C13 UNL     1      -8.000  -9.920  19.569  1.00  0.00     0.283 C 
HETATM   26  O3  UNL     1      -8.433  -8.738  19.618  1.00  0.00    -0.265 OA
ATOM     27  H5  UNL     1      -6.642 -11.193  18.597  1.00  0.00     0.164 HD
BRANCH  25  28
HETATM   28  C14 UNL     1      -8.541 -10.955  20.478  1.00  0.00     0.178 C 
HETATM   29  N6  UNL     1      -7.940 -12.081  20.628  1.00  0.00    -0.383 N 
ATOM     30  H62 UNL     1      -7.079 -12.261  20.111  1.00  0.00     0.157 HD
ATOM     31  H61 UNL     1      -8.313 -12.794  21.255  1.00  0.00     0.157 HD
HETATM   32  N7  UNL     1      -9.734 -10.704  21.195  1.00  0.00    -0.077 NA
ENDBRANCH  25  28
ENDBRANCH  23  24
BRANCH  23  33
HETATM   33  C15 UNL     1      -6.378  -9.813  16.396  1.00  0.00     0.263 C 
HETATM   34  N8  UNL     1      -7.102 -10.988  16.051  1.00  0.00    -0.060 NA
HETATM   35  O4  UNL     1      -5.669  -9.272  15.531  1.00  0.00    -0.274 OA
ENDBRANCH  23  33
ENDBRANCH   8  23
TORSDOF 9
ENDMDL
MODEL 5
REMARK VINA RESULT: -6.315046689      4.233      6.155
REMARK  9 active torsions:
REMARK  status: ('A' for Active; 'I' for Inactive)
REMARK    1  A    between atoms: C2_2  and  C3_3 
REMARK    2  A    between atoms: C3_3  and  C5_5 
REMARK    3  A    between atoms: C5_5  and  N1_6 
REMARK    4  A    between atoms: C5_5  and  C6_10 
REMARK       I    between atoms: C6_10  and  N2_12 
REMARK    5  A    between atoms: N2_12  and  N3_14 
REMARK       I    between atoms: N4_19  and  C11_21 
REMARK    6  A    between atoms: C11_21  and  C12_23 
REMARK    7  A    between atoms: C12_23  and  N5_24 
REMARK    8  A    between atoms: C12_23  and  C15_33 
REMARK       I    between atoms: N5_24  and  C13_26 
REMARK    9  A    between atoms: C13_26  and  C14_28 
ROOT
HETATM    1  N3  UNL     1      -3.864  -4.264  18.070  1.00  0.00    -0.278 N 
HETATM    2  C7  UNL     1      -3.847  -3.878  16.684  1.00  0.00     0.151 C 
HETATM    3  C8  UNL     1      -3.274  -5.052  15.947  1.00  0.00     0.029 C 
HETATM    4  C9  UNL     1      -2.648  -5.914  17.006  1.00  0.00     0.080 C 
HETATM    5  C10 UNL     1      -2.826  -5.209  18.292  1.00  0.00     0.101 C 
HETATM    6  N4  UNL     1      -2.157  -5.424  19.374  1.00  0.00    -0.313 N 
ATOM      7  H4  UNL     1      -2.378  -4.860  20.194  1.00  0.00     0.170 HD
HETATM    8  C11 UNL     1      -1.140  -6.393  19.491  1.00  0.00     0.254 C 
HETATM    9  O2  UNL     1      -0.124  -6.271  18.764  1.00  0.00    -0.270 OA
ENDROOT
BRANCH   1  10
HETATM   10  N2  UNL     1      -4.765  -3.771  19.007  1.00  0.00    -0.265 N 
HETATM   11  C6  UNL     1      -4.768  -2.452  19.498  1.00  0.00     0.267 C 
HETATM   12  O1  UNL     1      -3.846  -1.709  18.999  1.00  0.00    -0.269 OA
ATOM     13  H2  UNL     1      -5.475  -4.411  19.364  1.00  0.00     0.190 HD
BRANCH  11  14
HETATM   14  C5  UNL     1      -5.694  -1.898  20.478  1.00  0.00     0.280 C 
BRANCH  14  15
HETATM   15  C3  UNL     1      -5.902  -0.404  20.393  1.00  0.00     0.021 C 
HETATM   16  C4  UNL     1      -5.286   0.378  21.498  1.00  0.00     0.012 C 
BRANCH  15  17
HETATM   17  C2  UNL     1      -7.410  -0.112  20.448  1.00  0.00     0.002 C 
HETATM   18  C1  UNL     1      -7.769   0.754  21.614  1.00  0.00     0.005 C 
ENDBRANCH  15  17
ENDBRANCH  14  15
BRANCH  14  19
HETATM   19  N1  UNL     1      -7.008  -2.533  20.231  1.00  0.00    -0.066 N 
ATOM     20  H13 UNL     1      -7.747  -2.173  20.835  1.00  0.00     0.275 HD
ATOM     21  H12 UNL     1      -7.424  -2.259  19.341  1.00  0.00     0.275 HD
ATOM     22  H11 UNL     1      -6.874  -3.540  20.319  1.00  0.00     0.275 HD
ENDBRANCH  14  19
ENDBRANCH  11  14
ENDBRANCH   1  10
BRANCH   8  23
HETATM   23  C12 UNL     1      -1.212  -7.543  20.428  1.00  0.00     0.267 C 
BRANCH  23  24
HETATM   24  N5  UNL     1       0.079  -8.019  20.823  1.00  0.00    -0.334 N 
HETATM   25  C13 UNL     1       0.739  -7.482  21.937  1.00  0.00     0.283 C 
HETATM   26  O3  UNL     1       0.179  -6.564  22.594  1.00  0.00    -0.265 OA
ATOM     27  H5  UNL     1       0.526  -8.762  20.285  1.00  0.00     0.164 HD
BRANCH  25  28
HETATM   28  C14 UNL     1       2.073  -7.982  22.335  1.00  0.00     0.178 C 
HETATM   29  N6  UNL     1       2.429  -8.001  23.571  1.00  0.00    -0.383 N 
ATOM     30  H62 UNL     1       1.780  -7.665  24.283  1.00  0.00     0.157 HD
ATOM     31  H61 UNL     1       3.349  -8.346  23.845  1.00  0.00     0.157 HD
HETATM   32  N7  UNL     1       2.972  -8.446  21.347  1.00  0.00    -0.077 NA
ENDBRANCH  25  28
ENDBRANCH  23  24
BRANCH  23  33
HETATM   33  C15 UNL     1      -1.988  -8.668  19.867  1.00  0.00     0.263 C 
HETATM   34  N8  UNL     1      -1.474  -9.994  19.904  1.00  0.00    -0.060 NA
HETATM   35  O4  UNL     1      -3.103  -8.474  19.355  1.00  0.00    -0.274 OA
ENDBRANCH  23  33
ENDBRANCH   8  23
TORSDOF 9
ENDMDL
