MODEL 1
REMARK VINA RESULT: -10.418579466      0.000      0.000
REMARK  2 active torsions:
REMARK  status: ('A' for Active; 'I' for Inactive)
REMARK    1  A    between atoms: C2_2  and  C3_3 
REMARK    2  A    between atoms: C9_12  and  O4_13 
ROOT
HETATM    1  C3  UNL     1     -21.160 -24.854 -15.671  1.00  0.00     0.109 A 
HETATM    2  O1  UNL     1     -20.988 -25.718 -14.726  1.00  0.00    -0.319 OA
HETATM    3  C4  UNL     1     -21.009 -26.967 -15.224  1.00  0.00     0.158 A 
HETATM    4  C5  UNL     1     -21.208 -26.857 -16.536  1.00  0.00     0.035 A 
HETATM    5  C6  UNL     1     -21.306 -25.495 -16.878  1.00  0.00     0.126 A 
HETATM    6  O2  UNL     1     -21.482 -25.162 -18.106  1.00  0.00    -0.271 OA
HETATM    7  C7  UNL     1     -21.571 -26.017 -19.084  1.00  0.00     0.302 A 
HETATM    8  O3  UNL     1     -21.740 -25.668 -20.286  1.00  0.00    -0.259 OA
HETATM    9  C8  UNL     1     -21.482 -27.370 -18.837  1.00  0.00     0.085 A 
HETATM   10  C9  UNL     1     -21.525 -28.281 -19.863  1.00  0.00     0.085 A 
HETATM   11  C10 UNL     1     -21.392 -29.620 -19.609  1.00  0.00     0.075 A 
HETATM   12  C11 UNL     1     -21.223 -30.010 -18.314  1.00  0.00     0.085 A 
HETATM   13  C12 UNL     1     -21.177 -29.115 -17.197  1.00  0.00     0.044 A 
HETATM   14  C13 UNL     1     -21.303 -27.797 -17.547  1.00  0.00     0.014 A 
HETATM   15  C14 UNL     1     -21.148 -29.770 -15.930  1.00  0.00     0.109 C 
HETATM   16  F1  UNL     1     -21.966 -29.692 -14.868  1.00  0.00    -0.210 F 
HETATM   17  C15 UNL     1     -19.922 -30.673 -15.850  1.00  0.00     0.098 C 
HETATM   18  C16 UNL     1     -19.999 -31.683 -16.990  1.00  0.00     0.182 C 
HETATM   19  O5  UNL     1     -21.059 -31.356 -17.898  1.00  0.00    -0.350 OA
ENDROOT
BRANCH   1  20
HETATM   20  C2  UNL     1     -21.204 -23.384 -15.554  1.00  0.00     0.030 C 
HETATM   21  C1  UNL     1     -21.504 -22.834 -14.392  1.00  0.00     0.014 C 
ENDBRANCH   1  20
BRANCH  10  22
HETATM   22  O4  UNL     1     -21.707 -27.773 -21.146  1.00  0.00    -0.360 OA
ATOM     23  H4  UNL     1     -21.248 -28.214 -21.852  1.00  0.00     0.217 HD
ENDBRANCH  10  22
TORSDOF 2
ENDMDL
MODEL 2
REMARK VINA RESULT: -9.950742481      1.351      5.079
REMARK  2 active torsions:
REMARK  status: ('A' for Active; 'I' for Inactive)
REMARK    1  A    between atoms: C2_2  and  C3_3 
REMARK    2  A    between atoms: C9_12  and  O4_13 
ROOT
HETATM    1  C3  UNL     1     -21.187 -31.048 -17.211  1.00  0.00     0.109 A 
HETATM    2  O1  UNL     1     -21.105 -30.793 -15.947  1.00  0.00    -0.319 OA
HETATM    3  C4  UNL     1     -21.140 -29.466 -15.733  1.00  0.00     0.158 A 
HETATM    4  C5  UNL     1     -21.243 -28.885 -16.926  1.00  0.00     0.035 A 
HETATM    5  C6  UNL     1     -21.285 -29.877 -17.924  1.00  0.00     0.126 A 
HETATM    6  O2  UNL     1     -21.402 -29.531 -19.156  1.00  0.00    -0.271 OA
HETATM    7  C7  UNL     1     -21.494 -28.296 -19.557  1.00  0.00     0.302 A 
HETATM    8  O3  UNL     1     -21.612 -27.977 -20.773  1.00  0.00    -0.259 OA
HETATM    9  C8  UNL     1     -21.464 -27.263 -18.645  1.00  0.00     0.085 A 
HETATM   10  C9  UNL     1     -21.609 -25.959 -19.048  1.00  0.00     0.085 A 
HETATM   11  C10 UNL     1     -21.622 -24.944 -18.128  1.00  0.00     0.075 A 
HETATM   12  C11 UNL     1     -21.480 -25.275 -16.813  1.00  0.00     0.085 A 
HETATM   13  C12 UNL     1     -21.318 -26.611 -16.325  1.00  0.00     0.044 A 
HETATM   14  C13 UNL     1     -21.332 -27.560 -17.313  1.00  0.00     0.014 A 
HETATM   15  C14 UNL     1     -21.034 -26.688 -14.929  1.00  0.00     0.109 C 
HETATM   16  F1  UNL     1     -20.005 -27.229 -14.258  1.00  0.00    -0.210 F 
HETATM   17  C15 UNL     1     -22.169 -26.044 -14.141  1.00  0.00     0.098 C 
HETATM   18  C16 UNL     1     -22.302 -24.594 -14.597  1.00  0.00     0.182 C 
HETATM   19  O5  UNL     1     -21.487 -24.338 -15.747  1.00  0.00    -0.350 OA
ENDROOT
BRANCH   1  20
HETATM   20  C2  UNL     1     -21.185 -32.368 -17.869  1.00  0.00     0.030 C 
HETATM   21  C1  UNL     1     -20.038 -32.995 -18.062  1.00  0.00     0.014 C 
ENDBRANCH   1  20
BRANCH  10  22
HETATM   22  O4  UNL     1     -21.741 -25.735 -20.416  1.00  0.00    -0.360 OA
ATOM     23  H4  UNL     1     -20.973 -25.410 -20.873  1.00  0.00     0.217 HD
ENDBRANCH  10  22
TORSDOF 2
ENDMDL
MODEL 3
REMARK VINA RESULT: -9.820369140      0.938      1.039
REMARK  2 active torsions:
REMARK  status: ('A' for Active; 'I' for Inactive)
REMARK    1  A    between atoms: C2_2  and  C3_3 
REMARK    2  A    between atoms: C9_12  and  O4_13 
ROOT
HETATM    1  C3  UNL     1     -21.292 -25.997 -15.587  1.00  0.00     0.109 A 
HETATM    2  O1  UNL     1     -21.127 -26.987 -14.775  1.00  0.00    -0.319 OA
HETATM    3  C4  UNL     1     -21.105 -28.149 -15.450  1.00  0.00     0.158 A 
HETATM    4  C5  UNL     1     -21.268 -27.852 -16.738  1.00  0.00     0.035 A 
HETATM    5  C6  UNL     1     -21.388 -26.456 -16.880  1.00  0.00     0.126 A 
HETATM    6  O2  UNL     1     -21.535 -25.950 -18.051  1.00  0.00    -0.271 OA
HETATM    7  C7  UNL     1     -21.576 -26.653 -19.146  1.00  0.00     0.302 A 
HETATM    8  O3  UNL     1     -21.718 -26.134 -20.289  1.00  0.00    -0.259 OA
HETATM    9  C8  UNL     1     -21.463 -28.026 -19.097  1.00  0.00     0.085 A 
HETATM   10  C9  UNL     1     -21.455 -28.776 -20.246  1.00  0.00     0.085 A 
HETATM   11  C10 UNL     1     -21.298 -30.136 -20.187  1.00  0.00     0.075 A 
HETATM   12  C11 UNL     1     -21.159 -30.709 -18.957  1.00  0.00     0.085 A 
HETATM   13  C12 UNL     1     -21.165 -29.987 -17.721  1.00  0.00     0.044 A 
HETATM   14  C13 UNL     1     -21.312 -28.634 -17.878  1.00  0.00     0.014 A 
HETATM   15  C14 UNL     1     -21.158 -30.821 -16.563  1.00  0.00     0.109 C 
HETATM   16  F1  UNL     1     -22.008 -30.914 -15.528  1.00  0.00    -0.210 F 
HETATM   17  C15 UNL     1     -19.915 -31.702 -16.576  1.00  0.00     0.098 C 
HETATM   18  C16 UNL     1     -19.935 -32.535 -17.854  1.00  0.00     0.182 C 
HETATM   19  O5  UNL     1     -20.975 -32.098 -18.738  1.00  0.00    -0.350 OA
ENDROOT
BRANCH   1  20
HETATM   20  C2  UNL     1     -21.373 -24.561 -15.259  1.00  0.00     0.030 C 
HETATM   21  C1  UNL     1     -22.340 -24.130 -14.468  1.00  0.00     0.014 C 
ENDBRANCH   1  20
BRANCH  10  22
HETATM   22  O4  UNL     1     -21.611 -28.089 -21.446  1.00  0.00    -0.360 OA
ATOM     23  H4  UNL     1     -22.145 -28.506 -22.113  1.00  0.00     0.217 HD
ENDBRANCH  10  22
TORSDOF 2
ENDMDL
MODEL 4
REMARK VINA RESULT: -9.748306219      1.895      5.955
REMARK  2 active torsions:
REMARK  status: ('A' for Active; 'I' for Inactive)
REMARK    1  A    between atoms: C2_2  and  C3_3 
REMARK    2  A    between atoms: C9_12  and  O4_13 
ROOT
HETATM    1  C3  UNL     1     -21.363 -29.156 -20.526  1.00  0.00     0.109 A 
HETATM    2  O1  UNL     1     -21.438 -27.904 -20.838  1.00  0.00    -0.319 OA
HETATM    3  C4  UNL     1     -21.481 -27.146 -19.729  1.00  0.00     0.158 A 
HETATM    4  C5  UNL     1     -21.435 -27.978 -18.690  1.00  0.00     0.035 A 
HETATM    5  C6  UNL     1     -21.350 -29.303 -19.159  1.00  0.00     0.126 A 
HETATM    6  O2  UNL     1     -21.276 -30.268 -18.316  1.00  0.00    -0.271 OA
HETATM    7  C7  UNL     1     -21.267 -30.105 -17.024  1.00  0.00     0.302 A 
HETATM    8  O3  UNL     1     -21.190 -31.070 -16.212  1.00  0.00    -0.259 OA
HETATM    9  C8  UNL     1     -21.344 -28.841 -16.481  1.00  0.00     0.085 A 
HETATM   10  C9  UNL     1     -21.286 -28.650 -15.123  1.00  0.00     0.085 A 
HETATM   11  C10 UNL     1     -21.319 -27.385 -14.597  1.00  0.00     0.075 A 
HETATM   12  C11 UNL     1     -21.417 -26.337 -15.464  1.00  0.00     0.085 A 
HETATM   13  C12 UNL     1     -21.489 -26.466 -16.888  1.00  0.00     0.044 A 
HETATM   14  C13 UNL     1     -21.434 -27.763 -17.323  1.00  0.00     0.014 A 
HETATM   15  C14 UNL     1     -21.742 -25.238 -17.568  1.00  0.00     0.109 C 
HETATM   16  F1  UNL     1     -22.724 -24.871 -18.408  1.00  0.00    -0.210 F 
HETATM   17  C15 UNL     1     -20.635 -24.240 -17.251  1.00  0.00     0.098 C 
HETATM   18  C16 UNL     1     -20.599 -24.034 -15.740  1.00  0.00     0.182 C 
HETATM   19  O5  UNL     1     -21.449 -24.974 -15.071  1.00  0.00    -0.350 OA
ENDROOT
BRANCH   1  20
HETATM   20  C2  UNL     1     -21.296 -30.313 -21.438  1.00  0.00     0.030 C 
HETATM   21  C1  UNL     1     -22.289 -31.183 -21.457  1.00  0.00     0.014 C 
ENDBRANCH   1  20
BRANCH  10  22
HETATM   22  O4  UNL     1     -21.193 -29.791 -14.332  1.00  0.00    -0.360 OA
ATOM     23  H4  UNL     1     -22.008 -30.222 -14.103  1.00  0.00     0.217 HD
ENDBRANCH  10  22
TORSDOF 2
ENDMDL
MODEL 5
REMARK VINA RESULT: -9.260204277      1.123      1.351
REMARK  2 active torsions:
REMARK  status: ('A' for Active; 'I' for Inactive)
REMARK    1  A    between atoms: C2_2  and  C3_3 
REMARK    2  A    between atoms: C9_12  and  O4_13 
ROOT
HETATM    1  C3  UNL     1     -21.153 -25.438 -16.737  1.00  0.00     0.109 A 
HETATM    2  O1  UNL     1     -21.017 -26.030 -15.597  1.00  0.00    -0.319 OA
HETATM    3  C4  UNL     1     -21.042 -27.364 -15.757  1.00  0.00     0.158 A 
HETATM    4  C5  UNL     1     -21.208 -27.596 -17.057  1.00  0.00     0.035 A 
HETATM    5  C6  UNL     1     -21.279 -26.368 -17.742  1.00  0.00     0.126 A 
HETATM    6  O2  UNL     1     -21.420 -26.363 -19.019  1.00  0.00    -0.271 OA
HETATM    7  C7  UNL     1     -21.497 -27.440 -19.745  1.00  0.00     0.302 A 
HETATM    8  O3  UNL     1     -21.632 -27.413 -21.000  1.00  0.00    -0.259 OA
HETATM    9  C8  UNL     1     -21.433 -28.684 -19.154  1.00  0.00     0.085 A 
HETATM   10  C9  UNL     1     -21.464 -29.829 -19.911  1.00  0.00     0.085 A 
HETATM   11  C10 UNL     1     -21.355 -31.058 -19.317  1.00  0.00     0.075 A 
HETATM   12  C11 UNL     1     -21.224 -31.101 -17.960  1.00  0.00     0.085 A 
HETATM   13  C12 UNL     1     -21.192 -29.948 -17.112  1.00  0.00     0.044 A 
HETATM   14  C13 UNL     1     -21.292 -28.764 -17.794  1.00  0.00     0.014 A 
HETATM   15  C14 UNL     1     -21.204 -30.254 -15.719  1.00  0.00     0.109 C 
HETATM   16  F1  UNL     1     -22.046 -29.898 -14.736  1.00  0.00    -0.210 F 
HETATM   17  C15 UNL     1     -19.993 -31.114 -15.375  1.00  0.00     0.098 C 
HETATM   18  C16 UNL     1     -20.056 -32.384 -16.217  1.00  0.00     0.182 C 
HETATM   19  O5  UNL     1     -21.089 -32.295 -17.207  1.00  0.00    -0.350 OA
ENDROOT
BRANCH   1  20
HETATM   20  C2  UNL     1     -21.180 -23.987 -17.005  1.00  0.00     0.030 C 
HETATM   21  C1  UNL     1     -20.090 -23.270 -16.804  1.00  0.00     0.014 C 
ENDBRANCH   1  20
BRANCH  10  22
HETATM   22  O4  UNL     1     -21.607 -29.668 -21.287  1.00  0.00    -0.360 OA
ATOM     23  H4  UNL     1     -21.262 -28.867 -21.664  1.00  0.00     0.217 HD
ENDBRANCH  10  22
TORSDOF 2
ENDMDL
