MODEL 1
REMARK VINA RESULT: -6.274712513      0.000      0.000
REMARK  9 active torsions:
REMARK  status: ('A' for Active; 'I' for Inactive)
REMARK    1  A    between atoms: C3_3  and  C4_4 
REMARK    2  A    between atoms: C4_4  and  N1_5 
REMARK    3  A    between atoms: C4_4  and  C10_14 
REMARK       I    between atoms: N1_5  and  C5_7 
REMARK    4  A    between atoms: C5_7  and  O2_9 
REMARK    5  A    between atoms: O2_9  and  C6_10 
REMARK    6  A    between atoms: C6_10  and  C7_11 
REMARK       I    between atoms: C10_14  and  N2_16 
REMARK    7  A    between atoms: N2_16  and  C11_18 
REMARK    8  A    between atoms: C11_18  and  C12_20 
REMARK       I    between atoms: C12_20  and  N3_22 
REMARK    9  A    between atoms: N3_22  and  C13_24 
ROOT
HETATM    1  C1  UNL     1     -41.556 -44.840  20.001  1.00  0.00     0.112 C 
HETATM    2  C2  UNL     1     -40.651 -44.313  18.995  1.00  0.00    -0.108 C 
HETATM    3  C3  UNL     1     -39.884 -43.863  18.171  1.00  0.00    -0.072 C 
ENDROOT
BRANCH   3   4
HETATM    4  C4  UNL     1     -38.936 -43.305  17.186  1.00  0.00     0.258 C 
BRANCH   4   5
HETATM    5  N1  UNL     1     -38.310 -44.392  16.477  1.00  0.00    -0.313 N 
HETATM    6  C5  UNL     1     -38.441 -44.430  15.056  1.00  0.00     0.361 C 
HETATM    7  O1  UNL     1     -39.072 -43.562  14.412  1.00  0.00    -0.238 OA
ATOM      8  H1  UNL     1     -37.788 -45.112  16.976  1.00  0.00     0.166 HD
BRANCH   6   9
HETATM    9  O2  UNL     1     -37.849 -45.463  14.375  1.00  0.00    -0.304 OA
BRANCH   9  10
HETATM   10  C6  UNL     1     -37.546 -45.501  13.019  1.00  0.00     0.184 C 
BRANCH  10  11
HETATM   11  C7  UNL     1     -36.066 -45.505  12.702  1.00  0.00     0.002 C 
HETATM   12  C8  UNL     1     -35.699 -46.813  12.035  1.00  0.00     0.011 C 
HETATM   13  C9  UNL     1     -35.774 -44.388  11.726  1.00  0.00     0.011 C 
ENDBRANCH  10  11
ENDBRANCH   9  10
ENDBRANCH   6   9
ENDBRANCH   4   5
BRANCH   4  14
HETATM   14  C10 UNL     1     -37.947 -42.518  17.973  1.00  0.00     0.254 C 
HETATM   15  O3  UNL     1     -37.256 -43.125  18.839  1.00  0.00    -0.270 OA
HETATM   16  N2  UNL     1     -37.761 -41.142  17.784  1.00  0.00    -0.336 N 
ATOM     17  H2  UNL     1     -38.316 -40.646  17.086  1.00  0.00     0.164 HD
BRANCH  16  18
HETATM   18  C11 UNL     1     -36.791 -40.422  18.572  1.00  0.00     0.250 C 
HETATM   19  S1  UNL     1     -37.549 -39.932  20.145  1.00  0.00    -0.060 SA
BRANCH  18  20
HETATM   20  C12 UNL     1     -36.305 -39.241  17.827  1.00  0.00     0.251 C 
HETATM   21  O4  UNL     1     -36.449 -38.105  18.305  1.00  0.00    -0.270 OA
HETATM   22  N3  UNL     1     -35.668 -39.351  16.562  1.00  0.00    -0.354 N 
ATOM     23  H3  UNL     1     -35.543 -40.279  16.157  1.00  0.00     0.162 HD
BRANCH  22  24
HETATM   24  C13 UNL     1     -35.190 -38.204  15.825  1.00  0.00     0.084 A 
HETATM   25  C14 UNL     1     -35.695 -37.997  14.417  1.00  0.00     0.027 A 
HETATM   26  C15 UNL     1     -34.284 -38.388  14.662  1.00  0.00     0.027 A 
ENDBRANCH  22  24
ENDBRANCH  18  20
ENDBRANCH  16  18
ENDBRANCH   4  14
ENDBRANCH   3   4
TORSDOF 9
ENDMDL
MODEL 2
REMARK VINA RESULT: -6.228576708      0.828      1.116
REMARK  9 active torsions:
REMARK  status: ('A' for Active; 'I' for Inactive)
REMARK    1  A    between atoms: C3_3  and  C4_4 
REMARK    2  A    between atoms: C4_4  and  N1_5 
REMARK    3  A    between atoms: C4_4  and  C10_14 
REMARK       I    between atoms: N1_5  and  C5_7 
REMARK    4  A    between atoms: C5_7  and  O2_9 
REMARK    5  A    between atoms: O2_9  and  C6_10 
REMARK    6  A    between atoms: C6_10  and  C7_11 
REMARK       I    between atoms: C10_14  and  N2_16 
REMARK    7  A    between atoms: N2_16  and  C11_18 
REMARK    8  A    between atoms: C11_18  and  C12_20 
REMARK       I    between atoms: C12_20  and  N3_22 
REMARK    9  A    between atoms: N3_22  and  C13_24 
ROOT
HETATM    1  C1  UNL     1     -41.324 -45.166  20.296  1.00  0.00     0.112 C 
HETATM    2  C2  UNL     1     -40.661 -44.388  19.265  1.00  0.00    -0.108 C 
HETATM    3  C3  UNL     1     -40.089 -43.743  18.413  1.00  0.00    -0.072 C 
ENDROOT
BRANCH   3   4
HETATM    4  C4  UNL     1     -39.369 -42.964  17.386  1.00  0.00     0.258 C 
BRANCH   4   5
HETATM    5  N1  UNL     1     -39.009 -43.845  16.303  1.00  0.00    -0.313 N 
HETATM    6  C5  UNL     1     -39.528 -43.560  15.005  1.00  0.00     0.361 C 
HETATM    7  O1  UNL     1     -40.276 -42.582  14.776  1.00  0.00    -0.238 OA
ATOM      8  H1  UNL     1     -38.400 -44.648  16.461  1.00  0.00     0.166 HD
BRANCH   6   9
HETATM    9  O2  UNL     1     -39.191 -44.395  13.971  1.00  0.00    -0.304 OA
BRANCH   9  10
HETATM   10  C6  UNL     1     -38.407 -44.080  12.867  1.00  0.00     0.184 C 
BRANCH  10  11
HETATM   11  C7  UNL     1     -37.556 -45.219  12.349  1.00  0.00     0.002 C 
HETATM   12  C8  UNL     1     -36.248 -44.670  11.823  1.00  0.00     0.011 C 
HETATM   13  C9  UNL     1     -37.240 -46.152  13.496  1.00  0.00     0.011 C 
ENDBRANCH  10  11
ENDBRANCH   9  10
ENDBRANCH   6   9
ENDBRANCH   4   5
BRANCH   4  14
HETATM   14  C10 UNL     1     -38.167 -42.406  18.065  1.00  0.00     0.254 C 
HETATM   15  O3  UNL     1     -37.435 -43.196  18.724  1.00  0.00    -0.270 OA
HETATM   16  N2  UNL     1     -37.829 -41.048  17.996  1.00  0.00    -0.336 N 
ATOM     17  H2  UNL     1     -38.416 -40.405  17.463  1.00  0.00     0.164 HD
BRANCH  16  18
HETATM   18  C11 UNL     1     -36.654 -40.553  18.672  1.00  0.00     0.250 C 
HETATM   19  S1  UNL     1     -37.085 -40.142  20.385  1.00  0.00    -0.060 SA
BRANCH  18  20
HETATM   20  C12 UNL     1     -36.117 -39.372  17.962  1.00  0.00     0.251 C 
HETATM   21  O4  UNL     1     -36.059 -38.276  18.539  1.00  0.00    -0.270 OA
HETATM   22  N3  UNL     1     -35.654 -39.440  16.620  1.00  0.00    -0.354 N 
ATOM     23  H3  UNL     1     -35.696 -40.335  16.133  1.00  0.00     0.162 HD
BRANCH  22  24
HETATM   24  C13 UNL     1     -35.128 -38.292  15.917  1.00  0.00     0.084 A 
HETATM   25  C14 UNL     1     -35.737 -37.929  14.584  1.00  0.00     0.027 A 
HETATM   26  C15 UNL     1     -34.360 -38.476  14.659  1.00  0.00     0.027 A 
ENDBRANCH  22  24
ENDBRANCH  18  20
ENDBRANCH  16  18
ENDBRANCH   4  14
ENDBRANCH   3   4
TORSDOF 9
ENDMDL
MODEL 3
REMARK VINA RESULT: -5.995838064      1.023      1.237
REMARK  9 active torsions:
REMARK  status: ('A' for Active; 'I' for Inactive)
REMARK    1  A    between atoms: C3_3  and  C4_4 
REMARK    2  A    between atoms: C4_4  and  N1_5 
REMARK    3  A    between atoms: C4_4  and  C10_14 
REMARK       I    between atoms: N1_5  and  C5_7 
REMARK    4  A    between atoms: C5_7  and  O2_9 
REMARK    5  A    between atoms: O2_9  and  C6_10 
REMARK    6  A    between atoms: C6_10  and  C7_11 
REMARK       I    between atoms: C10_14  and  N2_16 
REMARK    7  A    between atoms: N2_16  and  C11_18 
REMARK    8  A    between atoms: C11_18  and  C12_20 
REMARK       I    between atoms: C12_20  and  N3_22 
REMARK    9  A    between atoms: N3_22  and  C13_24 
ROOT
HETATM    1  C1  UNL     1     -40.559 -45.388  20.191  1.00  0.00     0.112 C 
HETATM    2  C2  UNL     1     -39.977 -44.408  19.293  1.00  0.00    -0.108 C 
HETATM    3  C3  UNL     1     -39.472 -43.596  18.548  1.00  0.00    -0.072 C 
ENDROOT
BRANCH   3   4
HETATM    4  C4  UNL     1     -38.833 -42.616  17.647  1.00  0.00     0.258 C 
BRANCH   4   5
HETATM    5  N1  UNL     1     -38.263 -43.320  16.525  1.00  0.00    -0.313 N 
HETATM    6  C5  UNL     1     -39.026 -43.393  15.321  1.00  0.00     0.361 C 
HETATM    7  O1  UNL     1     -40.159 -42.873  15.206  1.00  0.00    -0.238 OA
ATOM      8  H1  UNL     1     -37.342 -43.752  16.590  1.00  0.00     0.166 HD
BRANCH   6   9
HETATM    9  O2  UNL     1     -38.491 -44.063  14.251  1.00  0.00    -0.304 OA
BRANCH   9  10
HETATM   10  C6  UNL     1     -37.303 -44.784  14.230  1.00  0.00     0.184 C 
BRANCH  10  11
HETATM   11  C7  UNL     1     -37.156 -45.725  13.053  1.00  0.00     0.002 C 
HETATM   12  C8  UNL     1     -38.149 -45.342  11.977  1.00  0.00     0.011 C 
HETATM   13  C9  UNL     1     -35.767 -45.573  12.478  1.00  0.00     0.011 C 
ENDBRANCH  10  11
ENDBRANCH   9  10
ENDBRANCH   6   9
ENDBRANCH   4   5
BRANCH   4  14
HETATM   14  C10 UNL     1     -37.787 -41.936  18.459  1.00  0.00     0.254 C 
HETATM   15  O3  UNL     1     -37.375 -42.513  19.504  1.00  0.00    -0.270 OA
HETATM   16  N2  UNL     1     -37.252 -40.690  18.104  1.00  0.00    -0.336 N 
ATOM     17  H2  UNL     1     -37.580 -40.219  17.260  1.00  0.00     0.164 HD
BRANCH  16  18
HETATM   18  C11 UNL     1     -36.240 -40.070  18.924  1.00  0.00     0.250 C 
HETATM   19  S1  UNL     1     -37.043 -38.999  20.148  1.00  0.00    -0.060 SA
BRANCH  18  20
HETATM   20  C12 UNL     1     -35.302 -39.299  18.079  1.00  0.00     0.251 C 
HETATM   21  O4  UNL     1     -34.247 -38.864  18.565  1.00  0.00    -0.270 OA
HETATM   22  N3  UNL     1     -35.561 -39.030  16.709  1.00  0.00    -0.354 N 
ATOM     23  H3  UNL     1     -36.425 -39.382  16.296  1.00  0.00     0.162 HD
BRANCH  22  24
HETATM   24  C13 UNL     1     -34.652 -38.278  15.875  1.00  0.00     0.084 A 
HETATM   25  C14 UNL     1     -35.226 -37.480  14.730  1.00  0.00     0.027 A 
HETATM   26  C15 UNL     1     -34.413 -38.693  14.469  1.00  0.00     0.027 A 
ENDBRANCH  22  24
ENDBRANCH  18  20
ENDBRANCH  16  18
ENDBRANCH   4  14
ENDBRANCH   3   4
TORSDOF 9
ENDMDL
MODEL 4
REMARK VINA RESULT: -5.809138159      2.919      6.605
REMARK  9 active torsions:
REMARK  status: ('A' for Active; 'I' for Inactive)
REMARK    1  A    between atoms: C3_3  and  C4_4 
REMARK    2  A    between atoms: C4_4  and  N1_5 
REMARK    3  A    between atoms: C4_4  and  C10_14 
REMARK       I    between atoms: N1_5  and  C5_7 
REMARK    4  A    between atoms: C5_7  and  O2_9 
REMARK    5  A    between atoms: O2_9  and  C6_10 
REMARK    6  A    between atoms: C6_10  and  C7_11 
REMARK       I    between atoms: C10_14  and  N2_16 
REMARK    7  A    between atoms: N2_16  and  C11_18 
REMARK    8  A    between atoms: C11_18  and  C12_20 
REMARK       I    between atoms: C12_20  and  N3_22 
REMARK    9  A    between atoms: N3_22  and  C13_24 
ROOT
HETATM    1  C1  UNL     1     -38.545 -44.864  12.904  1.00  0.00     0.112 C 
HETATM    2  C2  UNL     1     -38.752 -44.184  14.170  1.00  0.00    -0.108 C 
HETATM    3  C3  UNL     1     -38.905 -43.622  15.233  1.00  0.00    -0.072 C 
ENDROOT
BRANCH   3   4
HETATM    4  C4  UNL     1     -39.065 -42.940  16.533  1.00  0.00     0.258 C 
BRANCH   4   5
HETATM    5  N1  UNL     1     -37.866 -42.193  16.817  1.00  0.00    -0.313 N 
HETATM    6  C5  UNL     1     -37.911 -41.224  17.864  1.00  0.00     0.361 C 
HETATM    7  O1  UNL     1     -38.943 -41.003  18.537  1.00  0.00    -0.238 OA
ATOM      8  H1  UNL     1     -37.010 -42.353  16.286  1.00  0.00     0.166 HD
BRANCH   6   9
HETATM    9  O2  UNL     1     -36.773 -40.508  18.138  1.00  0.00    -0.304 OA
BRANCH   9  10
HETATM   10  C6  UNL     1     -36.413 -39.278  17.600  1.00  0.00     0.184 C 
BRANCH  10  11
HETATM   11  C7  UNL     1     -35.342 -39.344  16.532  1.00  0.00     0.002 C 
HETATM   12  C8  UNL     1     -35.596 -38.267  15.499  1.00  0.00     0.011 C 
HETATM   13  C9  UNL     1     -34.000 -39.069  17.170  1.00  0.00     0.011 C 
ENDBRANCH  10  11
ENDBRANCH   9  10
ENDBRANCH   6   9
ENDBRANCH   4   5
BRANCH   4  14
HETATM   14  C10 UNL     1     -39.293 -44.019  17.534  1.00  0.00     0.254 C 
HETATM   15  O3  UNL     1     -38.681 -45.112  17.380  1.00  0.00    -0.270 OA
HETATM   16  N2  UNL     1     -40.153 -43.858  18.628  1.00  0.00    -0.336 N 
ATOM     17  H2  UNL     1     -40.649 -42.976  18.759  1.00  0.00     0.164 HD
BRANCH  16  18
HETATM   18  C11 UNL     1     -40.342 -44.933  19.571  1.00  0.00     0.250 C 
HETATM   19  S1  UNL     1     -41.981 -44.774  20.332  1.00  0.00    -0.060 SA
BRANCH  18  20
HETATM   20  C12 UNL     1     -39.276 -44.904  20.597  1.00  0.00     0.251 C 
HETATM   21  O4  UNL     1     -39.457 -44.291  21.660  1.00  0.00    -0.270 OA
HETATM   22  N3  UNL     1     -38.030 -45.560  20.415  1.00  0.00    -0.354 N 
ATOM     23  H3  UNL     1     -37.867 -46.068  19.545  1.00  0.00     0.162 HD
BRANCH  22  24
HETATM   24  C13 UNL     1     -36.982 -45.538  21.410  1.00  0.00     0.084 A 
HETATM   25  C14 UNL     1     -35.647 -44.946  21.028  1.00  0.00     0.027 A 
HETATM   26  C15 UNL     1     -35.787 -46.406  21.254  1.00  0.00     0.027 A 
ENDBRANCH  22  24
ENDBRANCH  18  20
ENDBRANCH  16  18
ENDBRANCH   4  14
ENDBRANCH   3   4
TORSDOF 9
ENDMDL
MODEL 5
REMARK VINA RESULT: -5.736513957      2.453      3.339
REMARK  9 active torsions:
REMARK  status: ('A' for Active; 'I' for Inactive)
REMARK    1  A    between atoms: C3_3  and  C4_4 
REMARK    2  A    between atoms: C4_4  and  N1_5 
REMARK    3  A    between atoms: C4_4  and  C10_14 
REMARK       I    between atoms: N1_5  and  C5_7 
REMARK    4  A    between atoms: C5_7  and  O2_9 
REMARK    5  A    between atoms: O2_9  and  C6_10 
REMARK    6  A    between atoms: C6_10  and  C7_11 
REMARK       I    between atoms: C10_14  and  N2_16 
REMARK    7  A    between atoms: N2_16  and  C11_18 
REMARK    8  A    between atoms: C11_18  and  C12_20 
REMARK       I    between atoms: C12_20  and  N3_22 
REMARK    9  A    between atoms: N3_22  and  C13_24 
ROOT
HETATM    1  C1  UNL     1     -36.097 -45.921  21.068  1.00  0.00     0.112 C 
HETATM    2  C2  UNL     1     -36.701 -44.693  20.583  1.00  0.00    -0.108 C 
HETATM    3  C3  UNL     1     -37.205 -43.660  20.197  1.00  0.00    -0.072 C 
ENDROOT
BRANCH   3   4
HETATM    4  C4  UNL     1     -37.816 -42.392  19.752  1.00  0.00     0.258 C 
BRANCH   4   5
HETATM    5  N1  UNL     1     -38.269 -42.547  18.392  1.00  0.00    -0.313 N 
HETATM    6  C5  UNL     1     -39.666 -42.732  18.167  1.00  0.00     0.361 C 
HETATM    7  O1  UNL     1     -40.502 -42.762  19.098  1.00  0.00    -0.238 OA
ATOM      8  H1  UNL     1     -37.610 -42.525  17.614  1.00  0.00     0.166 HD
BRANCH   6   9
HETATM    9  O2  UNL     1     -40.103 -42.882  16.876  1.00  0.00    -0.304 OA
BRANCH   9  10
HETATM   10  C6  UNL     1     -39.325 -42.855  15.724  1.00  0.00     0.184 C 
BRANCH  10  11
HETATM   11  C7  UNL     1     -39.176 -44.191  15.030  1.00  0.00     0.002 C 
HETATM   12  C8  UNL     1     -38.824 -43.965  13.575  1.00  0.00     0.011 C 
HETATM   13  C9  UNL     1     -38.037 -44.950  15.670  1.00  0.00     0.011 C 
ENDBRANCH  10  11
ENDBRANCH   9  10
ENDBRANCH   6   9
ENDBRANCH   4   5
BRANCH   4  14
HETATM   14  C10 UNL     1     -36.745 -41.362  19.862  1.00  0.00     0.254 C 
HETATM   15  O3  UNL     1     -36.116 -41.272  20.952  1.00  0.00    -0.270 OA
HETATM   16  N2  UNL     1     -36.420 -40.503  18.804  1.00  0.00    -0.336 N 
ATOM     17  H2  UNL     1     -36.924 -40.572  17.920  1.00  0.00     0.164 HD
BRANCH  16  18
HETATM   18  C11 UNL     1     -35.375 -39.520  18.959  1.00  0.00     0.250 C 
HETATM   19  S1  UNL     1     -36.087 -38.000  19.647  1.00  0.00    -0.060 SA
BRANCH  18  20
HETATM   20  C12 UNL     1     -34.725 -39.259  17.656  1.00  0.00     0.251 C 
HETATM   21  O4  UNL     1     -33.487 -39.259  17.571  1.00  0.00    -0.270 OA
HETATM   22  N3  UNL     1     -35.470 -39.003  16.474  1.00  0.00    -0.354 N 
ATOM     23  H3  UNL     1     -36.488 -39.001  16.529  1.00  0.00     0.162 HD
BRANCH  22  24
HETATM   24  C13 UNL     1     -34.845 -38.747  15.197  1.00  0.00     0.084 A 
HETATM   25  C14 UNL     1     -34.217 -37.393  14.967  1.00  0.00     0.027 A 
HETATM   26  C15 UNL     1     -35.456 -37.782  14.248  1.00  0.00     0.027 A 
ENDBRANCH  22  24
ENDBRANCH  18  20
ENDBRANCH  16  18
ENDBRANCH   4  14
ENDBRANCH   3   4
TORSDOF 9
ENDMDL
