MODEL 1
REMARK VINA RESULT: -7.210148743      0.000      0.000
REMARK  3 active torsions:
REMARK  status: ('A' for Active; 'I' for Inactive)
REMARK    1  A    between atoms: N1_3  and  C2_4 
REMARK    2  A    between atoms: N2_12  and  C9_13 
REMARK    3  A    between atoms: N3_21  and  C14_22 
ROOT
HETATM    1  S1  UNL     1       8.256  -5.436 -30.790  1.00  0.00    -0.039 SA
HETATM    2  C1  UNL     1       7.669  -4.110 -30.073  1.00  0.00     0.194 A 
HETATM    3  N1  UNL     1       6.487  -3.623 -30.509  1.00  0.00    -0.263 N 
HETATM    4  C8  UNL     1       6.001  -2.519 -29.913  1.00  0.00     0.196 A 
HETATM    5  S2  UNL     1       4.562  -1.904 -30.425  1.00  0.00    -0.039 SA
HETATM    6  N2  UNL     1       6.671  -1.900 -28.896  1.00  0.00    -0.242 N 
HETATM    7  C13 UNL     1       7.839  -2.435 -28.510  1.00  0.00     0.196 A 
HETATM    8  S3  UNL     1       8.639  -1.693 -27.292  1.00  0.00    -0.039 SA
HETATM    9  N3  UNL     1       8.366  -3.541 -29.080  1.00  0.00    -0.263 N 
ENDROOT
BRANCH   3  10
HETATM   10  C2  UNL     1       5.788  -4.263 -31.567  1.00  0.00     0.044 A 
HETATM   11  C3  UNL     1       5.949  -3.958 -32.883  1.00  0.00     0.030 A 
HETATM   12  C4  UNL     1       5.214  -4.647 -33.831  1.00  0.00     0.002 A 
HETATM   13  C5  UNL     1       4.317  -5.640 -33.499  1.00  0.00     0.000 A 
HETATM   14  C6  UNL     1       4.156  -5.948 -32.164  1.00  0.00     0.002 A 
HETATM   15  C7  UNL     1       4.882  -5.267 -31.222  1.00  0.00     0.030 A 
ENDBRANCH   3  10
BRANCH   9  16
HETATM   16  C14 UNL     1       9.606  -4.102 -28.665  1.00  0.00     0.044 A 
HETATM   17  C15 UNL     1      10.795  -3.642 -29.240  1.00  0.00     0.030 A 
HETATM   18  C16 UNL     1      11.998  -4.182 -28.842  1.00  0.00     0.002 A 
HETATM   19  C17 UNL     1      12.055  -5.171 -27.882  1.00  0.00     0.000 A 
HETATM   20  C18 UNL     1      10.872  -5.630 -27.307  1.00  0.00     0.002 A 
HETATM   21  C19 UNL     1       9.649  -5.092 -27.704  1.00  0.00     0.030 A 
ENDBRANCH   9  16
BRANCH   6  22
HETATM   22  C9  UNL     1       6.132  -0.734 -28.282  1.00  0.00     0.159 A 
HETATM   23  C10 UNL     1       6.297   0.568 -28.739  1.00  0.00     0.060 A 
HETATM   24  C11 UNL     1       5.609   1.355 -27.841  1.00  0.00     0.049 A 
HETATM   25  C12 UNL     1       5.070   0.489 -26.896  1.00  0.00     0.124 A 
HETATM   26 BR1  UNL     1       4.017   1.071 -25.421  1.00  0.00    -0.023 Br
HETATM   27  O1  UNL     1       5.407  -0.754 -27.198  1.00  0.00    -0.286 OA
ENDBRANCH   6  22
TORSDOF 3
ENDMDL
MODEL 2
REMARK VINA RESULT: -7.176376976      0.144      5.273
REMARK  3 active torsions:
REMARK  status: ('A' for Active; 'I' for Inactive)
REMARK    1  A    between atoms: N1_3  and  C2_4 
REMARK    2  A    between atoms: N2_12  and  C9_13 
REMARK    3  A    between atoms: N3_21  and  C14_22 
ROOT
HETATM    1  S1  UNL     1       8.242  -5.486 -30.785  1.00  0.00    -0.039 SA
HETATM    2  C1  UNL     1       7.614  -4.150 -30.123  1.00  0.00     0.194 A 
HETATM    3  N1  UNL     1       8.307  -3.547 -29.133  1.00  0.00    -0.263 N 
HETATM    4  C8  UNL     1       7.783  -2.436 -28.583  1.00  0.00     0.196 A 
HETATM    5  S2  UNL     1       8.606  -1.681 -27.373  1.00  0.00    -0.039 SA
HETATM    6  N2  UNL     1       6.590  -1.922 -29.004  1.00  0.00    -0.242 N 
HETATM    7  C13 UNL     1       5.953  -2.568 -29.992  1.00  0.00     0.196 A 
HETATM    8  S3  UNL     1       4.525  -1.952 -30.495  1.00  0.00    -0.039 SA
HETATM    9  N3  UNL     1       6.441  -3.688 -30.573  1.00  0.00    -0.263 N 
ENDROOT
BRANCH   3  10
HETATM   10  C2  UNL     1       9.548  -4.078 -28.692  1.00  0.00     0.044 A 
HETATM   11  C3  UNL     1       9.671  -5.026 -27.723  1.00  0.00     0.030 A 
HETATM   12  C4  UNL     1      10.932  -5.473 -27.371  1.00  0.00     0.002 A 
HETATM   13  C5  UNL     1      12.082  -4.997 -27.964  1.00  0.00     0.000 A 
HETATM   14  C6  UNL     1      11.954  -4.036 -28.947  1.00  0.00     0.002 A 
HETATM   15  C7  UNL     1      10.707  -3.591 -29.298  1.00  0.00     0.030 A 
ENDBRANCH   3  10
BRANCH   9  16
HETATM   16  C14 UNL     1       5.759  -4.367 -31.621  1.00  0.00     0.044 A 
HETATM   17  C15 UNL     1       6.022  -4.021 -32.950  1.00  0.00     0.030 A 
HETATM   18  C16 UNL     1       5.365  -4.675 -33.968  1.00  0.00     0.002 A 
HETATM   19  C17 UNL     1       4.448  -5.671 -33.704  1.00  0.00     0.000 A 
HETATM   20  C18 UNL     1       4.185  -6.019 -32.380  1.00  0.00     0.002 A 
HETATM   21  C19 UNL     1       4.844  -5.363 -31.342  1.00  0.00     0.030 A 
ENDBRANCH   9  16
BRANCH   6  22
HETATM   22  C9  UNL     1       6.060  -0.744 -28.405  1.00  0.00     0.159 A 
HETATM   23  C10 UNL     1       6.229   0.550 -28.883  1.00  0.00     0.060 A 
HETATM   24  C11 UNL     1       5.550   1.353 -27.994  1.00  0.00     0.049 A 
HETATM   25  C12 UNL     1       5.010   0.505 -27.033  1.00  0.00     0.124 A 
HETATM   26 BR1  UNL     1       3.968   1.114 -25.562  1.00  0.00    -0.023 Br
HETATM   27  O1  UNL     1       5.340  -0.744 -27.317  1.00  0.00    -0.286 OA
ENDBRANCH   6  22
TORSDOF 3
ENDMDL
MODEL 3
REMARK VINA RESULT: -7.124197614      2.387      5.413
REMARK  3 active torsions:
REMARK  status: ('A' for Active; 'I' for Inactive)
REMARK    1  A    between atoms: N1_3  and  C2_4 
REMARK    2  A    between atoms: N2_12  and  C9_13 
REMARK    3  A    between atoms: N3_21  and  C14_22 
ROOT
HETATM    1  S1  UNL     1       9.046  -1.819 -27.194  1.00  0.00    -0.039 SA
HETATM    2  C1  UNL     1       8.142  -2.479 -28.362  1.00  0.00     0.194 A 
HETATM    3  N1  UNL     1       6.972  -1.881 -28.673  1.00  0.00    -0.263 N 
HETATM    4  C8  UNL     1       6.221  -2.432 -29.644  1.00  0.00     0.196 A 
HETATM    5  S2  UNL     1       4.789  -1.723 -30.043  1.00  0.00    -0.039 SA
HETATM    6  N2  UNL     1       6.617  -3.560 -30.304  1.00  0.00    -0.242 N 
HETATM    7  C13 UNL     1       7.790  -4.105 -29.947  1.00  0.00     0.196 A 
HETATM    8  S3  UNL     1       8.262  -5.455 -30.738  1.00  0.00    -0.039 SA
HETATM    9  N3  UNL     1       8.576  -3.587 -28.978  1.00  0.00    -0.263 N 
ENDROOT
BRANCH   3  10
HETATM   10  C2  UNL     1       6.556  -0.708 -27.989  1.00  0.00     0.044 A 
HETATM   11  C3  UNL     1       6.823   0.558 -28.414  1.00  0.00     0.030 A 
HETATM   12  C4  UNL     1       6.368   1.630 -27.667  1.00  0.00     0.002 A 
HETATM   13  C5  UNL     1       5.649   1.473 -26.501  1.00  0.00     0.000 A 
HETATM   14  C6  UNL     1       5.380   0.189 -26.074  1.00  0.00     0.002 A 
HETATM   15  C7  UNL     1       5.828  -0.875 -26.810  1.00  0.00     0.030 A 
ENDBRANCH   3  10
BRANCH   9  16
HETATM   16  C14 UNL     1       9.820  -4.171 -28.605  1.00  0.00     0.044 A 
HETATM   17  C15 UNL     1       9.838  -5.204 -27.663  1.00  0.00     0.030 A 
HETATM   18  C16 UNL     1      11.039  -5.773 -27.299  1.00  0.00     0.002 A 
HETATM   19  C17 UNL     1      12.229  -5.343 -27.847  1.00  0.00     0.000 A 
HETATM   20  C18 UNL     1      12.213  -4.314 -28.787  1.00  0.00     0.002 A 
HETATM   21  C19 UNL     1      11.004  -3.731 -29.162  1.00  0.00     0.030 A 
ENDBRANCH   9  16
BRANCH   6  22
HETATM   22  C9  UNL     1       5.802  -4.120 -31.328  1.00  0.00     0.159 A 
HETATM   23  C10 UNL     1       5.839  -3.768 -32.672  1.00  0.00     0.060 A 
HETATM   24  C11 UNL     1       4.888  -4.560 -33.278  1.00  0.00     0.049 A 
HETATM   25  C12 UNL     1       4.332  -5.343 -32.272  1.00  0.00     0.124 A 
HETATM   26 BR1  UNL     1       2.958  -6.623 -32.578  1.00  0.00    -0.023 Br
HETATM   27  O1  UNL     1       4.908  -5.048 -31.118  1.00  0.00    -0.286 OA
ENDBRANCH   6  22
TORSDOF 3
ENDMDL
MODEL 4
REMARK VINA RESULT: -7.111813674      2.399      6.436
REMARK  3 active torsions:
REMARK  status: ('A' for Active; 'I' for Inactive)
REMARK    1  A    between atoms: N1_3  and  C2_4 
REMARK    2  A    between atoms: N2_12  and  C9_13 
REMARK    3  A    between atoms: N3_21  and  C14_22 
ROOT
HETATM    1  S1  UNL     1       9.038  -1.779 -27.193  1.00  0.00    -0.039 SA
HETATM    2  C1  UNL     1       8.121  -2.434 -28.353  1.00  0.00     0.194 A 
HETATM    3  N1  UNL     1       8.581  -3.540 -28.977  1.00  0.00    -0.263 N 
HETATM    4  C8  UNL     1       7.816  -4.083 -29.942  1.00  0.00     0.196 A 
HETATM    5  S2  UNL     1       8.354  -5.432 -30.720  1.00  0.00    -0.039 SA
HETATM    6  N2  UNL     1       6.611  -3.545 -30.290  1.00  0.00    -0.242 N 
HETATM    7  C13 UNL     1       6.211  -2.446 -29.631  1.00  0.00     0.196 A 
HETATM    8  S3  UNL     1       4.768  -1.803 -30.049  1.00  0.00    -0.039 SA
HETATM    9  N3  UNL     1       6.946  -1.866 -28.656  1.00  0.00    -0.263 N 
ENDROOT
BRANCH   3  10
HETATM   10  C2  UNL     1       9.834  -4.103 -28.619  1.00  0.00     0.044 A 
HETATM   11  C3  UNL     1      11.024  -3.723 -29.160  1.00  0.00     0.030 A 
HETATM   12  C4  UNL     1      12.187  -4.342 -28.735  1.00  0.00     0.002 A 
HETATM   13  C5  UNL     1      12.195  -5.335 -27.779  1.00  0.00     0.000 A 
HETATM   14  C6  UNL     1      10.987  -5.717 -27.232  1.00  0.00     0.002 A 
HETATM   15  C7  UNL     1       9.833  -5.108 -27.650  1.00  0.00     0.030 A 
ENDBRANCH   3  10
BRANCH   9  16
HETATM   16  C14 UNL     1       6.516  -0.701 -27.962  1.00  0.00     0.044 A 
HETATM   17  C15 UNL     1       5.767  -0.838 -26.788  1.00  0.00     0.030 A 
HETATM   18  C16 UNL     1       5.348   0.286 -26.112  1.00  0.00     0.002 A 
HETATM   19  C17 UNL     1       5.652   1.551 -26.570  1.00  0.00     0.000 A 
HETATM   20  C18 UNL     1       6.399   1.690 -27.738  1.00  0.00     0.002 A 
HETATM   21  C19 UNL     1       6.827   0.559 -28.431  1.00  0.00     0.030 A 
ENDBRANCH   9  16
BRANCH   6  22
HETATM   22  C9  UNL     1       5.822  -4.141 -31.315  1.00  0.00     0.159 A 
HETATM   23  C10 UNL     1       5.857  -3.800 -32.662  1.00  0.00     0.060 A 
HETATM   24  C11 UNL     1       4.938  -4.629 -33.266  1.00  0.00     0.049 A 
HETATM   25  C12 UNL     1       4.401  -5.421 -32.257  1.00  0.00     0.124 A 
HETATM   26 BR1  UNL     1       3.072  -6.748 -32.561  1.00  0.00    -0.023 Br
HETATM   27  O1  UNL     1       4.959  -5.096 -31.103  1.00  0.00    -0.286 OA
ENDBRANCH   6  22
TORSDOF 3
ENDMDL
MODEL 5
REMARK VINA RESULT: -6.971511280      0.911      1.042
REMARK  3 active torsions:
REMARK  status: ('A' for Active; 'I' for Inactive)
REMARK    1  A    between atoms: N1_3  and  C2_4 
REMARK    2  A    between atoms: N2_12  and  C9_13 
REMARK    3  A    between atoms: N3_21  and  C14_22 
ROOT
HETATM    1  S1  UNL     1       8.263  -5.532 -30.810  1.00  0.00    -0.039 SA
HETATM    2  C1  UNL     1       7.707  -4.187 -30.102  1.00  0.00     0.194 A 
HETATM    3  N1  UNL     1       6.523  -3.693 -30.521  1.00  0.00    -0.263 N 
HETATM    4  C8  UNL     1       6.063  -2.574 -29.932  1.00  0.00     0.196 A 
HETATM    5  S2  UNL     1       4.620  -1.950 -30.424  1.00  0.00    -0.039 SA
HETATM    6  N2  UNL     1       6.760  -1.948 -28.939  1.00  0.00    -0.242 N 
HETATM    7  C13 UNL     1       7.930  -2.491 -28.569  1.00  0.00     0.196 A 
HETATM    8  S3  UNL     1       8.763  -1.740 -27.380  1.00  0.00    -0.039 SA
HETATM    9  N3  UNL     1       8.431  -3.613 -29.133  1.00  0.00    -0.263 N 
ENDROOT
BRANCH   3  10
HETATM   10  C2  UNL     1       5.794  -4.341 -31.554  1.00  0.00     0.044 A 
HETATM   11  C3  UNL     1       5.947  -4.073 -32.880  1.00  0.00     0.030 A 
HETATM   12  C4  UNL     1       5.183  -4.767 -33.801  1.00  0.00     0.002 A 
HETATM   13  C5  UNL     1       4.264  -5.726 -33.434  1.00  0.00     0.000 A 
HETATM   14  C6  UNL     1       4.112  -5.996 -32.089  1.00  0.00     0.002 A 
HETATM   15  C7  UNL     1       4.866  -5.312 -31.174  1.00  0.00     0.030 A 
ENDBRANCH   3  10
BRANCH   9  16
HETATM   16  C14 UNL     1       9.673  -4.182 -28.735  1.00  0.00     0.044 A 
HETATM   17  C15 UNL     1      10.860  -3.706 -29.299  1.00  0.00     0.030 A 
HETATM   18  C16 UNL     1      12.065  -4.253 -28.918  1.00  0.00     0.002 A 
HETATM   19  C17 UNL     1      12.126  -5.267 -27.985  1.00  0.00     0.000 A 
HETATM   20  C18 UNL     1      10.944  -5.743 -27.419  1.00  0.00     0.002 A 
HETATM   21  C19 UNL     1       9.720  -5.197 -27.799  1.00  0.00     0.030 A 
ENDBRANCH   9  16
BRANCH   6  22
HETATM   22  C9  UNL     1       6.248  -0.767 -28.332  1.00  0.00     0.159 A 
HETATM   23  C10 UNL     1       5.556  -0.712 -27.128  1.00  0.00     0.060 A 
HETATM   24  C11 UNL     1       5.262   0.621 -26.942  1.00  0.00     0.049 A 
HETATM   25  C12 UNL     1       5.789   1.295 -28.038  1.00  0.00     0.124 A 
HETATM   26 BR1  UNL     1       5.657   3.178 -28.273  1.00  0.00    -0.023 Br
HETATM   27  O1  UNL     1       6.372   0.426 -28.847  1.00  0.00    -0.286 OA
ENDBRANCH   6  22
TORSDOF 3
ENDMDL
