MODEL 1
REMARK VINA RESULT: -8.319856008      0.000      0.000
REMARK  8 active torsions:
REMARK  status: ('A' for Active; 'I' for Inactive)
REMARK    1  A    between atoms: C2_2  and  C3_3 
REMARK    2  A    between atoms: C3_3  and  C4_4 
REMARK    3  A    between atoms: C3_3  and  C6_9 
REMARK    4  A    between atoms: C4_4  and  C5_6 
REMARK    5  A    between atoms: C5_6  and  O2_7 
REMARK    6  A    between atoms: C14_18  and  C15_19 
REMARK    7  A    between atoms: C15_19  and  C16_20 
REMARK       I    between atoms: C16_20  and  N1_22 
REMARK       I    between atoms: N1_22  and  C17_24 
REMARK       I    between atoms: C17_24  and  N2_26 
REMARK    8  A    between atoms: N2_26  and  N3_28 
ROOT
HETATM    1  C6  UNL     1       1.382  12.363  29.390  1.00  0.00     0.007 C 
HETATM    2  C7  UNL     1       2.401  11.875  28.421  1.00  0.00     0.022 C 
HETATM    3  C8  UNL     1       2.218  10.346  28.313  1.00  0.00     0.063 C 
HETATM    4 BR1  UNL     1       3.896   9.425  28.289  1.00  0.00    -0.091 Br
HETATM    5  C9  UNL     1       1.415  10.073  29.558  1.00  0.00     0.009 C 
HETATM    6  C10 UNL     1       0.791   8.742  29.637  1.00  0.00     0.007 C 
HETATM    7  C11 UNL     1      -0.303   8.742  30.680  1.00  0.00     0.005 C 
HETATM    8  C12 UNL     1      -1.273   9.874  30.524  1.00  0.00    -0.009 C 
HETATM    9  C13 UNL     1      -2.329   9.811  31.568  1.00  0.00     0.010 C 
HETATM   10  C14 UNL     1      -1.745  10.131  32.951  1.00  0.00    -0.005 C 
HETATM   11  C18 UNL     1      -1.112  11.509  32.891  1.00  0.00     0.005 C 
HETATM   12  C19 UNL     1       0.075  11.429  31.919  1.00  0.00     0.006 C 
HETATM   13  C20 UNL     1      -0.549  11.229  30.558  1.00  0.00    -0.002 C 
HETATM   14  C21 UNL     1       0.403  11.230  29.422  1.00  0.00    -0.031 C 
HETATM   15  C22 UNL     1      -0.329  10.978  28.150  1.00  0.00     0.016 C 
ENDROOT
BRANCH  10  16
HETATM   16  C15 UNL     1      -2.886  10.047  33.899  1.00  0.00     0.108 C 
BRANCH  16  17
HETATM   17  C16 UNL     1      -3.234  11.308  34.598  1.00  0.00     0.226 C 
HETATM   18  O3  UNL     1      -2.850  11.464  35.776  1.00  0.00    -0.273 OA
HETATM   19  N1  UNL     1      -3.982  12.292  33.926  1.00  0.00    -0.278 N 
HETATM   20  C17 UNL     1      -4.403  13.537  34.413  1.00  0.00     0.341 C 
ATOM     21  H1  UNL     1      -4.252  12.072  32.967  1.00  0.00     0.173 HD
HETATM   22  O4  UNL     1      -5.091  14.328  33.651  1.00  0.00    -0.245 OA
HETATM   23  N2  UNL     1      -4.151  14.056  35.708  1.00  0.00    -0.258 N 
ATOM     24  H2  UNL     1      -3.616  13.499  36.375  1.00  0.00     0.191 HD
BRANCH  23  25
HETATM   25  N3  UNL     1      -4.629  15.336  36.094  1.00  0.00    -0.341 N 
ATOM     26  H32 UNL     1      -4.928  15.981  35.364  1.00  0.00     0.177 HD
ATOM     27  H31 UNL     1      -4.675  15.609  37.076  1.00  0.00     0.177 HD
ENDBRANCH  23  25
ENDBRANCH  16  17
ENDBRANCH  10  16
BRANCH   1  28
HETATM   28  C3  UNL     1       0.874  13.720  29.283  1.00  0.00     0.062 C 
BRANCH  28  29
HETATM   29  C2  UNL     1       0.750  14.362  27.944  1.00  0.00     0.008 C 
HETATM   30  C1  UNL     1      -0.736  14.762  27.805  1.00  0.00     0.006 C 
ENDBRANCH  28  29
BRANCH  28  31
HETATM   31  C4  UNL     1       1.599  14.647  30.186  1.00  0.00     0.154 C 
HETATM   32  O1  UNL     1       1.565  14.463  31.402  1.00  0.00    -0.295 OA
BRANCH  31  33
HETATM   33  C5  UNL     1       2.383  15.809  29.724  1.00  0.00     0.242 C 
BRANCH  33  34
HETATM   34  O2  UNL     1       2.045  16.979  30.407  1.00  0.00    -0.394 OA
ATOM     35  H2  UNL     1       2.511  17.737  30.074  1.00  0.00     0.209 HD
ENDBRANCH  33  34
ENDBRANCH  31  33
ENDBRANCH  28  31
ENDBRANCH   1  28
TORSDOF 8
ENDMDL
MODEL 2
REMARK VINA RESULT: -7.901160180      2.576      4.290
REMARK  8 active torsions:
REMARK  status: ('A' for Active; 'I' for Inactive)
REMARK    1  A    between atoms: C2_2  and  C3_3 
REMARK    2  A    between atoms: C3_3  and  C4_4 
REMARK    3  A    between atoms: C3_3  and  C6_9 
REMARK    4  A    between atoms: C4_4  and  C5_6 
REMARK    5  A    between atoms: C5_6  and  O2_7 
REMARK    6  A    between atoms: C14_18  and  C15_19 
REMARK    7  A    between atoms: C15_19  and  C16_20 
REMARK       I    between atoms: C16_20  and  N1_22 
REMARK       I    between atoms: N1_22  and  C17_24 
REMARK       I    between atoms: C17_24  and  N2_26 
REMARK    8  A    between atoms: N2_26  and  N3_28 
ROOT
HETATM    1  C6  UNL     1       1.312  10.090  28.519  1.00  0.00     0.007 C 
HETATM    2  C7  UNL     1       2.140  10.945  27.625  1.00  0.00     0.022 C 
HETATM    3  C8  UNL     1       2.283  12.314  28.325  1.00  0.00     0.063 C 
HETATM    4 BR1  UNL     1       2.090  13.769  27.096  1.00  0.00    -0.091 Br
HETATM    5  C9  UNL     1       1.159  12.236  29.325  1.00  0.00     0.009 C 
HETATM    6  C10 UNL     1       1.174  13.255  30.386  1.00  0.00     0.007 C 
HETATM    7  C11 UNL     1       0.287  12.827  31.532  1.00  0.00     0.005 C 
HETATM    8  C12 UNL     1       0.562  11.432  32.007  1.00  0.00    -0.009 C 
HETATM    9  C13 UNL     1      -0.330  11.075  33.141  1.00  0.00     0.010 C 
HETATM   10  C14 UNL     1      -1.782  10.927  32.663  1.00  0.00    -0.005 C 
HETATM   11  C18 UNL     1      -1.818   9.865  31.578  1.00  0.00     0.005 C 
HETATM   12  C19 UNL     1      -1.012  10.399  30.384  1.00  0.00     0.006 C 
HETATM   13  C20 UNL     1       0.422  10.420  30.859  1.00  0.00    -0.002 C 
HETATM   14  C21 UNL     1       1.420  10.802  29.833  1.00  0.00    -0.031 C 
HETATM   15  C22 UNL     1       2.781  10.829  30.437  1.00  0.00     0.016 C 
ENDROOT
BRANCH  10  16
HETATM   16  C15 UNL     1      -2.568  10.564  33.870  1.00  0.00     0.108 C 
BRANCH  16  17
HETATM   17  C16 UNL     1      -3.183  11.698  34.600  1.00  0.00     0.226 C 
HETATM   18  O3  UNL     1      -3.476  11.545  35.805  1.00  0.00    -0.273 OA
HETATM   19  N1  UNL     1      -3.421  12.911  33.928  1.00  0.00    -0.278 N 
HETATM   20  C17 UNL     1      -3.986  14.086  34.445  1.00  0.00     0.341 C 
ATOM     21  H1  UNL     1      -3.150  12.939  32.946  1.00  0.00     0.173 HD
HETATM   22  O4  UNL     1      -4.133  15.120  33.678  1.00  0.00    -0.245 OA
HETATM   23  N2  UNL     1      -4.438  14.281  35.774  1.00  0.00    -0.258 N 
ATOM     24  H2  UNL     1      -4.361  13.518  36.447  1.00  0.00     0.191 HD
BRANCH  23  25
HETATM   25  N3  UNL     1      -4.996  15.519  36.187  1.00  0.00    -0.341 N 
ATOM     26  H32 UNL     1      -4.384  16.334  36.238  1.00  0.00     0.177 HD
ATOM     27  H31 UNL     1      -5.984  15.600  36.428  1.00  0.00     0.177 HD
ENDBRANCH  23  25
ENDBRANCH  16  17
ENDBRANCH  10  16
BRANCH   1  28
HETATM   28  C3  UNL     1       1.475   8.646  28.493  1.00  0.00     0.062 C 
BRANCH  28  29
HETATM   29  C2  UNL     1       2.754   8.053  28.009  1.00  0.00     0.008 C 
HETATM   30  C1  UNL     1       3.376   7.341  29.230  1.00  0.00     0.006 C 
ENDBRANCH  28  29
BRANCH  28  31
HETATM   31  C4  UNL     1       0.350   7.983  27.790  1.00  0.00     0.154 C 
HETATM   32  O1  UNL     1       0.155   6.779  27.952  1.00  0.00    -0.295 OA
BRANCH  31  33
HETATM   33  C5  UNL     1      -0.583   8.678  26.881  1.00  0.00     0.242 C 
BRANCH  33  34
HETATM   34  O2  UNL     1      -1.820   8.922  27.481  1.00  0.00    -0.394 OA
ATOM     35  H2  UNL     1      -1.978   9.849  27.615  1.00  0.00     0.209 HD
ENDBRANCH  33  34
ENDBRANCH  31  33
ENDBRANCH  28  31
ENDBRANCH   1  28
TORSDOF 8
ENDMDL
MODEL 3
REMARK VINA RESULT: -7.841856240      2.683      4.382
REMARK  8 active torsions:
REMARK  status: ('A' for Active; 'I' for Inactive)
REMARK    1  A    between atoms: C2_2  and  C3_3 
REMARK    2  A    between atoms: C3_3  and  C4_4 
REMARK    3  A    between atoms: C3_3  and  C6_9 
REMARK    4  A    between atoms: C4_4  and  C5_6 
REMARK    5  A    between atoms: C5_6  and  O2_7 
REMARK    6  A    between atoms: C14_18  and  C15_19 
REMARK    7  A    between atoms: C15_19  and  C16_20 
REMARK       I    between atoms: C16_20  and  N1_22 
REMARK       I    between atoms: N1_22  and  C17_24 
REMARK       I    between atoms: C17_24  and  N2_26 
REMARK    8  A    between atoms: N2_26  and  N3_28 
ROOT
HETATM    1  C6  UNL     1       1.648  10.061  28.960  1.00  0.00     0.007 C 
HETATM    2  C7  UNL     1       2.015  10.826  27.737  1.00  0.00     0.022 C 
HETATM    3  C8  UNL     1       1.439  12.248  27.911  1.00  0.00     0.063 C 
HETATM    4 BR1  UNL     1       0.643  12.901  26.297  1.00  0.00    -0.091 Br
HETATM    5  C9  UNL     1       0.434  12.010  29.007  1.00  0.00     0.009 C 
HETATM    6  C10 UNL     1      -0.108  13.217  29.652  1.00  0.00     0.007 C 
HETATM    7  C11 UNL     1      -0.747  12.859  30.975  1.00  0.00     0.005 C 
HETATM    8  C12 UNL     1       0.137  12.027  31.855  1.00  0.00    -0.009 C 
HETATM    9  C13 UNL     1      -0.540  11.720  33.142  1.00  0.00     0.010 C 
HETATM   10  C14 UNL     1      -1.709  10.750  32.922  1.00  0.00    -0.005 C 
HETATM   11  C18 UNL     1      -1.165   9.491  32.272  1.00  0.00     0.005 C 
HETATM   12  C19 UNL     1      -0.645   9.879  30.880  1.00  0.00     0.006 C 
HETATM   13  C20 UNL     1       0.570  10.737  31.142  1.00  0.00    -0.002 C 
HETATM   14  C21 UNL     1       1.321  11.152  29.934  1.00  0.00    -0.031 C 
HETATM   15  C22 UNL     1       2.461  12.026  30.324  1.00  0.00     0.016 C 
ENDROOT
BRANCH  10  16
HETATM   16  C15 UNL     1      -2.295  10.513  34.267  1.00  0.00     0.108 C 
BRANCH  16  17
HETATM   17  C16 UNL     1      -2.980  11.675  34.882  1.00  0.00     0.226 C 
HETATM   18  O3  UNL     1      -3.260  11.629  36.098  1.00  0.00    -0.273 OA
HETATM   19  N1  UNL     1      -3.297  12.795  34.091  1.00  0.00    -0.278 N 
HETATM   20  C17 UNL     1      -3.935  13.978  34.489  1.00  0.00     0.341 C 
ATOM     21  H1  UNL     1      -3.029  12.738  33.108  1.00  0.00     0.173 HD
HETATM   22  O4  UNL     1      -4.149  14.916  33.621  1.00  0.00    -0.245 OA
HETATM   23  N2  UNL     1      -4.396  14.280  35.794  1.00  0.00    -0.258 N 
ATOM     24  H2  UNL     1      -4.270  13.597  36.541  1.00  0.00     0.191 HD
BRANCH  23  25
HETATM   25  N3  UNL     1      -5.032  15.516  36.083  1.00  0.00    -0.341 N 
ATOM     26  H32 UNL     1      -5.679  15.900  35.394  1.00  0.00     0.177 HD
ATOM     27  H31 UNL     1      -4.853  16.013  36.955  1.00  0.00     0.177 HD
ENDBRANCH  23  25
ENDBRANCH  16  17
ENDBRANCH  10  16
BRANCH   1  28
HETATM   28  C3  UNL     1       2.487   8.961  29.403  1.00  0.00     0.062 C 
BRANCH  28  29
HETATM   29  C2  UNL     1       3.921   8.913  29.000  1.00  0.00     0.008 C 
HETATM   30  C1  UNL     1       4.726   9.290  30.263  1.00  0.00     0.006 C 
ENDBRANCH  28  29
BRANCH  28  31
HETATM   31  C4  UNL     1       1.867   7.647  29.102  1.00  0.00     0.154 C 
HETATM   32  O1  UNL     1       2.488   6.611  29.341  1.00  0.00    -0.295 OA
BRANCH  31  33
HETATM   33  C5  UNL     1       0.521   7.481  28.519  1.00  0.00     0.242 C 
BRANCH  33  34
HETATM   34  O2  UNL     1       0.080   6.157  28.577  1.00  0.00    -0.394 OA
ATOM     35  H2  UNL     1      -0.569   6.024  29.258  1.00  0.00     0.209 HD
ENDBRANCH  33  34
ENDBRANCH  31  33
ENDBRANCH  28  31
ENDBRANCH   1  28
TORSDOF 8
ENDMDL
MODEL 4
REMARK VINA RESULT: -7.803003929      2.637      4.384
REMARK  8 active torsions:
REMARK  status: ('A' for Active; 'I' for Inactive)
REMARK    1  A    between atoms: C2_2  and  C3_3 
REMARK    2  A    between atoms: C3_3  and  C4_4 
REMARK    3  A    between atoms: C3_3  and  C6_9 
REMARK    4  A    between atoms: C4_4  and  C5_6 
REMARK    5  A    between atoms: C5_6  and  O2_7 
REMARK    6  A    between atoms: C14_18  and  C15_19 
REMARK    7  A    between atoms: C15_19  and  C16_20 
REMARK       I    between atoms: C16_20  and  N1_22 
REMARK       I    between atoms: N1_22  and  C17_24 
REMARK       I    between atoms: C17_24  and  N2_26 
REMARK    8  A    between atoms: N2_26  and  N3_28 
ROOT
HETATM    1  C6  UNL     1       1.195  10.616  28.834  1.00  0.00     0.007 C 
HETATM    2  C7  UNL     1       1.964  11.554  27.972  1.00  0.00     0.022 C 
HETATM    3  C8  UNL     1       2.075  12.884  28.748  1.00  0.00     0.063 C 
HETATM    4 BR1  UNL     1       1.792  14.401  27.614  1.00  0.00    -0.091 Br
HETATM    5  C9  UNL     1       0.983  12.703  29.770  1.00  0.00     0.009 C 
HETATM    6  C10 UNL     1       0.990  13.658  30.890  1.00  0.00     0.007 C 
HETATM    7  C11 UNL     1       0.152  13.128  32.031  1.00  0.00     0.005 C 
HETATM    8  C12 UNL     1       0.493  11.720  32.414  1.00  0.00    -0.009 C 
HETATM    9  C13 UNL     1      -0.353  11.262  33.547  1.00  0.00     0.010 C 
HETATM   10  C14 UNL     1      -1.811  11.085  33.099  1.00  0.00    -0.005 C 
HETATM   11  C18 UNL     1      -1.837  10.089  31.954  1.00  0.00     0.005 C 
HETATM   12  C19 UNL     1      -1.086  10.723  30.774  1.00  0.00     0.006 C 
HETATM   13  C20 UNL     1       0.359  10.772  31.212  1.00  0.00    -0.002 C 
HETATM   14  C21 UNL     1       1.312  11.253  30.185  1.00  0.00    -0.031 C 
HETATM   15  C22 UNL     1       2.687  11.299  30.754  1.00  0.00     0.016 C 
ENDROOT
BRANCH  10  16
HETATM   16  C15 UNL     1      -2.549  10.621  34.302  1.00  0.00     0.108 C 
BRANCH  16  17
HETATM   17  C16 UNL     1      -3.630  11.517  34.777  1.00  0.00     0.226 C 
HETATM   18  O3  UNL     1      -4.695  11.007  35.182  1.00  0.00    -0.273 OA
HETATM   19  N1  UNL     1      -3.435  12.911  34.762  1.00  0.00    -0.278 N 
HETATM   20  C17 UNL     1      -4.330  13.910  35.169  1.00  0.00     0.341 C 
ATOM     21  H1  UNL     1      -2.533  13.233  34.412  1.00  0.00     0.173 HD
HETATM   22  O4  UNL     1      -3.983  15.156  35.087  1.00  0.00    -0.245 OA
HETATM   23  N2  UNL     1      -5.634  13.705  35.684  1.00  0.00    -0.258 N 
ATOM     24  H2  UNL     1      -5.990  12.754  35.783  1.00  0.00     0.191 HD
BRANCH  23  25
HETATM   25  N3  UNL     1      -6.456  14.798  36.066  1.00  0.00    -0.341 N 
ATOM     26  H32 UNL     1      -6.287  15.705  35.631  1.00  0.00     0.177 HD
ATOM     27  H31 UNL     1      -7.199  14.686  36.756  1.00  0.00     0.177 HD
ENDBRANCH  23  25
ENDBRANCH  16  17
ENDBRANCH  10  16
BRANCH   1  28
HETATM   28  C3  UNL     1       1.412   9.184  28.717  1.00  0.00     0.062 C 
BRANCH  28  29
HETATM   29  C2  UNL     1       2.687   8.672  28.141  1.00  0.00     0.008 C 
HETATM   30  C1  UNL     1       3.435   7.995  29.310  1.00  0.00     0.006 C 
ENDBRANCH  28  29
BRANCH  28  31
HETATM   31  C4  UNL     1       0.280   8.515  28.031  1.00  0.00     0.154 C 
HETATM   32  O1  UNL     1      -0.703   9.175  27.691  1.00  0.00    -0.295 OA
BRANCH  31  33
HETATM   33  C5  UNL     1       0.239   7.075  27.712  1.00  0.00     0.242 C 
BRANCH  33  34
HETATM   34  O2  UNL     1       0.152   6.282  28.859  1.00  0.00    -0.394 OA
ATOM     35  H2  UNL     1      -0.138   6.777  29.617  1.00  0.00     0.209 HD
ENDBRANCH  33  34
ENDBRANCH  31  33
ENDBRANCH  28  31
ENDBRANCH   1  28
TORSDOF 8
ENDMDL
MODEL 5
REMARK VINA RESULT: -7.655474478      4.011      7.391
REMARK  8 active torsions:
REMARK  status: ('A' for Active; 'I' for Inactive)
REMARK    1  A    between atoms: C2_2  and  C3_3 
REMARK    2  A    between atoms: C3_3  and  C4_4 
REMARK    3  A    between atoms: C3_3  and  C6_9 
REMARK    4  A    between atoms: C4_4  and  C5_6 
REMARK    5  A    between atoms: C5_6  and  O2_7 
REMARK    6  A    between atoms: C14_18  and  C15_19 
REMARK    7  A    between atoms: C15_19  and  C16_20 
REMARK       I    between atoms: C16_20  and  N1_22 
REMARK       I    between atoms: N1_22  and  C17_24 
REMARK       I    between atoms: C17_24  and  N2_26 
REMARK    8  A    between atoms: N2_26  and  N3_28 
ROOT
HETATM    1  C6  UNL     1      -3.432  11.886  33.319  1.00  0.00     0.007 C 
HETATM    2  C7  UNL     1      -4.483  10.844  33.164  1.00  0.00     0.022 C 
HETATM    3  C8  UNL     1      -3.905   9.763  32.226  1.00  0.00     0.063 C 
HETATM    4 BR1  UNL     1      -5.195   9.161  30.945  1.00  0.00    -0.091 Br
HETATM    5  C9  UNL     1      -2.763  10.520  31.598  1.00  0.00     0.009 C 
HETATM    6  C10 UNL     1      -1.786   9.706  30.858  1.00  0.00     0.007 C 
HETATM    7  C11 UNL     1      -0.506  10.485  30.655  1.00  0.00     0.005 C 
HETATM    8  C12 UNL     1       0.024  11.096  31.917  1.00  0.00    -0.009 C 
HETATM    9  C13 UNL     1       1.286  11.834  31.656  1.00  0.00     0.010 C 
HETATM   10  C14 UNL     1       1.014  13.097  30.827  1.00  0.00    -0.005 C 
HETATM   11  C18 UNL     1       0.019  13.957  31.586  1.00  0.00     0.005 C 
HETATM   12  C19 UNL     1      -1.304  13.180  31.653  1.00  0.00     0.006 C 
HETATM   13  C20 UNL     1      -1.023  12.012  32.569  1.00  0.00    -0.002 C 
HETATM   14  C21 UNL     1      -2.196  11.161  32.882  1.00  0.00    -0.031 C 
HETATM   15  C22 UNL     1      -1.778  10.026  33.750  1.00  0.00     0.016 C 
ENDROOT
BRANCH  10  16
HETATM   16  C15 UNL     1       2.336  13.750  30.641  1.00  0.00     0.108 C 
BRANCH  16  17
HETATM   17  C16 UNL     1       2.519  14.474  29.360  1.00  0.00     0.226 C 
HETATM   18  O3  UNL     1       2.951  13.844  28.373  1.00  0.00    -0.273 OA
HETATM   19  N1  UNL     1       2.206  15.844  29.285  1.00  0.00    -0.278 N 
HETATM   20  C17 UNL     1       2.310  16.692  28.174  1.00  0.00     0.341 C 
ATOM     21  H1  UNL     1       1.862  16.272  30.145  1.00  0.00     0.173 HD
HETATM   22  O4  UNL     1       1.975  17.939  28.282  1.00  0.00    -0.245 OA
HETATM   23  N2  UNL     1       2.762  16.325  26.882  1.00  0.00    -0.258 N 
ATOM     24  H2  UNL     1       3.047  15.361  26.706  1.00  0.00     0.191 HD
BRANCH  23  25
HETATM   25  N3  UNL     1       2.826  17.272  25.827  1.00  0.00    -0.341 N 
ATOM     26  H32 UNL     1       2.536  18.231  26.019  1.00  0.00     0.177 HD
ATOM     27  H31 UNL     1       3.154  17.009  24.897  1.00  0.00     0.177 HD
ENDBRANCH  23  25
ENDBRANCH  16  17
ENDBRANCH  10  16
BRANCH   1  28
HETATM   28  C3  UNL     1      -3.380  12.685  34.531  1.00  0.00     0.062 C 
BRANCH  28  29
HETATM   29  C2  UNL     1      -3.959  12.152  35.797  1.00  0.00     0.008 C 
HETATM   30  C1  UNL     1      -2.753  11.765  36.681  1.00  0.00     0.006 C 
ENDBRANCH  28  29
BRANCH  28  31
HETATM   31  C4  UNL     1      -3.911  14.051  34.307  1.00  0.00     0.154 C 
HETATM   32  O1  UNL     1      -3.445  14.746  33.404  1.00  0.00    -0.295 OA
BRANCH  31  33
HETATM   33  C5  UNL     1      -4.990  14.662  35.109  1.00  0.00     0.242 C 
BRANCH  33  34
HETATM   34  O2  UNL     1      -4.493  15.458  36.144  1.00  0.00    -0.394 OA
ATOM     35  H2  UNL     1      -3.700  15.918  35.895  1.00  0.00     0.209 HD
ENDBRANCH  33  34
ENDBRANCH  31  33
ENDBRANCH  28  31
ENDBRANCH   1  28
TORSDOF 8
ENDMDL
