MODEL 1
REMARK VINA RESULT: -6.266445582      0.000      0.000
REMARK  5 active torsions:
REMARK  status: ('A' for Active; 'I' for Inactive)
REMARK    1  A    between atoms: C3_7  and  N3_8 
REMARK    2  A    between atoms: N3_8  and  C4_10 
REMARK    3  A    between atoms: C4_10  and  C5_11 
REMARK    4  A    between atoms: C5_11  and  N4_12 
REMARK    5  A    between atoms: C6_18  and  N6_19 
ROOT
HETATM    1  C1  UNL     1      76.362  38.083  78.876  1.00  0.00     0.074 C 
HETATM    2  C2  UNL     1      75.385  38.958  78.167  1.00  0.00     0.066 A 
HETATM    3  N1  UNL     1      75.461  39.092  76.842  1.00  0.00    -0.287 N 
ATOM      4  H1  UNL     1      76.178  38.604  76.305  1.00  0.00     0.187 HD
HETATM    5  N2  UNL     1      74.573  39.881  76.240  1.00  0.00    -0.132 N 
ATOM      6  H2  UNL     1      74.616  39.996  75.227  1.00  0.00     0.205 HD
HETATM    7  C3  UNL     1      73.625  40.528  76.931  1.00  0.00     0.694 A 
HETATM    8  N5  UNL     1      73.556  40.388  78.257  1.00  0.00    -0.174 N 
ATOM      9  H5  UNL     1      72.830  40.884  78.774  1.00  0.00     0.186 HD
HETATM   10  C6  UNL     1      74.436  39.595  78.933  1.00  0.00     0.138 A 
ENDROOT
BRANCH   7  11
HETATM   11  N3  UNL     1      72.792  41.275  76.317  1.00  0.00    -0.223 N 
ATOM     12  H3  UNL     1      72.504  41.038  75.368  1.00  0.00     0.177 HD
BRANCH  11  13
HETATM   13  C4  UNL     1      72.259  42.438  76.947  1.00  0.00     0.165 C 
BRANCH  13  14
HETATM   14  C5  UNL     1      71.290  43.196  76.072  1.00  0.00     0.249 C 
BRANCH  14  15
HETATM   15  N4  UNL     1      70.222  43.796  76.799  1.00  0.00    -0.078 N 
ATOM     16  H43 UNL     1      69.453  43.137  76.920  1.00  0.00     0.274 HD
ATOM     17  H42 UNL     1      70.481  43.933  77.776  1.00  0.00     0.274 HD
ATOM     18  H41 UNL     1      69.891  44.668  76.387  1.00  0.00     0.274 HD
ENDBRANCH  14  15
ENDBRANCH  13  14
ENDBRANCH  11  13
ENDBRANCH   7  11
BRANCH  10  19
HETATM   19  N6  UNL     1      74.386  39.448  80.204  1.00  0.00    -0.383 N 
ATOM     20  H62 UNL     1      75.198  39.598  80.802  1.00  0.00     0.157 HD
ATOM     21  H61 UNL     1      73.526  39.173  80.680  1.00  0.00     0.157 HD
ENDBRANCH  10  19
TORSDOF 5
ENDMDL
MODEL 2
REMARK VINA RESULT: -6.230749670      1.310      1.355
REMARK  5 active torsions:
REMARK  status: ('A' for Active; 'I' for Inactive)
REMARK    1  A    between atoms: C3_7  and  N3_8 
REMARK    2  A    between atoms: N3_8  and  C4_10 
REMARK    3  A    between atoms: C4_10  and  C5_11 
REMARK    4  A    between atoms: C5_11  and  N4_12 
REMARK    5  A    between atoms: C6_18  and  N6_19 
ROOT
HETATM    1  C1  UNL     1      75.714  38.113  78.165  1.00  0.00     0.074 C 
HETATM    2  C2  UNL     1      74.786  39.157  77.644  1.00  0.00     0.066 A 
HETATM    3  N1  UNL     1      74.733  39.395  76.333  1.00  0.00    -0.287 N 
ATOM      4  H1  UNL     1      75.319  38.874  75.680  1.00  0.00     0.187 HD
HETATM    5  N2  UNL     1      73.893  40.334  75.900  1.00  0.00    -0.132 N 
ATOM      6  H2  UNL     1      73.839  40.531  74.900  1.00  0.00     0.205 HD
HETATM    7  C3  UNL     1      73.117  41.027  76.744  1.00  0.00     0.694 A 
HETATM    8  N5  UNL     1      73.176  40.781  78.055  1.00  0.00    -0.174 N 
ATOM      9  H5  UNL     1      72.581  41.313  78.690  1.00  0.00     0.186 HD
HETATM   10  C6  UNL     1      74.016  39.832  78.563  1.00  0.00     0.138 A 
ENDROOT
BRANCH   7  11
HETATM   11  N3  UNL     1      72.325  41.918  76.290  1.00  0.00    -0.223 N 
ATOM     12  H3  UNL     1      72.122  41.953  75.291  1.00  0.00     0.177 HD
BRANCH  11  13
HETATM   13  C4  UNL     1      71.720  42.865  77.167  1.00  0.00     0.165 C 
BRANCH  13  14
HETATM   14  C5  UNL     1      72.386  44.220  77.128  1.00  0.00     0.249 C 
BRANCH  14  15
HETATM   15  N4  UNL     1      73.584  44.282  77.895  1.00  0.00    -0.078 N 
ATOM     16  H43 UNL     1      73.850  45.251  78.072  1.00  0.00     0.274 HD
ATOM     17  H42 UNL     1      73.418  43.975  78.853  1.00  0.00     0.274 HD
ATOM     18  H41 UNL     1      74.359  43.765  77.479  1.00  0.00     0.274 HD
ENDBRANCH  14  15
ENDBRANCH  13  14
ENDBRANCH  11  13
ENDBRANCH   7  11
BRANCH  10  19
HETATM   19  N6  UNL     1      74.086  39.583  79.816  1.00  0.00    -0.383 N 
ATOM     20  H62 UNL     1      73.289  39.701  80.440  1.00  0.00     0.157 HD
ATOM     21  H61 UNL     1      74.948  39.251  80.250  1.00  0.00     0.157 HD
ENDBRANCH  10  19
TORSDOF 5
ENDMDL
MODEL 3
REMARK VINA RESULT: -5.997222182      1.931      2.508
REMARK  5 active torsions:
REMARK  status: ('A' for Active; 'I' for Inactive)
REMARK    1  A    between atoms: C3_7  and  N3_8 
REMARK    2  A    between atoms: N3_8  and  C4_10 
REMARK    3  A    between atoms: C4_10  and  C5_11 
REMARK    4  A    between atoms: C5_11  and  N4_12 
REMARK    5  A    between atoms: C6_18  and  N6_19 
ROOT
HETATM    1  C1  UNL     1      78.301  39.121  80.241  1.00  0.00     0.074 C 
HETATM    2  C2  UNL     1      76.975  39.287  79.580  1.00  0.00     0.066 A 
HETATM    3  N1  UNL     1      76.917  39.495  78.264  1.00  0.00    -0.287 N 
ATOM      4  H1  UNL     1      77.767  39.542  77.701  1.00  0.00     0.187 HD
HETATM    5  N2  UNL     1      75.716  39.640  77.705  1.00  0.00    -0.132 N 
ATOM      6  H2  UNL     1      75.652  39.800  76.699  1.00  0.00     0.205 HD
HETATM    7  C3  UNL     1      74.592  39.580  78.429  1.00  0.00     0.694 A 
HETATM    8  N5  UNL     1      74.659  39.371  79.746  1.00  0.00    -0.174 N 
ATOM      9  H5  UNL     1      73.797  39.327  80.290  1.00  0.00     0.186 HD
HETATM   10  C6  UNL     1      75.858  39.215  80.380  1.00  0.00     0.138 A 
ENDROOT
BRANCH   7  11
HETATM   11  N3  UNL     1      73.460  39.723  77.857  1.00  0.00    -0.223 N 
ATOM     12  H3  UNL     1      72.919  38.899  77.595  1.00  0.00     0.177 HD
BRANCH  11  13
HETATM   13  C4  UNL     1      72.947  41.024  77.578  1.00  0.00     0.165 C 
BRANCH  13  14
HETATM   14  C5  UNL     1      72.882  41.332  76.101  1.00  0.00     0.249 C 
BRANCH  14  15
HETATM   15  N4  UNL     1      73.418  40.296  75.284  1.00  0.00    -0.078 N 
ATOM     16  H43 UNL     1      74.333  40.004  75.624  1.00  0.00     0.274 HD
ATOM     17  H42 UNL     1      72.903  39.426  75.418  1.00  0.00     0.274 HD
ATOM     18  H41 UNL     1      73.460  40.542  74.295  1.00  0.00     0.274 HD
ENDBRANCH  14  15
ENDBRANCH  13  14
ENDBRANCH  11  13
ENDBRANCH   7  11
BRANCH  10  19
HETATM   19  N6  UNL     1      75.943  39.014  81.641  1.00  0.00    -0.383 N 
ATOM     20  H62 UNL     1      76.717  38.498  82.059  1.00  0.00     0.157 HD
ATOM     21  H61 UNL     1      75.238  39.364  82.290  1.00  0.00     0.157 HD
ENDBRANCH  10  19
TORSDOF 5
ENDMDL
MODEL 4
REMARK VINA RESULT: -5.882865557      1.461      1.761
REMARK  5 active torsions:
REMARK  status: ('A' for Active; 'I' for Inactive)
REMARK    1  A    between atoms: C3_7  and  N3_8 
REMARK    2  A    between atoms: N3_8  and  C4_10 
REMARK    3  A    between atoms: C4_10  and  C5_11 
REMARK    4  A    between atoms: C5_11  and  N4_12 
REMARK    5  A    between atoms: C6_18  and  N6_19 
ROOT
HETATM    1  C1  UNL     1      77.738  38.689  79.771  1.00  0.00     0.074 C 
HETATM    2  C2  UNL     1      76.428  39.108  79.195  1.00  0.00     0.066 A 
HETATM    3  N1  UNL     1      76.320  39.305  77.880  1.00  0.00    -0.287 N 
ATOM      4  H1  UNL     1      77.121  39.173  77.262  1.00  0.00     0.187 HD
HETATM    5  N2  UNL     1      75.136  39.679  77.398  1.00  0.00    -0.132 N 
ATOM      6  H2  UNL     1      75.034  39.835  76.395  1.00  0.00     0.205 HD
HETATM    7  C3  UNL     1      74.076  39.855  78.197  1.00  0.00     0.694 A 
HETATM    8  N5  UNL     1      74.192  39.654  79.512  1.00  0.00    -0.174 N 
ATOM      9  H5  UNL     1      73.379  39.791  80.112  1.00  0.00     0.186 HD
HETATM   10  C6  UNL     1      75.378  39.271  80.069  1.00  0.00     0.138 A 
ENDROOT
BRANCH   7  11
HETATM   11  N3  UNL     1      72.958  40.213  77.696  1.00  0.00    -0.223 N 
ATOM     12  H3  UNL     1      72.094  39.784  78.029  1.00  0.00     0.177 HD
BRANCH  11  13
HETATM   13  C4  UNL     1      72.905  41.207  76.675  1.00  0.00     0.165 C 
BRANCH  13  14
HETATM   14  C5  UNL     1      72.367  42.530  77.162  1.00  0.00     0.249 C 
BRANCH  14  15
HETATM   15  N4  UNL     1      73.376  43.398  77.669  1.00  0.00    -0.078 N 
ATOM     16  H43 UNL     1      73.218  44.357  77.359  1.00  0.00     0.274 HD
ATOM     17  H42 UNL     1      73.270  43.527  78.675  1.00  0.00     0.274 HD
ATOM     18  H41 UNL     1      74.322  43.095  77.441  1.00  0.00     0.274 HD
ENDBRANCH  14  15
ENDBRANCH  13  14
ENDBRANCH  11  13
ENDBRANCH   7  11
BRANCH  10  19
HETATM   19  N6  UNL     1      75.509  39.074  81.326  1.00  0.00    -0.383 N 
ATOM     20  H62 UNL     1      74.919  38.420  81.839  1.00  0.00     0.157 HD
ATOM     21  H61 UNL     1      76.215  39.564  81.876  1.00  0.00     0.157 HD
ENDBRANCH  10  19
TORSDOF 5
ENDMDL
MODEL 5
REMARK VINA RESULT: -5.863154684      1.980      2.986
REMARK  5 active torsions:
REMARK  status: ('A' for Active; 'I' for Inactive)
REMARK    1  A    between atoms: C3_7  and  N3_8 
REMARK    2  A    between atoms: N3_8  and  C4_10 
REMARK    3  A    between atoms: C4_10  and  C5_11 
REMARK    4  A    between atoms: C5_11  and  N4_12 
REMARK    5  A    between atoms: C6_18  and  N6_19 
ROOT
HETATM    1  C1  UNL     1      77.482  39.164  81.166  1.00  0.00     0.074 C 
HETATM    2  C2  UNL     1      76.293  39.359  80.288  1.00  0.00     0.066 A 
HETATM    3  N1  UNL     1      75.070  39.156  80.780  1.00  0.00    -0.287 N 
ATOM      4  H1  UNL     1      74.936  38.868  81.750  1.00  0.00     0.187 HD
HETATM    5  N2  UNL     1      74.030  39.339  79.969  1.00  0.00    -0.132 N 
ATOM      6  H2  UNL     1      73.087  39.187  80.328  1.00  0.00     0.205 HD
HETATM    7  C3  UNL     1      74.190  39.717  78.694  1.00  0.00     0.694 A 
HETATM    8  N5  UNL     1      75.417  39.920  78.210  1.00  0.00    -0.174 N 
ATOM      9  H5  UNL     1      75.529  40.209  77.238  1.00  0.00     0.186 HD
HETATM   10  C6  UNL     1      76.525  39.749  78.989  1.00  0.00     0.138 A 
ENDROOT
BRANCH   7  11
HETATM   11  N3  UNL     1      73.167  39.883  77.949  1.00  0.00    -0.223 N 
ATOM     12  H3  UNL     1      72.626  39.074  77.645  1.00  0.00     0.177 HD
BRANCH  11  13
HETATM   13  C4  UNL     1      72.775  41.191  77.538  1.00  0.00     0.165 C 
BRANCH  13  14
HETATM   14  C5  UNL     1      72.803  41.375  76.039  1.00  0.00     0.249 C 
BRANCH  14  15
HETATM   15  N4  UNL     1      73.607  40.411  75.367  1.00  0.00    -0.078 N 
ATOM     16  H43 UNL     1      73.264  39.467  75.544  1.00  0.00     0.274 HD
ATOM     17  H42 UNL     1      73.461  40.457  74.359  1.00  0.00     0.274 HD
ATOM     18  H41 UNL     1      74.599  40.484  75.592  1.00  0.00     0.274 HD
ENDBRANCH  14  15
ENDBRANCH  13  14
ENDBRANCH  11  13
ENDBRANCH   7  11
BRANCH  10  19
HETATM   19  N6  UNL     1      77.709  39.938  78.543  1.00  0.00    -0.383 N 
ATOM     20  H62 UNL     1      78.476  39.296  78.745  1.00  0.00     0.157 HD
ATOM     21  H61 UNL     1      77.943  40.742  77.960  1.00  0.00     0.157 HD
ENDBRANCH  10  19
TORSDOF 5
ENDMDL
