MODEL 1
REMARK VINA RESULT: -6.280053157      0.000      0.000
REMARK  5 active torsions:
REMARK  status: ('A' for Active; 'I' for Inactive)
REMARK    1  A    between atoms: N1_1  and  C1_5 
REMARK    2  A    between atoms: C1_5  and  C2_6 
REMARK    3  A    between atoms: C2_6  and  C3_7 
REMARK    4  A    between atoms: C5_9  and  C6_10 
REMARK    5  A    between atoms: C8_12  and  N2_13 
ROOT
HETATM    1  C3  UNL     1      72.519  41.700  76.330  1.00  0.00     0.029 A 
HETATM    2  C4  UNL     1      72.949  41.266  77.570  1.00  0.00     0.055 A 
HETATM    3  C5  UNL     1      73.873  40.267  77.410  1.00  0.00     0.058 A 
HETATM    4  N4  UNL     1      73.997  40.101  76.079  1.00  0.00    -0.303 N 
ATOM      5  H4  UNL     1      74.614  39.426  75.627  1.00  0.00     0.186 HD
HETATM    6  N5  UNL     1      73.192  40.952  75.443  1.00  0.00    -0.305 N 
ATOM      7  H5  UNL     1      73.102  41.025  74.430  1.00  0.00     0.186 HD
ENDROOT
BRANCH   3   8
HETATM    8  C6  UNL     1      74.580  39.530  78.457  1.00  0.00     0.243 C 
HETATM    9  C7  UNL     1      73.869  39.507  79.815  1.00  0.00     0.102 C 
HETATM   10  C8  UNL     1      75.319  39.493  80.320  1.00  0.00     0.383 C 
HETATM   11  N3  UNL     1      75.620  40.317  79.138  1.00  0.00    -0.036 N 
ATOM     12  H32 UNL     1      76.566  40.397  78.764  1.00  0.00     0.280 HD
ATOM     13  H31 UNL     1      75.590  41.336  79.171  1.00  0.00     0.280 HD
BRANCH  10  14
HETATM   14  N2  UNL     1      75.935  38.192  80.222  1.00  0.00    -0.050 N 
ATOM     15  H23 UNL     1      76.508  38.122  79.382  1.00  0.00     0.276 HD
ATOM     16  H22 UNL     1      76.661  38.078  80.929  1.00  0.00     0.276 HD
ATOM     17  H21 UNL     1      75.261  37.428  80.267  1.00  0.00     0.276 HD
ENDBRANCH  10  14
ENDBRANCH   3   8
BRANCH   1  18
HETATM   18  C2  UNL     1      71.524  42.766  76.037  1.00  0.00     0.085 C 
BRANCH  18  19
HETATM   19  C1  UNL     1      71.085  43.316  77.402  1.00  0.00     0.235 C 
BRANCH  19  20
HETATM   20  N1  UNL     1      69.904  44.124  77.151  1.00  0.00    -0.079 N 
ATOM     21  H13 UNL     1      69.597  44.103  76.178  1.00  0.00     0.274 HD
ATOM     22  H12 UNL     1      69.053  43.738  77.559  1.00  0.00     0.274 HD
ATOM     23  H11 UNL     1      70.126  45.062  77.486  1.00  0.00     0.274 HD
ENDBRANCH  19  20
ENDBRANCH  18  19
ENDBRANCH   1  18
TORSDOF 5
ENDMDL
MODEL 2
REMARK VINA RESULT: -6.033504601      1.401      5.323
REMARK  5 active torsions:
REMARK  status: ('A' for Active; 'I' for Inactive)
REMARK    1  A    between atoms: N1_1  and  C1_5 
REMARK    2  A    between atoms: C1_5  and  C2_6 
REMARK    3  A    between atoms: C2_6  and  C3_7 
REMARK    4  A    between atoms: C5_9  and  C6_10 
REMARK    5  A    between atoms: C8_12  and  N2_13 
ROOT
HETATM    1  C3  UNL     1      75.366  39.066  78.320  1.00  0.00     0.029 A 
HETATM    2  C4  UNL     1      74.352  39.947  78.648  1.00  0.00     0.055 A 
HETATM    3  C5  UNL     1      73.780  40.432  77.502  1.00  0.00     0.058 A 
HETATM    4  N4  UNL     1      74.446  39.846  76.489  1.00  0.00    -0.303 N 
ATOM      5  H4  UNL     1      74.260  39.998  75.498  1.00  0.00     0.186 HD
HETATM    6  N5  UNL     1      75.386  39.036  76.979  1.00  0.00    -0.305 N 
ATOM      7  H5  UNL     1      76.026  38.477  76.417  1.00  0.00     0.186 HD
ENDROOT
BRANCH   3   8
HETATM    8  C6  UNL     1      72.677  41.387  77.392  1.00  0.00     0.243 C 
HETATM    9  C7  UNL     1      72.395  41.877  75.968  1.00  0.00     0.102 C 
HETATM   10  C8  UNL     1      72.006  43.155  76.726  1.00  0.00     0.383 C 
HETATM   11  N3  UNL     1      73.065  42.778  77.677  1.00  0.00    -0.036 N 
ATOM     12  H32 UNL     1      73.090  43.145  78.629  1.00  0.00     0.280 HD
ATOM     13  H31 UNL     1      74.026  43.102  77.569  1.00  0.00     0.280 HD
BRANCH  10  14
HETATM   14  N2  UNL     1      70.700  43.071  77.335  1.00  0.00    -0.050 N 
ATOM     15  H23 UNL     1      69.990  42.837  76.642  1.00  0.00     0.276 HD
ATOM     16  H22 UNL     1      70.629  42.247  77.931  1.00  0.00     0.276 HD
ATOM     17  H21 UNL     1      70.446  43.915  77.847  1.00  0.00     0.276 HD
ENDBRANCH  10  14
ENDBRANCH   3   8
BRANCH   1  18
HETATM   18  C2  UNL     1      76.247  38.310  79.249  1.00  0.00     0.085 C 
BRANCH  18  19
HETATM   19  C1  UNL     1      75.996  38.906  80.642  1.00  0.00     0.235 C 
BRANCH  19  20
HETATM   20  N1  UNL     1      77.098  39.820  80.894  1.00  0.00    -0.079 N 
ATOM     21  H13 UNL     1      78.015  39.384  80.803  1.00  0.00     0.274 HD
ATOM     22  H12 UNL     1      77.219  40.521  80.164  1.00  0.00     0.274 HD
ATOM     23  H11 UNL     1      76.929  40.220  81.818  1.00  0.00     0.274 HD
ENDBRANCH  19  20
ENDBRANCH  18  19
ENDBRANCH   1  18
TORSDOF 5
ENDMDL
MODEL 3
REMARK VINA RESULT: -5.949474474      1.148      5.245
REMARK  5 active torsions:
REMARK  status: ('A' for Active; 'I' for Inactive)
REMARK    1  A    between atoms: N1_1  and  C1_5 
REMARK    2  A    between atoms: C1_5  and  C2_6 
REMARK    3  A    between atoms: C2_6  and  C3_7 
REMARK    4  A    between atoms: C5_9  and  C6_10 
REMARK    5  A    between atoms: C8_12  and  N2_13 
ROOT
HETATM    1  C3  UNL     1      74.211  39.758  77.359  1.00  0.00     0.029 A 
HETATM    2  C4  UNL     1      73.299  40.658  77.879  1.00  0.00     0.055 A 
HETATM    3  C5  UNL     1      72.745  41.387  76.861  1.00  0.00     0.058 A 
HETATM    4  N4  UNL     1      73.320  40.927  75.733  1.00  0.00    -0.303 N 
ATOM      5  H4  UNL     1      73.121  41.267  74.792  1.00  0.00     0.186 HD
HETATM    6  N5  UNL     1      74.189  39.962  76.034  1.00  0.00    -0.305 N 
ATOM      7  H5  UNL     1      74.754  39.452  75.355  1.00  0.00     0.186 HD
ENDROOT
BRANCH   3   8
HETATM    8  C6  UNL     1      71.739  42.444  76.966  1.00  0.00     0.243 C 
HETATM    9  C7  UNL     1      72.191  43.812  76.442  1.00  0.00     0.102 C 
HETATM   10  C8  UNL     1      71.262  44.297  77.565  1.00  0.00     0.383 C 
HETATM   11  N3  UNL     1      71.690  43.088  78.288  1.00  0.00    -0.036 N 
ATOM     12  H32 UNL     1      71.144  42.698  79.057  1.00  0.00     0.280 HD
ATOM     13  H31 UNL     1      72.495  43.093  78.915  1.00  0.00     0.280 HD
BRANCH  10  14
HETATM   14  N2  UNL     1      69.866  44.226  77.208  1.00  0.00    -0.050 N 
ATOM     15  H23 UNL     1      69.293  43.996  78.020  1.00  0.00     0.276 HD
ATOM     16  H22 UNL     1      69.495  45.154  77.000  1.00  0.00     0.276 HD
ATOM     17  H21 UNL     1      69.684  43.581  76.439  1.00  0.00     0.276 HD
ENDBRANCH  10  14
ENDBRANCH   3   8
BRANCH   1  18
HETATM   18  C2  UNL     1      75.039  38.773  78.104  1.00  0.00     0.085 C 
BRANCH  18  19
HETATM   19  C1  UNL     1      75.619  39.536  79.305  1.00  0.00     0.235 C 
BRANCH  19  20
HETATM   20  N1  UNL     1      76.856  40.140  78.840  1.00  0.00    -0.079 N 
ATOM     21  H13 UNL     1      76.878  41.154  78.947  1.00  0.00     0.274 HD
ATOM     22  H12 UNL     1      77.657  39.934  79.437  1.00  0.00     0.274 HD
ATOM     23  H11 UNL     1      76.978  39.831  77.876  1.00  0.00     0.274 HD
ENDBRANCH  19  20
ENDBRANCH  18  19
ENDBRANCH   1  18
TORSDOF 5
ENDMDL
MODEL 4
REMARK VINA RESULT: -5.852899836      0.996      1.210
REMARK  5 active torsions:
REMARK  status: ('A' for Active; 'I' for Inactive)
REMARK    1  A    between atoms: N1_1  and  C1_5 
REMARK    2  A    between atoms: C1_5  and  C2_6 
REMARK    3  A    between atoms: C2_6  and  C3_7 
REMARK    4  A    between atoms: C5_9  and  C6_10 
REMARK    5  A    between atoms: C8_12  and  N2_13 
ROOT
HETATM    1  C3  UNL     1      72.786  41.313  76.379  1.00  0.00     0.029 A 
HETATM    2  C4  UNL     1      73.196  41.017  77.666  1.00  0.00     0.055 A 
HETATM    3  C5  UNL     1      74.175  40.060  77.625  1.00  0.00     0.058 A 
HETATM    4  N4  UNL     1      74.353  39.781  76.319  1.00  0.00    -0.303 N 
ATOM      5  H4  UNL     1      75.018  39.103  75.949  1.00  0.00     0.186 HD
HETATM    6  N5  UNL     1      73.527  40.527  75.584  1.00  0.00    -0.305 N 
ATOM      7  H5  UNL     1      73.467  40.503  74.567  1.00  0.00     0.186 HD
ENDROOT
BRANCH   3   8
HETATM    8  C6  UNL     1      74.883  39.460  78.755  1.00  0.00     0.243 C 
HETATM    9  C7  UNL     1      76.399  39.682  78.752  1.00  0.00     0.102 C 
HETATM   10  C8  UNL     1      76.377  38.298  79.415  1.00  0.00     0.383 C 
HETATM   11  N3  UNL     1      75.201  38.035  78.568  1.00  0.00    -0.036 N 
ATOM     12  H32 UNL     1      74.530  37.300  78.792  1.00  0.00     0.280 HD
ATOM     13  H31 UNL     1      75.288  37.620  77.641  1.00  0.00     0.280 HD
BRANCH  10  14
HETATM   14  N2  UNL     1      76.016  38.349  80.811  1.00  0.00    -0.050 N 
ATOM     15  H23 UNL     1      76.579  37.698  81.357  1.00  0.00     0.276 HD
ATOM     16  H22 UNL     1      76.319  39.226  81.234  1.00  0.00     0.276 HD
ATOM     17  H21 UNL     1      75.021  38.193  80.971  1.00  0.00     0.276 HD
ENDBRANCH  10  14
ENDBRANCH   3   8
BRANCH   1  18
HETATM   18  C2  UNL     1      71.748  42.292  75.960  1.00  0.00     0.085 C 
BRANCH  18  19
HETATM   19  C1  UNL     1      71.433  43.129  77.210  1.00  0.00     0.235 C 
BRANCH  19  20
HETATM   20  N1  UNL     1      70.233  43.885  76.897  1.00  0.00    -0.079 N 
ATOM     21  H13 UNL     1      69.865  44.410  77.691  1.00  0.00     0.274 HD
ATOM     22  H12 UNL     1      70.405  44.685  76.288  1.00  0.00     0.274 HD
ATOM     23  H11 UNL     1      69.568  43.216  76.509  1.00  0.00     0.274 HD
ENDBRANCH  19  20
ENDBRANCH  18  19
ENDBRANCH   1  18
TORSDOF 5
ENDMDL
MODEL 5
REMARK VINA RESULT: -5.826509959      1.745      5.597
REMARK  5 active torsions:
REMARK  status: ('A' for Active; 'I' for Inactive)
REMARK    1  A    between atoms: N1_1  and  C1_5 
REMARK    2  A    between atoms: C1_5  and  C2_6 
REMARK    3  A    between atoms: C2_6  and  C3_7 
REMARK    4  A    between atoms: C5_9  and  C6_10 
REMARK    5  A    between atoms: C8_12  and  N2_13 
ROOT
HETATM    1  C3  UNL     1      75.225  38.889  78.744  1.00  0.00     0.029 A 
HETATM    2  C4  UNL     1      74.643  39.650  77.747  1.00  0.00     0.055 A 
HETATM    3  C5  UNL     1      73.560  40.318  78.255  1.00  0.00     0.058 A 
HETATM    4  N4  UNL     1      73.492  39.962  79.552  1.00  0.00    -0.303 N 
ATOM      5  H4  UNL     1      72.790  40.290  80.215  1.00  0.00     0.186 HD
HETATM    6  N5  UNL     1      74.481  39.113  79.837  1.00  0.00    -0.305 N 
ATOM      7  H5  UNL     1      74.647  38.697  80.753  1.00  0.00     0.186 HD
ENDROOT
BRANCH   3   8
HETATM    8  C6  UNL     1      72.662  41.230  77.546  1.00  0.00     0.243 C 
HETATM    9  C7  UNL     1      72.906  41.323  76.036  1.00  0.00     0.102 C 
HETATM   10  C8  UNL     1      72.437  42.765  76.277  1.00  0.00     0.383 C 
HETATM   11  N3  UNL     1      73.088  42.638  77.592  1.00  0.00    -0.036 N 
ATOM     12  H32 UNL     1      72.847  43.248  78.374  1.00  0.00     0.280 HD
ATOM     13  H31 UNL     1      74.062  42.901  77.738  1.00  0.00     0.280 HD
BRANCH  10  14
HETATM   14  N2  UNL     1      71.005  42.875  76.410  1.00  0.00    -0.050 N 
ATOM     15  H23 UNL     1      70.692  43.825  76.211  1.00  0.00     0.276 HD
ATOM     16  H22 UNL     1      70.529  42.381  75.655  1.00  0.00     0.276 HD
ATOM     17  H21 UNL     1      70.665  42.563  77.320  1.00  0.00     0.276 HD
ENDBRANCH  10  14
ENDBRANCH   3   8
BRANCH   1  18
HETATM   18  C2  UNL     1      76.419  38.010  78.634  1.00  0.00     0.085 C 
BRANCH  18  19
HETATM   19  C1  UNL     1      77.469  38.609  79.581  1.00  0.00     0.235 C 
BRANCH  19  20
HETATM   20  N1  UNL     1      77.928  39.835  78.951  1.00  0.00    -0.079 N 
ATOM     21  H13 UNL     1      77.405  40.662  79.241  1.00  0.00     0.274 HD
ATOM     22  H12 UNL     1      78.842  40.144  79.281  1.00  0.00     0.274 HD
ATOM     23  H11 UNL     1      77.895  39.667  77.945  1.00  0.00     0.274 HD
ENDBRANCH  19  20
ENDBRANCH  18  19
ENDBRANCH   1  18
TORSDOF 5
ENDMDL
