MODEL 1
REMARK VINA RESULT: -5.820324814      0.000      0.000
REMARK  5 active torsions:
REMARK  status: ('A' for Active; 'I' for Inactive)
REMARK    1  A    between atoms: N3_10  and  C5_12 
REMARK    2  A    between atoms: C5_12  and  C6_13 
REMARK    3  A    between atoms: C6_13  and  N4_14 
REMARK    4  A    between atoms: C6_13  and  C7_18 
REMARK    5  A    between atoms: C7_18  and  N5_19 
ROOT
HETATM    1  N1  UNL     1      73.397  39.678  80.092  1.00  0.00    -0.380 N 
ATOM      2  H11 UNL     1      72.622  40.266  80.399  1.00  0.00     0.158 HD
ATOM      3  H12 UNL     1      73.870  39.077  80.766  1.00  0.00     0.158 HD
HETATM    4  C1  UNL     1      73.772  39.704  78.836  1.00  0.00     0.146 A 
HETATM    5  C2  UNL     1      74.819  38.911  78.422  1.00  0.00     0.073 A 
HETATM    6  C3  UNL     1      75.202  38.947  77.104  1.00  0.00     0.096 A 
HETATM    7  N2  UNL     1      74.533  39.761  76.275  1.00  0.00    -0.332 N 
ATOM      8  H2  UNL     1      74.804  39.803  75.293  1.00  0.00     0.168 HD
HETATM    9  C4  UNL     1      73.515  40.524  76.708  1.00  0.00     0.225 A 
HETATM   10  N3  UNL     1      72.902  41.292  75.869  1.00  0.00    -0.354 N 
ATOM     11  H3  UNL     1      73.200  41.306  74.893  1.00  0.00     0.163 HD
HETATM   12  O1  UNL     1      73.163  40.476  77.970  1.00  0.00    -0.263 OA
ENDROOT
BRANCH  10  13
HETATM   13  C5  UNL     1      71.813  42.123  76.280  1.00  0.00     0.157 C 
BRANCH  13  14
HETATM   14  C6  UNL     1      72.286  43.537  76.542  1.00  0.00     0.226 C 
BRANCH  14  15
HETATM   15  N4  UNL     1      71.923  44.449  75.492  1.00  0.00    -0.072 N 
ATOM     16  H43 UNL     1      72.413  45.338  75.595  1.00  0.00     0.274 HD
ATOM     17  H42 UNL     1      72.310  44.149  74.598  1.00  0.00     0.274 HD
ATOM     18  H41 UNL     1      70.915  44.592  75.424  1.00  0.00     0.274 HD
ENDBRANCH  14  15
BRANCH  14  19
HETATM   19  C7  UNL     1      71.681  44.057  77.837  1.00  0.00     0.264 C 
BRANCH  19  20
HETATM   20  N5  UNL     1      71.598  42.959  78.748  1.00  0.00    -0.077 N 
ATOM     21  H53 UNL     1      71.911  43.199  79.688  1.00  0.00     0.274 HD
ATOM     22  H52 UNL     1      70.637  42.714  78.985  1.00  0.00     0.274 HD
ATOM     23  H51 UNL     1      72.118  42.181  78.343  1.00  0.00     0.274 HD
ENDBRANCH  19  20
ENDBRANCH  14  19
ENDBRANCH  13  14
ENDBRANCH  10  13
TORSDOF 5
ENDMDL
MODEL 2
REMARK VINA RESULT: -5.750336775      1.534      4.763
REMARK  5 active torsions:
REMARK  status: ('A' for Active; 'I' for Inactive)
REMARK    1  A    between atoms: N3_10  and  C5_12 
REMARK    2  A    between atoms: C5_12  and  C6_13 
REMARK    3  A    between atoms: C6_13  and  N4_14 
REMARK    4  A    between atoms: C6_13  and  C7_18 
REMARK    5  A    between atoms: C7_18  and  N5_19 
ROOT
HETATM    1  N1  UNL     1      70.988  43.503  79.438  1.00  0.00    -0.380 N 
ATOM      2  H11 UNL     1      71.275  43.019  80.289  1.00  0.00     0.158 HD
ATOM      3  H12 UNL     1      70.381  44.320  79.505  1.00  0.00     0.158 HD
HETATM    4  C1  UNL     1      71.403  43.068  78.274  1.00  0.00     0.146 A 
HETATM    5  C2  UNL     1      71.015  43.721  77.125  1.00  0.00     0.073 A 
HETATM    6  C3  UNL     1      71.456  43.254  75.911  1.00  0.00     0.096 A 
HETATM    7  N2  UNL     1      72.251  42.175  75.902  1.00  0.00    -0.332 N 
ATOM      8  H2  UNL     1      72.588  41.813  75.010  1.00  0.00     0.168 HD
HETATM    9  C4  UNL     1      72.614  41.558  77.039  1.00  0.00     0.225 A 
HETATM   10  N3  UNL     1      73.382  40.521  76.976  1.00  0.00    -0.354 N 
ATOM     11  H3  UNL     1      73.700  40.189  76.066  1.00  0.00     0.163 HD
HETATM   12  O1  UNL     1      72.182  42.018  78.189  1.00  0.00    -0.263 OA
ENDROOT
BRANCH  10  13
HETATM   13  C5  UNL     1      73.795  39.830  78.158  1.00  0.00     0.157 C 
BRANCH  13  14
HETATM   14  C6  UNL     1      74.998  38.955  77.876  1.00  0.00     0.226 C 
BRANCH  14  15
HETATM   15  N4  UNL     1      75.739  39.383  76.721  1.00  0.00    -0.072 N 
ATOM     16  H43 UNL     1      75.405  40.287  76.387  1.00  0.00     0.274 HD
ATOM     17  H42 UNL     1      76.692  39.642  76.974  1.00  0.00     0.274 HD
ATOM     18  H41 UNL     1      75.736  38.692  75.971  1.00  0.00     0.274 HD
ENDBRANCH  14  15
BRANCH  14  19
HETATM   19  C7  UNL     1      75.945  38.972  79.066  1.00  0.00     0.264 C 
BRANCH  19  20
HETATM   20  N5  UNL     1      76.772  40.130  78.946  1.00  0.00    -0.077 N 
ATOM     21  H53 UNL     1      77.753  39.903  78.786  1.00  0.00     0.274 HD
ATOM     22  H52 UNL     1      76.611  40.645  78.081  1.00  0.00     0.274 HD
ATOM     23  H51 UNL     1      76.629  40.701  79.780  1.00  0.00     0.274 HD
ENDBRANCH  19  20
ENDBRANCH  14  19
ENDBRANCH  13  14
ENDBRANCH  10  13
TORSDOF 5
ENDMDL
MODEL 3
REMARK VINA RESULT: -5.632142587      1.857      2.581
REMARK  5 active torsions:
REMARK  status: ('A' for Active; 'I' for Inactive)
REMARK    1  A    between atoms: N3_10  and  C5_12 
REMARK    2  A    between atoms: C5_12  and  C6_13 
REMARK    3  A    between atoms: C6_13  and  N4_14 
REMARK    4  A    between atoms: C6_13  and  C7_18 
REMARK    5  A    between atoms: C7_18  and  N5_19 
ROOT
HETATM    1  N1  UNL     1      76.698  40.230  80.893  1.00  0.00    -0.380 N 
ATOM      2  H11 UNL     1      76.279  41.130  81.128  1.00  0.00     0.158 HD
ATOM      3  H12 UNL     1      77.499  39.893  81.427  1.00  0.00     0.158 HD
HETATM    4  C1  UNL     1      76.200  39.521  79.910  1.00  0.00     0.146 A 
HETATM    5  C2  UNL     1      76.766  38.306  79.592  1.00  0.00     0.073 A 
HETATM    6  C3  UNL     1      76.235  37.572  78.559  1.00  0.00     0.096 A 
HETATM    7  N2  UNL     1      75.182  38.079  77.903  1.00  0.00    -0.332 N 
ATOM      8  H2  UNL     1      74.774  37.549  77.133  1.00  0.00     0.168 HD
HETATM    9  C4  UNL     1      74.650  39.267  78.235  1.00  0.00     0.225 A 
HETATM   10  N3  UNL     1      73.634  39.711  77.571  1.00  0.00    -0.354 N 
ATOM     11  H3  UNL     1      73.253  39.153  76.808  1.00  0.00     0.163 HD
HETATM   12  O1  UNL     1      75.170  39.953  79.224  1.00  0.00    -0.263 OA
ENDROOT
BRANCH  10  13
HETATM   13  C5  UNL     1      73.033  40.970  77.887  1.00  0.00     0.157 C 
BRANCH  13  14
HETATM   14  C6  UNL     1      72.890  41.823  76.644  1.00  0.00     0.226 C 
BRANCH  14  15
HETATM   15  N4  UNL     1      72.848  41.045  75.437  1.00  0.00    -0.072 N 
ATOM     16  H43 UNL     1      73.505  41.408  74.745  1.00  0.00     0.274 HD
ATOM     17  H42 UNL     1      73.256  40.122  75.583  1.00  0.00     0.274 HD
ATOM     18  H41 UNL     1      71.909  40.971  75.046  1.00  0.00     0.274 HD
ENDBRANCH  14  15
BRANCH  14  19
HETATM   19  C7  UNL     1      71.607  42.636  76.716  1.00  0.00     0.264 C 
BRANCH  19  20
HETATM   20  N5  UNL     1      71.672  43.640  75.701  1.00  0.00    -0.077 N 
ATOM     21  H53 UNL     1      72.342  44.378  75.915  1.00  0.00     0.274 HD
ATOM     22  H52 UNL     1      72.110  43.307  74.841  1.00  0.00     0.274 HD
ATOM     23  H51 UNL     1      70.727  43.993  75.553  1.00  0.00     0.274 HD
ENDBRANCH  19  20
ENDBRANCH  14  19
ENDBRANCH  13  14
ENDBRANCH  10  13
TORSDOF 5
ENDMDL
MODEL 4
REMARK VINA RESULT: -5.631414432      2.031      3.020
REMARK  5 active torsions:
REMARK  status: ('A' for Active; 'I' for Inactive)
REMARK    1  A    between atoms: N3_10  and  C5_12 
REMARK    2  A    between atoms: C5_12  and  C6_13 
REMARK    3  A    between atoms: C6_13  and  N4_14 
REMARK    4  A    between atoms: C6_13  and  C7_18 
REMARK    5  A    between atoms: C7_18  and  N5_19 
ROOT
HETATM    1  N1  UNL     1      77.739  39.982  78.533  1.00  0.00    -0.380 N 
ATOM      2  H11 UNL     1      77.740  40.432  77.618  1.00  0.00     0.158 HD
ATOM      3  H12 UNL     1      78.624  39.706  78.958  1.00  0.00     0.158 HD
HETATM    4  C1  UNL     1      76.602  39.764  79.147  1.00  0.00     0.146 A 
HETATM    5  C2  UNL     1      76.601  39.156  80.383  1.00  0.00     0.073 A 
HETATM    6  C3  UNL     1      75.403  38.933  81.016  1.00  0.00     0.096 A 
HETATM    7  N2  UNL     1      74.281  39.323  80.396  1.00  0.00    -0.332 N 
ATOM      8  H2  UNL     1      73.381  39.165  80.850  1.00  0.00     0.168 HD
HETATM    9  C4  UNL     1      74.312  39.915  79.190  1.00  0.00     0.225 A 
HETATM   10  N3  UNL     1      73.201  40.272  78.634  1.00  0.00    -0.354 N 
ATOM     11  H3  UNL     1      72.321  40.099  79.119  1.00  0.00     0.163 HD
HETATM   12  O1  UNL     1      75.465  40.119  78.601  1.00  0.00    -0.263 OA
ENDROOT
BRANCH  10  13
HETATM   13  C5  UNL     1      73.182  40.905  77.352  1.00  0.00     0.157 C 
BRANCH  13  14
HETATM   14  C6  UNL     1      72.452  42.230  77.418  1.00  0.00     0.226 C 
BRANCH  14  15
HETATM   15  N4  UNL     1      73.319  43.328  77.740  1.00  0.00    -0.072 N 
ATOM     16  H43 UNL     1      72.784  44.184  77.890  1.00  0.00     0.274 HD
ATOM     17  H42 UNL     1      73.719  43.218  78.672  1.00  0.00     0.274 HD
ATOM     18  H41 UNL     1      74.051  43.472  77.044  1.00  0.00     0.274 HD
ENDBRANCH  14  15
BRANCH  14  19
HETATM   19  C7  UNL     1      71.799  42.531  76.078  1.00  0.00     0.264 C 
BRANCH  19  20
HETATM   20  N5  UNL     1      70.731  43.452  76.314  1.00  0.00    -0.077 N 
ATOM     21  H53 UNL     1      69.994  43.392  75.611  1.00  0.00     0.274 HD
ATOM     22  H52 UNL     1      70.164  43.203  77.124  1.00  0.00     0.274 HD
ATOM     23  H51 UNL     1      71.137  44.385  76.384  1.00  0.00     0.274 HD
ENDBRANCH  19  20
ENDBRANCH  14  19
ENDBRANCH  13  14
ENDBRANCH  10  13
TORSDOF 5
ENDMDL
MODEL 5
REMARK VINA RESULT: -5.561884435      1.473      4.860
REMARK  5 active torsions:
REMARK  status: ('A' for Active; 'I' for Inactive)
REMARK    1  A    between atoms: N3_10  and  C5_12 
REMARK    2  A    between atoms: C5_12  and  C6_13 
REMARK    3  A    between atoms: C6_13  and  N4_14 
REMARK    4  A    between atoms: C6_13  and  C7_18 
REMARK    5  A    between atoms: C7_18  and  N5_19 
ROOT
HETATM    1  N1  UNL     1      70.957  43.501  79.475  1.00  0.00    -0.380 N 
ATOM      2  H11 UNL     1      71.212  42.948  80.293  1.00  0.00     0.158 HD
ATOM      3  H12 UNL     1      70.376  44.331  79.591  1.00  0.00     0.158 HD
HETATM    4  C1  UNL     1      71.379  43.137  78.289  1.00  0.00     0.146 A 
HETATM    5  C2  UNL     1      71.034  43.884  77.185  1.00  0.00     0.073 A 
HETATM    6  C3  UNL     1      71.483  43.491  75.947  1.00  0.00     0.096 A 
HETATM    7  N2  UNL     1      72.242  42.389  75.873  1.00  0.00    -0.332 N 
ATOM      8  H2  UNL     1      72.584  42.082  74.962  1.00  0.00     0.168 HD
HETATM    9  C4  UNL     1      72.564  41.681  76.967  1.00  0.00     0.225 A 
HETATM   10  N3  UNL     1      73.299  40.625  76.842  1.00  0.00    -0.354 N 
ATOM     11  H3  UNL     1      73.624  40.349  75.916  1.00  0.00     0.163 HD
HETATM   12  O1  UNL     1      72.126  42.070  78.141  1.00  0.00    -0.263 OA
ENDROOT
BRANCH  10  13
HETATM   13  C5  UNL     1      73.668  39.837  77.977  1.00  0.00     0.157 C 
BRANCH  13  14
HETATM   14  C6  UNL     1      75.172  39.684  78.059  1.00  0.00     0.226 C 
BRANCH  14  15
HETATM   15  N4  UNL     1      75.724  40.243  79.262  1.00  0.00    -0.072 N 
ATOM     16  H43 UNL     1      75.881  39.519  79.963  1.00  0.00     0.274 HD
ATOM     17  H42 UNL     1      76.688  40.544  79.116  1.00  0.00     0.274 HD
ATOM     18  H41 UNL     1      75.159  41.003  79.641  1.00  0.00     0.274 HD
ENDBRANCH  14  15
BRANCH  14  19
HETATM   19  C7  UNL     1      75.548  38.211  78.017  1.00  0.00     0.264 C 
BRANCH  19  20
HETATM   20  N5  UNL     1      74.431  37.493  77.489  1.00  0.00    -0.077 N 
ATOM     21  H53 UNL     1      73.623  38.090  77.315  1.00  0.00     0.274 HD
ATOM     22  H52 UNL     1      74.578  37.183  76.528  1.00  0.00     0.274 HD
ATOM     23  H51 UNL     1      74.227  36.725  78.127  1.00  0.00     0.274 HD
ENDBRANCH  19  20
ENDBRANCH  14  19
ENDBRANCH  13  14
ENDBRANCH  10  13
TORSDOF 5
ENDMDL
