MODEL 1
REMARK VINA RESULT: -5.354413319      0.000      0.000
REMARK  6 active torsions:
REMARK  status: ('A' for Active; 'I' for Inactive)
REMARK    1  A    between atoms: C1_2  and  C2_4 
REMARK    2  A    between atoms: C2_4  and  N1_5 
REMARK    3  A    between atoms: C7_16  and  C8_17 
REMARK    4  A    between atoms: C8_17  and  O5_18 
REMARK    5  A    between atoms: C8_17  and  C9_20 
REMARK    6  A    between atoms: C9_20  and  O6_21 
ROOT
HETATM    1  N1  UNL     1      29.172  30.057  38.117  1.00  0.00    -0.254 N 
HETATM    2  C3  UNL     1      28.947  30.576  36.900  1.00  0.00     0.330 A 
HETATM    3  O3  UNL     1      28.800  31.809  36.699  1.00  0.00    -0.246 OA
HETATM    4  N2  UNL     1      28.863  29.786  35.793  1.00  0.00    -0.303 N 
ATOM      5  H2  UNL     1      28.692  30.216  34.884  1.00  0.00     0.171 HD
HETATM    6  C4  UNL     1      29.004  28.442  35.877  1.00  0.00     0.114 A 
HETATM    7  C5  UNL     1      29.236  27.894  37.124  1.00  0.00     0.133 A 
HETATM    8  C6  UNL     1      29.317  28.727  38.236  1.00  0.00     0.281 A 
HETATM    9  O4  UNL     1      29.529  28.171  39.344  1.00  0.00    -0.265 OA
HETATM   10  N3  UNL     1      29.386  26.484  37.229  1.00  0.00    -0.336 N 
ATOM     11  H3  UNL     1      29.558  26.083  38.151  1.00  0.00     0.167 HD
HETATM   12  C7  UNL     1      29.316  25.681  36.212  1.00  0.00     0.134 A 
HETATM   13  N4  UNL     1      29.078  26.186  34.890  1.00  0.00    -0.225 N 
HETATM   14  N5  UNL     1      28.959  25.564  33.659  1.00  0.00    -0.111 NA
HETATM   15  C10 UNL     1      28.723  26.621  32.717  1.00  0.00     0.258 A 
HETATM   16  N6  UNL     1      28.715  27.826  33.459  1.00  0.00    -0.358 N 
ATOM     17  H6  UNL     1      28.570  28.755  33.065  1.00  0.00     0.162 HD
HETATM   18  C11 UNL     1      28.916  27.577  34.692  1.00  0.00     0.152 A 
ENDROOT
BRANCH  12  19
HETATM   19  C8  UNL     1      29.483  24.233  36.404  1.00  0.00     0.210 C 
BRANCH  19  20
HETATM   20  O5  UNL     1      28.260  23.659  36.767  1.00  0.00    -0.386 OA
ATOM     21  H5  UNL     1      28.384  23.078  37.507  1.00  0.00     0.210 HD
ENDBRANCH  19  20
BRANCH  19  22
HETATM   22  C9  UNL     1      30.436  23.899  37.530  1.00  0.00     0.203 C 
BRANCH  22  23
HETATM   23  O6  UNL     1      29.702  23.930  38.734  1.00  0.00    -0.398 OA
ATOM     24  H6  UNL     1      29.257  23.095  38.820  1.00  0.00     0.209 HD
ENDBRANCH  22  23
ENDBRANCH  19  22
ENDBRANCH  12  19
BRANCH   1  25
HETATM   25  C2  UNL     1      29.260  30.886  39.277  1.00  0.00     0.250 C 
BRANCH  25  26
HETATM   26  C1  UNL     1      27.947  31.119  39.930  1.00  0.00     0.192 C 
HETATM   27  O1  UNL     1      27.498  30.433  40.881  1.00  0.00    -0.647 OA
HETATM   28  O2  UNL     1      27.146  32.158  39.477  1.00  0.00    -0.647 OA
ENDBRANCH  25  26
ENDBRANCH   1  25
TORSDOF 6
ENDMDL
MODEL 2
REMARK VINA RESULT: -5.342536074      3.762      8.249
REMARK  6 active torsions:
REMARK  status: ('A' for Active; 'I' for Inactive)
REMARK    1  A    between atoms: C1_2  and  C2_4 
REMARK    2  A    between atoms: C2_4  and  N1_5 
REMARK    3  A    between atoms: C7_16  and  C8_17 
REMARK    4  A    between atoms: C8_17  and  O5_18 
REMARK    5  A    between atoms: C8_17  and  C9_20 
REMARK    6  A    between atoms: C9_20  and  O6_21 
ROOT
HETATM    1  N1  UNL     1      30.051  29.769  38.926  1.00  0.00    -0.254 N 
HETATM    2  C3  UNL     1      31.390  29.723  38.997  1.00  0.00     0.330 A 
HETATM    3  O3  UNL     1      32.086  28.950  38.291  1.00  0.00    -0.246 OA
HETATM    4  N2  UNL     1      32.086  30.525  39.852  1.00  0.00    -0.303 N 
ATOM      5  H2  UNL     1      33.104  30.463  39.879  1.00  0.00     0.171 HD
HETATM    6  C4  UNL     1      31.452  31.402  40.667  1.00  0.00     0.114 A 
HETATM    7  C5  UNL     1      30.072  31.459  40.603  1.00  0.00     0.133 A 
HETATM    8  C6  UNL     1      29.390  30.629  39.719  1.00  0.00     0.281 A 
HETATM    9  O4  UNL     1      28.136  30.726  39.707  1.00  0.00    -0.265 OA
HETATM   10  N3  UNL     1      29.391  32.375  41.451  1.00  0.00    -0.336 N 
ATOM     11  H3  UNL     1      28.374  32.416  41.401  1.00  0.00     0.167 HD
HETATM   12  C7  UNL     1      29.999  33.162  42.285  1.00  0.00     0.134 A 
HETATM   13  N4  UNL     1      31.430  33.152  42.400  1.00  0.00    -0.225 N 
HETATM   14  N5  UNL     1      32.310  33.870  43.191  1.00  0.00    -0.111 NA
HETATM   15  C10 UNL     1      33.618  33.398  42.835  1.00  0.00     0.258 A 
HETATM   16  N6  UNL     1      33.431  32.410  41.840  1.00  0.00    -0.358 N 
ATOM     17  H6  UNL     1      34.180  31.887  41.386  1.00  0.00     0.162 HD
HETATM   18  C11 UNL     1      32.189  32.272  41.593  1.00  0.00     0.152 A 
ENDROOT
BRANCH  12  19
HETATM   19  C8  UNL     1      29.222  34.083  43.128  1.00  0.00     0.210 C 
BRANCH  19  20
HETATM   20  O5  UNL     1      28.071  33.439  43.597  1.00  0.00    -0.386 OA
ATOM     21  H5  UNL     1      27.341  33.626  43.020  1.00  0.00     0.210 HD
ENDBRANCH  19  20
BRANCH  19  22
HETATM   22  C9  UNL     1      28.727  35.293  42.369  1.00  0.00     0.203 C 
BRANCH  22  23
HETATM   23  O6  UNL     1      27.834  34.838  41.377  1.00  0.00    -0.398 OA
ATOM     24  H6  UNL     1      27.483  34.004  41.666  1.00  0.00     0.209 HD
ENDBRANCH  22  23
ENDBRANCH  19  22
ENDBRANCH  12  19
BRANCH   1  25
HETATM   25  C2  UNL     1      29.322  28.929  38.029  1.00  0.00     0.250 C 
BRANCH  25  26
HETATM   26  C1  UNL     1      28.809  27.694  38.672  1.00  0.00     0.192 C 
HETATM   27  O1  UNL     1      29.537  26.802  39.174  1.00  0.00    -0.647 OA
HETATM   28  O2  UNL     1      27.437  27.490  38.735  1.00  0.00    -0.647 OA
ENDBRANCH  25  26
ENDBRANCH   1  25
TORSDOF 6
ENDMDL
MODEL 3
REMARK VINA RESULT: -5.256548570      3.917      6.265
REMARK  6 active torsions:
REMARK  status: ('A' for Active; 'I' for Inactive)
REMARK    1  A    between atoms: C1_2  and  C2_4 
REMARK    2  A    between atoms: C2_4  and  N1_5 
REMARK    3  A    between atoms: C7_16  and  C8_17 
REMARK    4  A    between atoms: C8_17  and  O5_18 
REMARK    5  A    between atoms: C8_17  and  C9_20 
REMARK    6  A    between atoms: C9_20  and  O6_21 
ROOT
HETATM    1  N1  UNL     1      29.346  33.190  41.838  1.00  0.00    -0.254 N 
HETATM    2  C3  UNL     1      29.053  31.952  42.264  1.00  0.00     0.330 A 
HETATM    3  O3  UNL     1      28.936  31.657  43.481  1.00  0.00    -0.246 OA
HETATM    4  N2  UNL     1      28.862  30.924  41.389  1.00  0.00    -0.303 N 
ATOM      5  H2  UNL     1      28.640  29.996  41.750  1.00  0.00     0.171 HD
HETATM    6  C4  UNL     1      28.960  31.112  40.052  1.00  0.00     0.114 A 
HETATM    7  C5  UNL     1      29.261  32.383  39.599  1.00  0.00     0.133 A 
HETATM    8  C6  UNL     1      29.450  33.412  40.517  1.00  0.00     0.281 A 
HETATM    9  O4  UNL     1      29.722  34.546  40.045  1.00  0.00    -0.265 OA
HETATM   10  N3  UNL     1      29.367  32.597  38.198  1.00  0.00    -0.336 N 
ATOM     11  H3  UNL     1      29.588  33.536  37.867  1.00  0.00     0.167 HD
HETATM   12  C7  UNL     1      29.197  31.659  37.318  1.00  0.00     0.134 A 
HETATM   13  N4  UNL     1      28.882  30.318  37.721  1.00  0.00    -0.225 N 
HETATM   14  N5  UNL     1      28.656  29.155  37.006  1.00  0.00    -0.111 NA
HETATM   15  C10 UNL     1      28.389  28.145  37.991  1.00  0.00     0.258 A 
HETATM   16  N6  UNL     1      28.477  28.780  39.251  1.00  0.00    -0.358 N 
ATOM     17  H6  UNL     1      28.336  28.320  40.151  1.00  0.00     0.162 HD
HETATM   18  C11 UNL     1      28.757  30.014  39.097  1.00  0.00     0.152 A 
ENDROOT
BRANCH  12  19
HETATM   19  C8  UNL     1      29.323  31.961  35.885  1.00  0.00     0.210 C 
BRANCH  19  20
HETATM   20  O5  UNL     1      30.459  31.329  35.366  1.00  0.00    -0.386 OA
ATOM     21  H5  UNL     1      30.583  30.490  35.792  1.00  0.00     0.210 HD
ENDBRANCH  19  20
BRANCH  19  22
HETATM   22  C9  UNL     1      29.522  33.436  35.614  1.00  0.00     0.203 C 
BRANCH  22  23
HETATM   23  O6  UNL     1      28.307  34.091  35.906  1.00  0.00    -0.398 OA
ATOM     24  H6  UNL     1      28.510  34.997  36.109  1.00  0.00     0.209 HD
ENDBRANCH  22  23
ENDBRANCH  19  22
ENDBRANCH  12  19
BRANCH   1  25
HETATM   25  C2  UNL     1      29.545  34.267  42.755  1.00  0.00     0.250 C 
BRANCH  25  26
HETATM   26  C1  UNL     1      28.312  35.053  43.011  1.00  0.00     0.192 C 
HETATM   27  O1  UNL     1      27.397  34.699  43.794  1.00  0.00    -0.647 OA
HETATM   28  O2  UNL     1      28.139  36.264  42.353  1.00  0.00    -0.647 OA
ENDBRANCH  25  26
ENDBRANCH   1  25
TORSDOF 6
ENDMDL
MODEL 4
REMARK VINA RESULT: -5.224899540      3.956      6.184
REMARK  6 active torsions:
REMARK  status: ('A' for Active; 'I' for Inactive)
REMARK    1  A    between atoms: C1_2  and  C2_4 
REMARK    2  A    between atoms: C2_4  and  N1_5 
REMARK    3  A    between atoms: C7_16  and  C8_17 
REMARK    4  A    between atoms: C8_17  and  O5_18 
REMARK    5  A    between atoms: C8_17  and  C9_20 
REMARK    6  A    between atoms: C9_20  and  O6_21 
ROOT
HETATM    1  N1  UNL     1      34.055  25.407  39.980  1.00  0.00    -0.254 N 
HETATM    2  C3  UNL     1      33.491  26.527  40.458  1.00  0.00     0.330 A 
HETATM    3  O3  UNL     1      34.030  27.241  41.342  1.00  0.00    -0.246 OA
HETATM    4  N2  UNL     1      32.283  26.966  40.004  1.00  0.00    -0.303 N 
ATOM      5  H2  UNL     1      31.886  27.823  40.390  1.00  0.00     0.171 HD
HETATM    6  C4  UNL     1      31.602  26.287  39.051  1.00  0.00     0.114 A 
HETATM    7  C5  UNL     1      32.170  25.131  38.551  1.00  0.00     0.133 A 
HETATM    8  C6  UNL     1      33.406  24.708  39.034  1.00  0.00     0.281 A 
HETATM    9  O4  UNL     1      33.873  23.650  38.541  1.00  0.00    -0.265 OA
HETATM   10  N3  UNL     1      31.468  24.406  37.550  1.00  0.00    -0.336 N 
ATOM     11  H3  UNL     1      31.891  23.554  37.183  1.00  0.00     0.167 HD
HETATM   12  C7  UNL     1      30.316  24.773  37.080  1.00  0.00     0.134 A 
HETATM   13  N4  UNL     1      29.670  25.964  37.557  1.00  0.00    -0.225 N 
HETATM   14  N5  UNL     1      28.468  26.568  37.235  1.00  0.00    -0.111 NA
HETATM   15  C10 UNL     1      28.393  27.738  38.063  1.00  0.00     0.258 A 
HETATM   16  N6  UNL     1      29.574  27.755  38.841  1.00  0.00    -0.358 N 
ATOM     17  H6  UNL     1      29.811  28.468  39.531  1.00  0.00     0.162 HD
HETATM   18  C11 UNL     1      30.298  26.747  38.553  1.00  0.00     0.152 A 
ENDROOT
BRANCH  12  19
HETATM   19  C8  UNL     1      29.652  23.968  36.044  1.00  0.00     0.210 C 
BRANCH  19  20
HETATM   20  O5  UNL     1      28.299  23.808  36.362  1.00  0.00    -0.386 OA
ATOM     21  H5  UNL     1      27.923  23.117  35.831  1.00  0.00     0.210 HD
ENDBRANCH  19  20
BRANCH  19  22
HETATM   22  C9  UNL     1      30.213  22.567  35.945  1.00  0.00     0.203 C 
BRANCH  22  23
HETATM   23  O6  UNL     1      29.892  21.894  37.143  1.00  0.00    -0.398 OA
ATOM     24  H6  UNL     1      29.371  22.485  37.674  1.00  0.00     0.209 HD
ENDBRANCH  22  23
ENDBRANCH  19  22
ENDBRANCH  12  19
BRANCH   1  25
HETATM   25  C2  UNL     1      35.322  24.948  40.456  1.00  0.00     0.250 C 
BRANCH  25  26
HETATM   26  C1  UNL     1      35.210  23.979  41.574  1.00  0.00     0.192 C 
HETATM   27  O1  UNL     1      34.877  24.285  42.746  1.00  0.00    -0.647 OA
HETATM   28  O2  UNL     1      35.486  22.640  41.333  1.00  0.00    -0.647 OA
ENDBRANCH  25  26
ENDBRANCH   1  25
TORSDOF 6
ENDMDL
MODEL 5
REMARK VINA RESULT: -5.220841916      9.929     12.676
REMARK  6 active torsions:
REMARK  status: ('A' for Active; 'I' for Inactive)
REMARK    1  A    between atoms: C1_2  and  C2_4 
REMARK    2  A    between atoms: C2_4  and  N1_5 
REMARK    3  A    between atoms: C7_16  and  C8_17 
REMARK    4  A    between atoms: C8_17  and  O5_18 
REMARK    5  A    between atoms: C8_17  and  C9_20 
REMARK    6  A    between atoms: C9_20  and  O6_21 
ROOT
HETATM    1  N1  UNL     1      25.590  37.027  34.641  1.00  0.00    -0.254 N 
HETATM    2  C3  UNL     1      25.864  38.333  34.496  1.00  0.00     0.330 A 
HETATM    3  O3  UNL     1      27.030  38.798  34.554  1.00  0.00    -0.246 OA
HETATM    4  N2  UNL     1      24.877  39.247  34.274  1.00  0.00    -0.303 N 
ATOM      5  H2  UNL     1      25.122  40.232  34.169  1.00  0.00     0.171 HD
HETATM    6  C4  UNL     1      23.578  38.873  34.191  1.00  0.00     0.114 A 
HETATM    7  C5  UNL     1      23.282  37.531  34.338  1.00  0.00     0.133 A 
HETATM    8  C6  UNL     1      24.312  36.621  34.563  1.00  0.00     0.281 A 
HETATM    9  O4  UNL     1      23.981  35.414  34.689  1.00  0.00    -0.265 OA
HETATM   10  N3  UNL     1      21.924  37.121  34.253  1.00  0.00    -0.336 N 
ATOM     11  H3  UNL     1      21.709  36.130  34.361  1.00  0.00     0.167 HD
HETATM   12  C7  UNL     1      20.943  37.945  34.044  1.00  0.00     0.134 A 
HETATM   13  N4  UNL     1      21.181  39.351  33.882  1.00  0.00    -0.225 N 
HETATM   14  N5  UNL     1      20.336  40.423  33.655  1.00  0.00    -0.111 NA
HETATM   15  C10 UNL     1      21.188  41.576  33.589  1.00  0.00     0.258 A 
HETATM   16  N6  UNL     1      22.509  41.110  33.785  1.00  0.00    -0.358 N 
ATOM     17  H6  UNL     1      23.343  41.698  33.793  1.00  0.00     0.162 HD
HETATM   18  C11 UNL     1      22.504  39.847  33.952  1.00  0.00     0.152 A 
ENDROOT
BRANCH  12  19
HETATM   19  C8  UNL     1      19.563  37.442  33.968  1.00  0.00     0.210 C 
BRANCH  19  20
HETATM   20  O5  UNL     1      18.696  38.341  34.599  1.00  0.00    -0.386 OA
ATOM     21  H5  UNL     1      18.317  37.936  35.370  1.00  0.00     0.210 HD
ENDBRANCH  19  20
BRANCH  19  22
HETATM   22  C9  UNL     1      19.380  36.128  34.693  1.00  0.00     0.203 C 
BRANCH  22  23
HETATM   23  O6  UNL     1      19.898  36.283  35.996  1.00  0.00    -0.398 OA
ATOM     24  H6  UNL     1      19.291  35.869  36.598  1.00  0.00     0.209 HD
ENDBRANCH  22  23
ENDBRANCH  19  22
ENDBRANCH  12  19
BRANCH   1  25
HETATM   25  C2  UNL     1      26.625  36.070  34.873  1.00  0.00     0.250 C 
BRANCH  25  26
HETATM   26  C1  UNL     1      26.791  35.725  36.307  1.00  0.00     0.192 C 
HETATM   27  O1  UNL     1      27.536  34.808  36.733  1.00  0.00    -0.647 OA
HETATM   28  O2  UNL     1      26.087  36.451  37.259  1.00  0.00    -0.647 OA
ENDBRANCH  25  26
ENDBRANCH   1  25
TORSDOF 6
ENDMDL
