MODEL 1
REMARK VINA RESULT: -5.001967768      0.000      0.000
REMARK  10 active torsions:
REMARK  status: ('A' for Active; 'I' for Inactive)
REMARK    1  A    between atoms: O1_2  and  C2_3 
REMARK    2  A    between atoms: C2_3  and  C3_5 
REMARK    3  A    between atoms: C4_8  and  C6_10 
REMARK    4  A    between atoms: C7_13  and  C8_14 
REMARK    5  A    between atoms: C8_14  and  N2_15 
REMARK    6  A    between atoms: C8_14  and  O5_19 
REMARK    7  A    between atoms: S1_21  and  O6_22 
REMARK    8  A    between atoms: O6_22  and  C9_23 
REMARK    9  A    between atoms: C9_23  and  N4_27 
REMARK   10  A    between atoms: N4_27  and  N5_29 
ROOT
HETATM    1  C3  UNL     1      31.059  30.740  40.014  1.00  0.00     0.201 C 
HETATM    2  N1  UNL     1      29.778  30.433  40.264  1.00  0.00    -0.389 N 
ATOM      3  H1  UNL     1      29.654  29.446  40.490  1.00  0.00     0.155 HD
HETATM    4  C4  UNL     1      28.594  31.123  40.288  1.00  0.00     0.132 C 
HETATM    5  C5  UNL     1      27.507  30.493  39.373  1.00  0.00     0.051 C 
HETATM    6  C7  UNL     1      28.517  32.595  40.286  1.00  0.00     0.179 C 
HETATM    7  S1  UNL     1      29.912  33.557  39.815  1.00  0.00     0.026 SA
HETATM    8  N6  UNL     1      31.317  33.056  40.192  1.00  0.00    -0.345 N 
ATOM      9  H6  UNL     1      32.099  33.643  39.903  1.00  0.00     0.169 HD
HETATM   10  C10 UNL     1      31.645  31.877  40.893  1.00  0.00     0.117 C 
HETATM   11  C11 UNL     1      33.101  31.675  41.134  1.00  0.00     0.035 C 
ENDROOT
BRANCH   7  12
HETATM   12  O6  UNL     1      29.715  35.241  40.164  1.00  0.00    -0.236 OA
BRANCH  12  13
HETATM   13  C9  UNL     1      29.688  35.627  41.505  1.00  0.00     0.244 C 
HETATM   14  N3  UNL     1      30.753  36.143  41.998  1.00  0.00    -0.363 N 
ATOM     15  H32 UNL     1      31.580  36.257  41.411  1.00  0.00     0.159 HD
ATOM     16  H31 UNL     1      30.734  36.425  42.978  1.00  0.00     0.159 HD
BRANCH  13  17
HETATM   17  N4  UNL     1      28.544  35.469  42.316  1.00  0.00    -0.271 N 
ATOM     18  H4  UNL     1      27.799  36.161  42.239  1.00  0.00     0.190 HD
BRANCH  17  19
HETATM   19  N5  UNL     1      28.377  34.417  43.219  1.00  0.00    -0.342 N 
ATOM     20  H52 UNL     1      27.892  33.586  42.880  1.00  0.00     0.176 HD
ATOM     21  H51 UNL     1      28.710  34.441  44.183  1.00  0.00     0.176 HD
ENDBRANCH  17  19
ENDBRANCH  13  17
ENDBRANCH  12  13
ENDBRANCH   7  12
BRANCH   6  22
HETATM   22  C8  UNL     1      27.383  33.142  39.403  1.00  0.00     0.336 C 
BRANCH  22  23
HETATM   23  N2  UNL     1      28.076  33.622  38.192  1.00  0.00    -0.052 N 
ATOM     24  H23 UNL     1      29.035  33.934  38.352  1.00  0.00     0.277 HD
ATOM     25  H22 UNL     1      28.310  32.888  37.523  1.00  0.00     0.277 HD
ATOM     26  H21 UNL     1      27.456  34.343  37.824  1.00  0.00     0.277 HD
ENDBRANCH  22  23
BRANCH  22  27
HETATM   27  O5  UNL     1      26.754  34.240  39.902  1.00  0.00    -0.369 OA
ATOM     28  H5  UNL     1      26.762  34.997  39.329  1.00  0.00     0.212 HD
ENDBRANCH  22  27
ENDBRANCH   6  22
BRANCH   4  29
HETATM   29  C6  UNL     1      28.009  30.727  41.654  1.00  0.00     0.203 C 
HETATM   30  O3  UNL     1      28.452  31.242  42.695  1.00  0.00    -0.646 OA
HETATM   31  O4  UNL     1      26.995  29.806  41.770  1.00  0.00    -0.646 OA
ENDBRANCH   4  29
BRANCH   1  32
HETATM   32  C2  UNL     1      31.480  31.098  38.637  1.00  0.00     0.283 C 
HETATM   33  O2  UNL     1      32.684  31.130  38.261  1.00  0.00    -0.263 OA
BRANCH  32  34
HETATM   34  O1  UNL     1      30.537  31.425  37.674  1.00  0.00    -0.325 OA
HETATM   35  C1  UNL     1      30.170  30.495  36.659  1.00  0.00     0.213 C 
ENDBRANCH  32  34
ENDBRANCH   1  32
TORSDOF 10
ENDMDL
MODEL 2
REMARK VINA RESULT: -4.900689055      1.992      3.651
REMARK  10 active torsions:
REMARK  status: ('A' for Active; 'I' for Inactive)
REMARK    1  A    between atoms: O1_2  and  C2_3 
REMARK    2  A    between atoms: C2_3  and  C3_5 
REMARK    3  A    between atoms: C4_8  and  C6_10 
REMARK    4  A    between atoms: C7_13  and  C8_14 
REMARK    5  A    between atoms: C8_14  and  N2_15 
REMARK    6  A    between atoms: C8_14  and  O5_19 
REMARK    7  A    between atoms: S1_21  and  O6_22 
REMARK    8  A    between atoms: O6_22  and  C9_23 
REMARK    9  A    between atoms: C9_23  and  N4_27 
REMARK   10  A    between atoms: N4_27  and  N5_29 
ROOT
HETATM    1  C3  UNL     1      28.200  30.861  39.012  1.00  0.00     0.201 C 
HETATM    2  N1  UNL     1      28.082  31.971  38.268  1.00  0.00    -0.389 N 
ATOM      3  H1  UNL     1      27.504  31.822  37.441  1.00  0.00     0.155 HD
HETATM    4  C4  UNL     1      28.549  33.257  38.350  1.00  0.00     0.132 C 
HETATM    5  C5  UNL     1      29.313  33.705  37.073  1.00  0.00     0.051 C 
HETATM    6  C7  UNL     1      29.155  33.819  39.570  1.00  0.00     0.179 C 
HETATM    7  S1  UNL     1      29.714  32.757  40.856  1.00  0.00     0.026 SA
HETATM    8  N6  UNL     1      28.922  31.471  41.149  1.00  0.00    -0.345 N 
ATOM      9  H6  UNL     1      29.278  30.883  41.903  1.00  0.00     0.169 HD
HETATM   10  C10 UNL     1      27.761  31.013  40.493  1.00  0.00     0.117 C 
HETATM   11  C11 UNL     1      27.202  29.739  41.023  1.00  0.00     0.035 C 
ENDROOT
BRANCH   7  12
HETATM   12  O6  UNL     1      30.112  33.612  42.307  1.00  0.00    -0.236 OA
BRANCH  12  13
HETATM   13  C9  UNL     1      29.176  34.522  42.801  1.00  0.00     0.244 C 
HETATM   14  N3  UNL     1      28.133  34.050  43.378  1.00  0.00    -0.363 N 
ATOM     15  H32 UNL     1      28.012  33.040  43.461  1.00  0.00     0.159 HD
ATOM     16  H31 UNL     1      27.449  34.715  43.739  1.00  0.00     0.159 HD
BRANCH  13  17
HETATM   17  N4  UNL     1      29.343  35.919  42.687  1.00  0.00    -0.271 N 
ATOM     18  H4  UNL     1      28.544  36.477  42.387  1.00  0.00     0.190 HD
BRANCH  17  19
HETATM   19  N5  UNL     1      30.542  36.579  42.962  1.00  0.00    -0.342 N 
ATOM     20  H52 UNL     1      31.165  36.147  43.644  1.00  0.00     0.176 HD
ATOM     21  H51 UNL     1      30.818  37.456  42.520  1.00  0.00     0.176 HD
ENDBRANCH  17  19
ENDBRANCH  13  17
ENDBRANCH  12  13
ENDBRANCH   7  12
BRANCH   6  22
HETATM   22  C8  UNL     1      30.371  34.717  39.285  1.00  0.00     0.336 C 
BRANCH  22  23
HETATM   23  N2  UNL     1      31.506  33.969  39.859  1.00  0.00    -0.052 N 
ATOM     24  H23 UNL     1      31.669  34.147  40.851  1.00  0.00     0.277 HD
ATOM     25  H22 UNL     1      31.344  32.966  39.954  1.00  0.00     0.277 HD
ATOM     26  H21 UNL     1      32.291  34.213  39.254  1.00  0.00     0.277 HD
ENDBRANCH  22  23
BRANCH  22  27
HETATM   27  O5  UNL     1      30.367  35.905  39.946  1.00  0.00    -0.369 OA
ATOM     28  H5  UNL     1      31.083  36.488  39.721  1.00  0.00     0.212 HD
ENDBRANCH  22  27
ENDBRANCH   6  22
BRANCH   4  29
HETATM   29  C6  UNL     1      27.268  34.086  38.161  1.00  0.00     0.203 C 
HETATM   30  O3  UNL     1      26.973  34.531  37.038  1.00  0.00    -0.646 OA
HETATM   31  O4  UNL     1      26.419  34.359  39.207  1.00  0.00    -0.646 OA
ENDBRANCH   4  29
BRANCH   1  32
HETATM   32  C2  UNL     1      29.505  30.160  39.094  1.00  0.00     0.283 C 
HETATM   33  O2  UNL     1      30.590  30.654  38.680  1.00  0.00    -0.263 OA
BRANCH  32  34
HETATM   34  O1  UNL     1      29.590  28.892  39.647  1.00  0.00    -0.325 OA
HETATM   35  C1  UNL     1      29.562  27.728  38.826  1.00  0.00     0.213 C 
ENDBRANCH  32  34
ENDBRANCH   1  32
TORSDOF 10
ENDMDL
MODEL 3
REMARK VINA RESULT: -4.724115081      2.029      3.562
REMARK  10 active torsions:
REMARK  status: ('A' for Active; 'I' for Inactive)
REMARK    1  A    between atoms: O1_2  and  C2_3 
REMARK    2  A    between atoms: C2_3  and  C3_5 
REMARK    3  A    between atoms: C4_8  and  C6_10 
REMARK    4  A    between atoms: C7_13  and  C8_14 
REMARK    5  A    between atoms: C8_14  and  N2_15 
REMARK    6  A    between atoms: C8_14  and  O5_19 
REMARK    7  A    between atoms: S1_21  and  O6_22 
REMARK    8  A    between atoms: O6_22  and  C9_23 
REMARK    9  A    between atoms: C9_23  and  N4_27 
REMARK   10  A    between atoms: N4_27  and  N5_29 
ROOT
HETATM    1  C3  UNL     1      28.196  30.910  38.989  1.00  0.00     0.201 C 
HETATM    2  N1  UNL     1      28.072  32.015  38.240  1.00  0.00    -0.389 N 
ATOM      3  H1  UNL     1      27.431  31.882  37.458  1.00  0.00     0.155 HD
HETATM    4  C4  UNL     1      28.599  33.280  38.270  1.00  0.00     0.132 C 
HETATM    5  C5  UNL     1      29.287  33.681  36.935  1.00  0.00     0.051 C 
HETATM    6  C7  UNL     1      29.315  33.829  39.435  1.00  0.00     0.179 C 
HETATM    7  S1  UNL     1      29.920  32.758  40.692  1.00  0.00     0.026 SA
HETATM    8  N6  UNL     1      29.097  31.511  41.059  1.00  0.00    -0.345 N 
ATOM      9  H6  UNL     1      29.481  30.916  41.795  1.00  0.00     0.169 HD
HETATM   10  C10 UNL     1      27.873  31.097  40.496  1.00  0.00     0.117 C 
HETATM   11  C11 UNL     1      27.300  29.854  41.082  1.00  0.00     0.035 C 
ENDROOT
BRANCH   7  12
HETATM   12  O6  UNL     1      30.458  33.611  42.099  1.00  0.00    -0.236 OA
BRANCH  12  13
HETATM   13  C9  UNL     1      29.549  34.462  42.729  1.00  0.00     0.244 C 
HETATM   14  N3  UNL     1      29.824  35.715  42.752  1.00  0.00    -0.363 N 
ATOM     15  H32 UNL     1      30.683  36.054  42.319  1.00  0.00     0.159 HD
ATOM     16  H31 UNL     1      29.159  36.338  43.213  1.00  0.00     0.159 HD
BRANCH  13  17
HETATM   17  N4  UNL     1      28.361  33.993  43.328  1.00  0.00    -0.271 N 
ATOM     18  H4  UNL     1      28.248  32.988  43.454  1.00  0.00     0.190 HD
BRANCH  17  19
HETATM   19  N5  UNL     1      27.330  34.831  43.759  1.00  0.00    -0.342 N 
ATOM     20  H52 UNL     1      26.916  34.629  44.669  1.00  0.00     0.176 HD
ATOM     21  H51 UNL     1      26.979  35.620  43.216  1.00  0.00     0.176 HD
ENDBRANCH  17  19
ENDBRANCH  13  17
ENDBRANCH  12  13
ENDBRANCH   7  12
BRANCH   6  22
HETATM   22  C8  UNL     1      30.545  34.670  39.051  1.00  0.00     0.336 C 
BRANCH  22  23
HETATM   23  N2  UNL     1      31.688  33.855  39.509  1.00  0.00    -0.052 N 
ATOM     24  H23 UNL     1      31.871  33.030  38.938  1.00  0.00     0.277 HD
ATOM     25  H22 UNL     1      32.599  34.292  39.365  1.00  0.00     0.277 HD
ATOM     26  H21 UNL     1      31.468  33.652  40.484  1.00  0.00     0.277 HD
ENDBRANCH  22  23
BRANCH  22  27
HETATM   27  O5  UNL     1      30.663  35.845  39.725  1.00  0.00    -0.369 OA
ATOM     28  H5  UNL     1      29.966  36.017  40.347  1.00  0.00     0.212 HD
ENDBRANCH  22  27
ENDBRANCH   6  22
BRANCH   4  29
HETATM   29  C6  UNL     1      27.344  34.163  38.161  1.00  0.00     0.203 C 
HETATM   30  O3  UNL     1      26.947  34.548  37.048  1.00  0.00    -0.646 OA
HETATM   31  O4  UNL     1      26.630  34.549  39.271  1.00  0.00    -0.646 OA
ENDBRANCH   4  29
BRANCH   1  32
HETATM   32  C2  UNL     1      29.472  30.153  38.987  1.00  0.00     0.283 C 
HETATM   33  O2  UNL     1      30.541  30.588  38.476  1.00  0.00    -0.263 OA
BRANCH  32  34
HETATM   34  O1  UNL     1      29.547  28.896  39.566  1.00  0.00    -0.325 OA
HETATM   35  C1  UNL     1      29.434  27.715  38.776  1.00  0.00     0.213 C 
ENDBRANCH  32  34
ENDBRANCH   1  32
TORSDOF 10
ENDMDL
MODEL 4
REMARK VINA RESULT: -4.535976665      1.872      4.814
REMARK  10 active torsions:
REMARK  status: ('A' for Active; 'I' for Inactive)
REMARK    1  A    between atoms: O1_2  and  C2_3 
REMARK    2  A    between atoms: C2_3  and  C3_5 
REMARK    3  A    between atoms: C4_8  and  C6_10 
REMARK    4  A    between atoms: C7_13  and  C8_14 
REMARK    5  A    between atoms: C8_14  and  N2_15 
REMARK    6  A    between atoms: C8_14  and  O5_19 
REMARK    7  A    between atoms: S1_21  and  O6_22 
REMARK    8  A    between atoms: O6_22  and  C9_23 
REMARK    9  A    between atoms: C9_23  and  N4_27 
REMARK   10  A    between atoms: N4_27  and  N5_29 
ROOT
HETATM    1  C3  UNL     1      29.794  31.226  41.409  1.00  0.00     0.201 C 
HETATM    2  N1  UNL     1      30.804  31.421  40.549  1.00  0.00    -0.389 N 
ATOM      3  H1  UNL     1      31.504  30.681  40.600  1.00  0.00     0.155 HD
HETATM    4  C4  UNL     1      31.124  32.375  39.617  1.00  0.00     0.132 C 
HETATM    5  C5  UNL     1      32.537  32.984  39.836  1.00  0.00     0.051 C 
HETATM    6  C7  UNL     1      30.166  33.385  39.135  1.00  0.00     0.179 C 
HETATM    7  S1  UNL     1      28.689  33.710  40.033  1.00  0.00     0.026 SA
HETATM    8  N6  UNL     1      27.983  32.542  40.741  1.00  0.00    -0.345 N 
ATOM      9  H6  UNL     1      27.128  32.772  41.250  1.00  0.00     0.169 HD
HETATM   10  C10 UNL     1      28.381  31.190  40.768  1.00  0.00     0.117 C 
HETATM   11  C11 UNL     1      27.472  30.281  41.519  1.00  0.00     0.035 C 
ENDROOT
BRANCH   7  12
HETATM   12  O6  UNL     1      27.573  34.699  39.154  1.00  0.00    -0.236 OA
BRANCH  12  13
HETATM   13  C9  UNL     1      26.995  34.160  38.004  1.00  0.00     0.244 C 
HETATM   14  N3  UNL     1      25.841  33.612  38.119  1.00  0.00    -0.363 N 
ATOM     15  H32 UNL     1      25.381  33.582  39.029  1.00  0.00     0.159 HD
ATOM     16  H31 UNL     1      25.418  33.217  37.278  1.00  0.00     0.159 HD
BRANCH  13  17
HETATM   17  N4  UNL     1      27.630  34.201  36.745  1.00  0.00    -0.271 N 
ATOM     18  H4  UNL     1      27.417  34.980  36.123  1.00  0.00     0.190 HD
BRANCH  17  19
HETATM   19  N5  UNL     1      28.535  33.233  36.305  1.00  0.00    -0.342 N 
ATOM     20  H52 UNL     1      29.397  33.126  36.839  1.00  0.00     0.176 HD
ATOM     21  H51 UNL     1      28.377  32.641  35.489  1.00  0.00     0.176 HD
ENDBRANCH  17  19
ENDBRANCH  13  17
ENDBRANCH  12  13
ENDBRANCH   7  12
BRANCH   6  22
HETATM   22  C8  UNL     1      30.794  34.777  38.950  1.00  0.00     0.336 C 
BRANCH  22  23
HETATM   23  N2  UNL     1      30.322  35.537  40.124  1.00  0.00    -0.052 N 
ATOM     24  H23 UNL     1      30.442  35.053  41.014  1.00  0.00     0.277 HD
ATOM     25  H22 UNL     1      30.897  36.346  40.361  1.00  0.00     0.277 HD
ATOM     26  H21 UNL     1      29.353  35.763  39.896  1.00  0.00     0.277 HD
ENDBRANCH  22  23
BRANCH  22  27
HETATM   27  O5  UNL     1      30.330  35.472  37.877  1.00  0.00    -0.369 OA
ATOM     28  H5  UNL     1      30.829  35.346  37.078  1.00  0.00     0.212 HD
ENDBRANCH  22  27
ENDBRANCH   6  22
BRANCH   4  29
HETATM   29  C6  UNL     1      31.424  31.528  38.369  1.00  0.00     0.203 C 
HETATM   30  O3  UNL     1      30.507  31.225  37.586  1.00  0.00    -0.646 OA
HETATM   31  O4  UNL     1      32.693  31.085  38.080  1.00  0.00    -0.646 OA
ENDBRANCH   4  29
BRANCH   1  32
HETATM   32  C2  UNL     1      29.634  32.124  42.579  1.00  0.00     0.283 C 
HETATM   33  O2  UNL     1      29.083  31.774  43.659  1.00  0.00    -0.263 OA
BRANCH  32  34
HETATM   34  O1  UNL     1      30.097  33.430  42.534  1.00  0.00    -0.325 OA
HETATM   35  C1  UNL     1      31.319  33.800  43.167  1.00  0.00     0.213 C 
ENDBRANCH  32  34
ENDBRANCH   1  32
TORSDOF 10
ENDMDL
MODEL 5
REMARK VINA RESULT: -4.526871793      2.001      3.686
REMARK  10 active torsions:
REMARK  status: ('A' for Active; 'I' for Inactive)
REMARK    1  A    between atoms: O1_2  and  C2_3 
REMARK    2  A    between atoms: C2_3  and  C3_5 
REMARK    3  A    between atoms: C4_8  and  C6_10 
REMARK    4  A    between atoms: C7_13  and  C8_14 
REMARK    5  A    between atoms: C8_14  and  N2_15 
REMARK    6  A    between atoms: C8_14  and  O5_19 
REMARK    7  A    between atoms: S1_21  and  O6_22 
REMARK    8  A    between atoms: O6_22  and  C9_23 
REMARK    9  A    between atoms: C9_23  and  N4_27 
REMARK   10  A    between atoms: N4_27  and  N5_29 
ROOT
HETATM    1  C3  UNL     1      28.440  30.797  38.493  1.00  0.00     0.201 C 
HETATM    2  N1  UNL     1      28.361  32.029  37.968  1.00  0.00    -0.389 N 
ATOM      3  H1  UNL     1      27.775  32.056  37.133  1.00  0.00     0.155 HD
HETATM    4  C4  UNL     1      28.876  33.260  38.281  1.00  0.00     0.132 C 
HETATM    5  C5  UNL     1      29.652  33.909  37.101  1.00  0.00     0.051 C 
HETATM    6  C7  UNL     1      29.506  33.565  39.578  1.00  0.00     0.179 C 
HETATM    7  S1  UNL     1      30.029  32.264  40.640  1.00  0.00     0.026 SA
HETATM    8  N6  UNL     1      29.191  30.976  40.698  1.00  0.00    -0.345 N 
ATOM      9  H6  UNL     1      29.527  30.246  41.328  1.00  0.00     0.169 HD
HETATM   10  C10 UNL     1      28.012  30.689  39.981  1.00  0.00     0.117 C 
HETATM   11  C11 UNL     1      27.408  29.359  40.272  1.00  0.00     0.035 C 
ENDROOT
BRANCH   7  12
HETATM   12  O6  UNL     1      30.464  32.822  42.220  1.00  0.00    -0.236 OA
BRANCH  12  13
HETATM   13  C9  UNL     1      29.521  33.571  42.925  1.00  0.00     0.244 C 
HETATM   14  N3  UNL     1      28.546  32.941  43.471  1.00  0.00    -0.363 N 
ATOM     15  H32 UNL     1      28.482  31.927  43.378  1.00  0.00     0.159 HD
ATOM     16  H31 UNL     1      27.857  33.489  43.986  1.00  0.00     0.159 HD
BRANCH  13  17
HETATM   17  N4  UNL     1      29.609  34.973  43.053  1.00  0.00    -0.271 N 
ATOM     18  H4  UNL     1      30.330  35.358  43.663  1.00  0.00     0.190 HD
BRANCH  17  19
HETATM   19  N5  UNL     1      28.763  35.864  42.389  1.00  0.00    -0.342 N 
ATOM     20  H52 UNL     1      27.952  35.469  41.915  1.00  0.00     0.176 HD
ATOM     21  H51 UNL     1      28.917  36.872  42.358  1.00  0.00     0.176 HD
ENDBRANCH  17  19
ENDBRANCH  13  17
ENDBRANCH  12  13
ENDBRANCH   7  12
BRANCH   6  22
HETATM   22  C8  UNL     1      30.754  34.455  39.451  1.00  0.00     0.336 C 
BRANCH  22  23
HETATM   23  N2  UNL     1      31.869  33.556  39.806  1.00  0.00    -0.052 N 
ATOM     24  H23 UNL     1      32.562  33.971  40.428  1.00  0.00     0.277 HD
ATOM     25  H22 UNL     1      31.610  32.789  40.427  1.00  0.00     0.277 HD
ATOM     26  H21 UNL     1      32.240  33.258  38.903  1.00  0.00     0.277 HD
ENDBRANCH  22  23
BRANCH  22  27
HETATM   27  O5  UNL     1      30.823  35.469  40.356  1.00  0.00    -0.369 OA
ATOM     28  H5  UNL     1      30.547  36.315  40.025  1.00  0.00     0.212 HD
ENDBRANCH  22  27
ENDBRANCH   6  22
BRANCH   4  29
HETATM   29  C6  UNL     1      27.626  34.155  38.261  1.00  0.00     0.203 C 
HETATM   30  O3  UNL     1      27.144  34.577  39.327  1.00  0.00    -0.646 OA
HETATM   31  O4  UNL     1      27.009  34.514  37.086  1.00  0.00    -0.646 OA
ENDBRANCH   4  29
BRANCH   1  32
HETATM   32  C2  UNL     1      29.718  30.047  38.432  1.00  0.00     0.283 C 
HETATM   33  O2  UNL     1      30.772  30.505  37.911  1.00  0.00    -0.263 OA
BRANCH  32  34
HETATM   34  O1  UNL     1      29.811  28.769  38.960  1.00  0.00    -0.325 OA
HETATM   35  C1  UNL     1      31.067  28.106  39.064  1.00  0.00     0.213 C 
ENDBRANCH  32  34
ENDBRANCH   1  32
TORSDOF 10
ENDMDL
