MODEL 1
REMARK VINA RESULT: -9.383044814      0.000      0.000
REMARK  11 active torsions:
REMARK  status: ('A' for Active; 'I' for Inactive)
REMARK    1  A    between atoms: C2_2  and  O1_3 
REMARK    2  A    between atoms: C2_2  and  C3_5 
REMARK    3  A    between atoms: C2_2  and  C4_8 
REMARK    4  A    between atoms: C3_5  and  O2_6 
REMARK       I    between atoms: C4_8  and  N1_10 
REMARK    5  A    between atoms: N1_10  and  C5_12 
REMARK    6  A    between atoms: C8_20  and  C9_21 
REMARK    7  A    between atoms: C10_22  and  O5_23 
REMARK    8  A    between atoms: C10_22  and  N4_25 
REMARK    9  A    between atoms: N4_25  and  N5_27 
REMARK       I    between atoms: N5_27  and  C11_29 
REMARK   10  A    between atoms: C11_29  and  C12_31 
REMARK   11  A    between atoms: C13_35  and  O7_36 
ROOT
HETATM    1  C5  UNL     1      -0.612  21.800  21.925  1.00  0.00     0.243 C 
HETATM    2  N2  UNL     1      -0.597  21.212  20.782  1.00  0.00    -0.262 N 
ATOM      3  H2  UNL     1      -0.548  20.201  20.656  1.00  0.00     0.190 HD
HETATM    4  N3  UNL     1      -0.656  22.115  19.758  1.00  0.00    -0.253 N 
HETATM    5  C6  UNL     1      -0.411  23.431  20.354  1.00  0.00     0.316 C 
HETATM    6  O4  UNL     1      -0.684  23.158  21.699  1.00  0.00    -0.284 OA
HETATM    7  S1  UNL     1      -1.698  24.537  19.610  1.00  0.00    -0.110 SA
HETATM    8  C7  UNL     1      -2.945  23.324  19.014  1.00  0.00     0.117 C 
HETATM    9  C8  UNL     1      -2.205  22.512  17.930  1.00  0.00    -0.017 C 
HETATM   10  C13 UNL     1      -0.901  22.002  18.315  1.00  0.00     0.270 C 
ENDROOT
BRANCH   9  11
HETATM   11  C9  UNL     1      -2.800  22.357  16.796  1.00  0.00     0.065 C 
HETATM   12  C10 UNL     1      -2.946  23.204  15.668  1.00  0.00     0.155 C 
BRANCH  12  13
HETATM   13  O5  UNL     1      -3.645  22.704  14.641  1.00  0.00    -0.345 OA
ATOM     14  H5  UNL     1      -3.306  22.890  13.773  1.00  0.00     0.219 HD
ENDBRANCH  12  13
BRANCH  12  15
HETATM   15  N4  UNL     1      -2.463  24.482  15.475  1.00  0.00    -0.278 N 
ATOM     16  H4  UNL     1      -3.088  25.288  15.473  1.00  0.00     0.189 HD
BRANCH  15  17
HETATM   17  N5  UNL     1      -1.046  24.638  15.275  1.00  0.00    -0.265 N 
HETATM   18  C11 UNL     1      -0.352  25.690  15.918  1.00  0.00     0.274 C 
HETATM   19  O6  UNL     1      -0.916  26.529  16.682  1.00  0.00    -0.268 OA
ATOM     20  H5  UNL     1      -0.542  23.990  14.669  1.00  0.00     0.190 HD
BRANCH  18  21
HETATM   21  C12 UNL     1       1.106  25.842  15.706  1.00  0.00     0.300 C 
HETATM   22  N6  UNL     1       1.524  27.179  15.357  1.00  0.00    -0.097 NA
HETATM   23  N7  UNL     1       2.268  26.639  14.305  1.00  0.00    -0.036 NA
HETATM   24  N8  UNL     1       1.509  25.468  14.385  1.00  0.00    -0.097 NA
ENDBRANCH  18  21
ENDBRANCH  15  17
ENDBRANCH  12  15
ENDBRANCH   9  11
BRANCH  10  25
HETATM   25  O7  UNL     1       0.147  22.747  17.737  1.00  0.00    -0.371 OA
ATOM     26  H7  UNL     1       0.385  22.243  16.968  1.00  0.00     0.212 HD
ENDBRANCH  10  25
BRANCH   1  27
HETATM   27  N1  UNL     1      -0.561  21.127  23.199  1.00  0.00    -0.289 N 
HETATM   28  C4  UNL     1      -1.690  20.368  23.625  1.00  0.00     0.261 C 
HETATM   29  O3  UNL     1      -2.729  20.266  22.926  1.00  0.00    -0.270 OA
ATOM     30  H1  UNL     1       0.269  21.194  23.787  1.00  0.00     0.172 HD
BRANCH  28  31
HETATM   31  C2  UNL     1      -1.597  19.692  24.943  1.00  0.00     0.156 C 
HETATM   32  C1  UNL     1      -0.157  19.779  25.443  1.00  0.00     0.059 C 
BRANCH  31  33
HETATM   33  O1  UNL     1      -2.452  20.346  25.832  1.00  0.00    -0.378 OA
ATOM     34  H1  UNL     1      -2.670  19.771  26.557  1.00  0.00     0.211 HD
ENDBRANCH  31  33
BRANCH  31  35
HETATM   35  C3  UNL     1      -2.029  18.264  24.752  1.00  0.00     0.211 C 
BRANCH  35  36
HETATM   36  O2  UNL     1      -3.412  18.253  24.575  1.00  0.00    -0.397 OA
ATOM     37  H2  UNL     1      -3.817  18.171  25.431  1.00  0.00     0.209 HD
ENDBRANCH  35  36
ENDBRANCH  31  35
ENDBRANCH  28  31
ENDBRANCH   1  27
TORSDOF 11
ENDMDL
MODEL 2
REMARK VINA RESULT: -9.292957843      1.370      1.604
REMARK  11 active torsions:
REMARK  status: ('A' for Active; 'I' for Inactive)
REMARK    1  A    between atoms: C2_2  and  O1_3 
REMARK    2  A    between atoms: C2_2  and  C3_5 
REMARK    3  A    between atoms: C2_2  and  C4_8 
REMARK    4  A    between atoms: C3_5  and  O2_6 
REMARK       I    between atoms: C4_8  and  N1_10 
REMARK    5  A    between atoms: N1_10  and  C5_12 
REMARK    6  A    between atoms: C8_20  and  C9_21 
REMARK    7  A    between atoms: C10_22  and  O5_23 
REMARK    8  A    between atoms: C10_22  and  N4_25 
REMARK    9  A    between atoms: N4_25  and  N5_27 
REMARK       I    between atoms: N5_27  and  C11_29 
REMARK   10  A    between atoms: C11_29  and  C12_31 
REMARK   11  A    between atoms: C13_35  and  O7_36 
ROOT
HETATM    1  C5  UNL     1      -1.441  21.332  22.628  1.00  0.00     0.243 C 
HETATM    2  N2  UNL     1      -1.040  20.936  21.473  1.00  0.00    -0.262 N 
ATOM      3  H2  UNL     1      -0.779  19.975  21.252  1.00  0.00     0.190 HD
HETATM    4  N3  UNL     1      -1.008  21.969  20.577  1.00  0.00    -0.253 N 
HETATM    5  C6  UNL     1      -1.159  23.198  21.361  1.00  0.00     0.316 C 
HETATM    6  O4  UNL     1      -1.700  22.683  22.545  1.00  0.00    -0.284 OA
HETATM    7  S1  UNL     1      -2.402  24.206  20.428  1.00  0.00    -0.110 SA
HETATM    8  C7  UNL     1      -3.223  22.931  19.387  1.00  0.00     0.117 C 
HETATM    9  C8  UNL     1      -2.105  22.414  18.458  1.00  0.00    -0.017 C 
HETATM   10  C13 UNL     1      -0.866  22.046  19.119  1.00  0.00     0.270 C 
ENDROOT
BRANCH   9  11
HETATM   11  C9  UNL     1      -2.364  22.352  17.196  1.00  0.00     0.065 C 
HETATM   12  C10 UNL     1      -2.600  23.349  16.216  1.00  0.00     0.155 C 
BRANCH  12  13
HETATM   13  O5  UNL     1      -2.844  22.912  14.974  1.00  0.00    -0.345 OA
ATOM     14  H5  UNL     1      -3.740  22.995  14.670  1.00  0.00     0.219 HD
ENDBRANCH  12  13
BRANCH  12  15
HETATM   15  N4  UNL     1      -2.612  24.722  16.362  1.00  0.00    -0.278 N 
ATOM     16  H4  UNL     1      -3.393  25.198  16.813  1.00  0.00     0.189 HD
BRANCH  15  17
HETATM   17  N5  UNL     1      -1.484  25.458  15.853  1.00  0.00    -0.265 N 
HETATM   18  C11 UNL     1      -0.480  25.915  16.739  1.00  0.00     0.274 C 
HETATM   19  O6  UNL     1      -0.512  25.713  17.989  1.00  0.00    -0.268 OA
ATOM     20  H5  UNL     1      -1.408  25.649  14.854  1.00  0.00     0.190 HD
BRANCH  18  21
HETATM   21  C12 UNL     1       0.677  26.671  16.207  1.00  0.00     0.300 C 
HETATM   22  N6  UNL     1       0.620  26.935  14.789  1.00  0.00    -0.097 NA
HETATM   23  N7  UNL     1       1.932  26.468  14.679  1.00  0.00    -0.036 NA
HETATM   24  N8  UNL     1       1.794  25.826  15.913  1.00  0.00    -0.097 NA
ENDBRANCH  18  21
ENDBRANCH  15  17
ENDBRANCH  12  15
ENDBRANCH   9  11
BRANCH  10  25
HETATM   25  O7  UNL     1       0.139  23.017  18.930  1.00  0.00    -0.371 OA
ATOM     26  H7  UNL     1       0.947  22.522  18.998  1.00  0.00     0.212 HD
ENDBRANCH  10  25
BRANCH   1  27
HETATM   27  N1  UNL     1      -1.584  20.484  23.785  1.00  0.00    -0.289 N 
HETATM   28  C4  UNL     1      -0.435  20.195  24.578  1.00  0.00     0.261 C 
HETATM   29  O3  UNL     1       0.701  20.655  24.300  1.00  0.00    -0.270 OA
ATOM     30  H1  UNL     1      -2.495  20.097  24.033  1.00  0.00     0.172 HD
BRANCH  28  31
HETATM   31  C2  UNL     1      -0.627  19.318  25.759  1.00  0.00     0.156 C 
HETATM   32  C1  UNL     1      -1.437  18.093  25.340  1.00  0.00     0.059 C 
BRANCH  31  33
HETATM   33  O1  UNL     1       0.631  18.925  26.222  1.00  0.00    -0.378 OA
ATOM     34  H1  UNL     1       1.191  19.685  26.326  1.00  0.00     0.211 HD
ENDBRANCH  31  33
BRANCH  31  35
HETATM   35  C3  UNL     1      -1.345  20.121  26.809  1.00  0.00     0.211 C 
BRANCH  35  36
HETATM   36  O2  UNL     1      -2.700  20.138  26.485  1.00  0.00    -0.397 OA
ATOM     37  H2  UNL     1      -2.866  20.909  25.956  1.00  0.00     0.209 HD
ENDBRANCH  35  36
ENDBRANCH  31  35
ENDBRANCH  28  31
ENDBRANCH   1  27
TORSDOF 11
ENDMDL
MODEL 3
REMARK VINA RESULT: -9.213840079      1.473      1.800
REMARK  11 active torsions:
REMARK  status: ('A' for Active; 'I' for Inactive)
REMARK    1  A    between atoms: C2_2  and  O1_3 
REMARK    2  A    between atoms: C2_2  and  C3_5 
REMARK    3  A    between atoms: C2_2  and  C4_8 
REMARK    4  A    between atoms: C3_5  and  O2_6 
REMARK       I    between atoms: C4_8  and  N1_10 
REMARK    5  A    between atoms: N1_10  and  C5_12 
REMARK    6  A    between atoms: C8_20  and  C9_21 
REMARK    7  A    between atoms: C10_22  and  O5_23 
REMARK    8  A    between atoms: C10_22  and  N4_25 
REMARK    9  A    between atoms: N4_25  and  N5_27 
REMARK       I    between atoms: N5_27  and  C11_29 
REMARK   10  A    between atoms: C11_29  and  C12_31 
REMARK   11  A    between atoms: C13_35  and  O7_36 
ROOT
HETATM    1  C5  UNL     1      -0.713  21.624  23.291  1.00  0.00     0.243 C 
HETATM    2  N2  UNL     1      -0.667  21.302  22.047  1.00  0.00    -0.262 N 
ATOM      3  H2  UNL     1      -0.486  20.359  21.703  1.00  0.00     0.190 HD
HETATM    4  N3  UNL     1      -0.892  22.387  21.246  1.00  0.00    -0.253 N 
HETATM    5  C6  UNL     1      -0.803  23.566  22.112  1.00  0.00     0.316 C 
HETATM    6  O4  UNL     1      -0.978  22.974  23.369  1.00  0.00    -0.284 OA
HETATM    7  S1  UNL     1      -2.258  24.611  21.643  1.00  0.00    -0.110 SA
HETATM    8  C7  UNL     1      -3.353  23.390  20.811  1.00  0.00     0.117 C 
HETATM    9  C8  UNL     1      -2.556  22.942  19.568  1.00  0.00    -0.017 C 
HETATM   10  C13 UNL     1      -1.180  22.552  19.817  1.00  0.00     0.270 C 
ENDROOT
BRANCH   9  11
HETATM   11  C9  UNL     1      -3.172  22.952  18.434  1.00  0.00     0.065 C 
HETATM   12  C10 UNL     1      -2.710  22.996  17.094  1.00  0.00     0.155 C 
BRANCH  12  13
HETATM   13  O5  UNL     1      -3.654  22.995  16.144  1.00  0.00    -0.345 OA
ATOM     14  H5  UNL     1      -3.448  23.472  15.349  1.00  0.00     0.219 HD
ENDBRANCH  12  13
BRANCH  12  15
HETATM   15  N4  UNL     1      -1.413  23.039  16.624  1.00  0.00    -0.278 N 
ATOM     16  H4  UNL     1      -0.753  22.289  16.828  1.00  0.00     0.189 HD
BRANCH  15  17
HETATM   17  N5  UNL     1      -1.025  24.181  15.837  1.00  0.00    -0.265 N 
HETATM   18  C11 UNL     1       0.275  24.722  15.970  1.00  0.00     0.274 C 
HETATM   19  O6  UNL     1       1.146  24.252  16.761  1.00  0.00    -0.268 OA
ATOM     20  H5  UNL     1      -1.687  24.600  15.184  1.00  0.00     0.190 HD
BRANCH  18  21
HETATM   21  C12 UNL     1       0.666  25.896  15.156  1.00  0.00     0.300 C 
HETATM   22  N6  UNL     1       1.398  25.576  13.954  1.00  0.00    -0.097 NA
HETATM   23  N7  UNL     1       2.340  26.547  14.304  1.00  0.00    -0.036 NA
HETATM   24  N8  UNL     1       1.875  26.506  15.621  1.00  0.00    -0.097 NA
ENDBRANCH  18  21
ENDBRANCH  15  17
ENDBRANCH  12  15
ENDBRANCH   9  11
BRANCH  10  25
HETATM   25  O7  UNL     1      -0.269  23.545  19.403  1.00  0.00    -0.371 OA
ATOM     26  H7  UNL     1      -0.458  23.655  18.479  1.00  0.00     0.212 HD
ENDBRANCH  10  25
BRANCH   1  27
HETATM   27  N1  UNL     1      -0.518  20.707  24.387  1.00  0.00    -0.289 N 
HETATM   28  C4  UNL     1      -1.495  19.696  24.625  1.00  0.00     0.261 C 
HETATM   29  O3  UNL     1      -2.522  19.578  23.911  1.00  0.00    -0.270 OA
ATOM     30  H1  UNL     1       0.307  20.781  24.982  1.00  0.00     0.172 HD
BRANCH  28  31
HETATM   31  C2  UNL     1      -1.255  18.774  25.763  1.00  0.00     0.156 C 
HETATM   32  C1  UNL     1      -1.643  17.358  25.343  1.00  0.00     0.059 C 
BRANCH  31  33
HETATM   33  O1  UNL     1       0.102  18.823  26.087  1.00  0.00    -0.378 OA
ATOM     34  H1  UNL     1       0.393  19.726  26.135  1.00  0.00     0.211 HD
ENDBRANCH  31  33
BRANCH  31  35
HETATM   35  C3  UNL     1      -2.088  19.254  26.920  1.00  0.00     0.211 C 
BRANCH  35  36
HETATM   36  O2  UNL     1      -3.423  18.968  26.637  1.00  0.00    -0.397 OA
ATOM     37  H2  UNL     1      -3.661  18.181  27.112  1.00  0.00     0.209 HD
ENDBRANCH  35  36
ENDBRANCH  31  35
ENDBRANCH  28  31
ENDBRANCH   1  27
TORSDOF 11
ENDMDL
MODEL 4
REMARK VINA RESULT: -9.206148229      1.609      1.890
REMARK  11 active torsions:
REMARK  status: ('A' for Active; 'I' for Inactive)
REMARK    1  A    between atoms: C2_2  and  O1_3 
REMARK    2  A    between atoms: C2_2  and  C3_5 
REMARK    3  A    between atoms: C2_2  and  C4_8 
REMARK    4  A    between atoms: C3_5  and  O2_6 
REMARK       I    between atoms: C4_8  and  N1_10 
REMARK    5  A    between atoms: N1_10  and  C5_12 
REMARK    6  A    between atoms: C8_20  and  C9_21 
REMARK    7  A    between atoms: C10_22  and  O5_23 
REMARK    8  A    between atoms: C10_22  and  N4_25 
REMARK    9  A    between atoms: N4_25  and  N5_27 
REMARK       I    between atoms: N5_27  and  C11_29 
REMARK   10  A    between atoms: C11_29  and  C12_31 
REMARK   11  A    between atoms: C13_35  and  O7_36 
ROOT
HETATM    1  C5  UNL     1      -2.037  21.050  23.012  1.00  0.00     0.243 C 
HETATM    2  N2  UNL     1      -1.589  20.703  21.858  1.00  0.00    -0.262 N 
ATOM      3  H2  UNL     1      -1.375  19.743  21.589  1.00  0.00     0.190 HD
HETATM    4  N3  UNL     1      -1.437  21.786  21.038  1.00  0.00    -0.253 N 
HETATM    5  C6  UNL     1      -1.561  22.971  21.893  1.00  0.00     0.316 C 
HETATM    6  O4  UNL     1      -2.206  22.418  23.006  1.00  0.00    -0.284 OA
HETATM    7  S1  UNL     1      -2.679  24.115  20.959  1.00  0.00    -0.110 SA
HETATM    8  C7  UNL     1      -3.510  22.967  19.788  1.00  0.00     0.117 C 
HETATM    9  C8  UNL     1      -2.370  22.437  18.893  1.00  0.00    -0.017 C 
HETATM   10  C13 UNL     1      -1.200  21.947  19.599  1.00  0.00     0.270 C 
ENDROOT
BRANCH   9  11
HETATM   11  C9  UNL     1      -2.553  22.472  17.617  1.00  0.00     0.065 C 
HETATM   12  C10 UNL     1      -2.322  23.478  16.644  1.00  0.00     0.155 C 
BRANCH  12  13
HETATM   13  O5  UNL     1      -2.637  23.162  15.381  1.00  0.00    -0.345 OA
ATOM     14  H5  UNL     1      -2.799  22.242  15.208  1.00  0.00     0.219 HD
ENDBRANCH  12  13
BRANCH  12  15
HETATM   15  N4  UNL     1      -1.810  24.748  16.814  1.00  0.00    -0.278 N 
ATOM     16  H4  UNL     1      -1.864  25.222  17.715  1.00  0.00     0.189 HD
BRANCH  15  17
HETATM   17  N5  UNL     1      -1.200  25.381  15.674  1.00  0.00    -0.265 N 
HETATM   18  C11 UNL     1       0.206  25.352  15.518  1.00  0.00     0.274 C 
HETATM   19  O6  UNL     1       0.985  24.788  16.341  1.00  0.00    -0.268 OA
ATOM     20  H5  UNL     1      -1.781  25.851  14.979  1.00  0.00     0.190 HD
BRANCH  18  21
HETATM   21  C12 UNL     1       0.825  26.006  14.342  1.00  0.00     0.300 C 
HETATM   22  N6  UNL     1       1.476  25.100  13.426  1.00  0.00    -0.097 NA
HETATM   23  N7  UNL     1       2.595  25.937  13.440  1.00  0.00    -0.036 NA
HETATM   24  N8  UNL     1       2.132  26.515  14.625  1.00  0.00    -0.097 NA
ENDBRANCH  18  21
ENDBRANCH  15  17
ENDBRANCH  12  15
ENDBRANCH   9  11
BRANCH  10  25
HETATM   25  O7  UNL     1      -0.127  22.859  19.536  1.00  0.00    -0.371 OA
ATOM     26  H7  UNL     1       0.291  22.777  20.385  1.00  0.00     0.212 HD
ENDBRANCH  10  25
BRANCH   1  27
HETATM   27  N1  UNL     1      -2.304  20.141  24.099  1.00  0.00    -0.289 N 
HETATM   28  C4  UNL     1      -1.221  19.697  24.913  1.00  0.00     0.261 C 
HETATM   29  O3  UNL     1      -0.038  20.072  24.713  1.00  0.00    -0.270 OA
ATOM     30  H1  UNL     1      -3.255  19.821  24.283  1.00  0.00     0.172 HD
BRANCH  28  31
HETATM   31  C2  UNL     1      -1.541  18.762  26.020  1.00  0.00     0.156 C 
HETATM   32  C1  UNL     1      -1.589  17.339  25.468  1.00  0.00     0.059 C 
BRANCH  31  33
HETATM   33  O1  UNL     1      -0.537  18.867  26.985  1.00  0.00    -0.378 OA
ATOM     34  H1  UNL     1      -0.912  18.786  27.855  1.00  0.00     0.211 HD
ENDBRANCH  31  33
BRANCH  31  35
HETATM   35  C3  UNL     1      -2.867  19.177  26.595  1.00  0.00     0.211 C 
BRANCH  35  36
HETATM   36  O2  UNL     1      -3.162  18.323  27.657  1.00  0.00    -0.397 OA
ATOM     37  H2  UNL     1      -2.360  18.173  28.143  1.00  0.00     0.209 HD
ENDBRANCH  35  36
ENDBRANCH  31  35
ENDBRANCH  28  31
ENDBRANCH   1  27
TORSDOF 11
ENDMDL
MODEL 5
REMARK VINA RESULT: -9.155078721      1.654      2.002
REMARK  11 active torsions:
REMARK  status: ('A' for Active; 'I' for Inactive)
REMARK    1  A    between atoms: C2_2  and  O1_3 
REMARK    2  A    between atoms: C2_2  and  C3_5 
REMARK    3  A    between atoms: C2_2  and  C4_8 
REMARK    4  A    between atoms: C3_5  and  O2_6 
REMARK       I    between atoms: C4_8  and  N1_10 
REMARK    5  A    between atoms: N1_10  and  C5_12 
REMARK    6  A    between atoms: C8_20  and  C9_21 
REMARK    7  A    between atoms: C10_22  and  O5_23 
REMARK    8  A    between atoms: C10_22  and  N4_25 
REMARK    9  A    between atoms: N4_25  and  N5_27 
REMARK       I    between atoms: N5_27  and  C11_29 
REMARK   10  A    between atoms: C11_29  and  C12_31 
REMARK   11  A    between atoms: C13_35  and  O7_36 
ROOT
HETATM    1  C5  UNL     1      -0.999  20.813  23.041  1.00  0.00     0.243 C 
HETATM    2  N2  UNL     1      -1.791  20.495  22.080  1.00  0.00    -0.262 N 
ATOM      3  H2  UNL     1      -2.444  19.712  22.109  1.00  0.00     0.190 HD
HETATM    4  N3  UNL     1      -1.645  21.339  21.015  1.00  0.00    -0.253 N 
HETATM    5  C6  UNL     1      -0.423  22.109  21.264  1.00  0.00     0.316 C 
HETATM    6  O4  UNL     1      -0.274  21.916  22.642  1.00  0.00    -0.284 OA
HETATM    7  S1  UNL     1      -0.875  23.861  20.867  1.00  0.00    -0.110 SA
HETATM    8  C7  UNL     1      -2.711  23.812  20.964  1.00  0.00     0.117 C 
HETATM    9  C8  UNL     1      -3.131  22.852  19.832  1.00  0.00    -0.017 C 
HETATM   10  C13 UNL     1      -2.426  21.583  19.797  1.00  0.00     0.270 C 
ENDROOT
BRANCH   9  11
HETATM   11  C9  UNL     1      -4.058  23.251  19.029  1.00  0.00     0.065 C 
HETATM   12  C10 UNL     1      -4.119  23.367  17.617  1.00  0.00     0.155 C 
BRANCH  12  13
HETATM   13  O5  UNL     1      -5.268  23.831  17.111  1.00  0.00    -0.345 OA
ATOM     14  H5  UNL     1      -5.643  23.331  16.395  1.00  0.00     0.219 HD
ENDBRANCH  12  13
BRANCH  12  15
HETATM   15  N4  UNL     1      -3.151  23.064  16.680  1.00  0.00    -0.278 N 
ATOM     16  H4  UNL     1      -2.964  22.099  16.408  1.00  0.00     0.189 HD
BRANCH  15  17
HETATM   17  N5  UNL     1      -2.415  24.158  16.101  1.00  0.00    -0.265 N 
HETATM   18  C11 UNL     1      -1.035  24.304  16.373  1.00  0.00     0.274 C 
HETATM   19  O6  UNL     1      -0.385  23.510  17.116  1.00  0.00    -0.268 OA
ATOM     20  H5  UNL     1      -2.890  24.827  15.495  1.00  0.00     0.190 HD
BRANCH  18  21
HETATM   21  C12 UNL     1      -0.286  25.432  15.773  1.00  0.00     0.300 C 
HETATM   22  N6  UNL     1       1.028  25.088  15.286  1.00  0.00    -0.097 NA
HETATM   23  N7  UNL     1       1.538  26.196  15.967  1.00  0.00    -0.036 NA
HETATM   24  N8  UNL     1       0.385  26.227  16.755  1.00  0.00    -0.097 NA
ENDBRANCH  18  21
ENDBRANCH  15  17
ENDBRANCH  12  15
ENDBRANCH   9  11
BRANCH  10  25
HETATM   25  O7  UNL     1      -1.462  21.545  18.768  1.00  0.00    -0.371 OA
ATOM     26  H7  UNL     1      -1.872  22.022  18.057  1.00  0.00     0.212 HD
ENDBRANCH  10  25
BRANCH   1  27
HETATM   27  N1  UNL     1      -0.911  20.119  24.301  1.00  0.00    -0.289 N 
HETATM   28  C4  UNL     1      -2.055  19.423  24.789  1.00  0.00     0.261 C 
HETATM   29  O3  UNL     1      -3.140  19.395  24.155  1.00  0.00    -0.270 OA
ATOM     30  H1  UNL     1      -0.042  20.126  24.836  1.00  0.00     0.172 HD
BRANCH  28  31
HETATM   31  C2  UNL     1      -1.922  18.722  26.090  1.00  0.00     0.156 C 
HETATM   32  C1  UNL     1      -0.843  19.417  26.918  1.00  0.00     0.059 C 
BRANCH  31  33
HETATM   33  O1  UNL     1      -3.149  18.789  26.752  1.00  0.00    -0.378 OA
ATOM     34  H1  UNL     1      -3.695  19.460  26.358  1.00  0.00     0.211 HD
ENDBRANCH  31  33
BRANCH  31  35
HETATM   35  C3  UNL     1      -1.559  17.291  25.800  1.00  0.00     0.211 C 
BRANCH  35  36
HETATM   36  O2  UNL     1      -2.280  16.883  24.680  1.00  0.00    -0.397 OA
ATOM     37  H2  UNL     1      -2.761  16.097  24.911  1.00  0.00     0.209 HD
ENDBRANCH  35  36
ENDBRANCH  31  35
ENDBRANCH  28  31
ENDBRANCH   1  27
TORSDOF 11
ENDMDL
