MODEL 1
REMARK VINA RESULT: -4.696812163      0.000      0.000
REMARK  8 active torsions:
REMARK  status: ('A' for Active; 'I' for Inactive)
REMARK    1  A    between atoms: N1_1  and  C1_5 
REMARK    2  A    between atoms: C1_5  and  C2_6 
REMARK    3  A    between atoms: C2_6  and  C3_7 
REMARK    4  A    between atoms: C3_7  and  C4_8 
REMARK    5  A    between atoms: C4_8  and  N2_9 
REMARK    6  A    between atoms: C6_13  and  C7_14 
REMARK    7  A    between atoms: C7_14  and  C8_15 
REMARK    8  A    between atoms: C8_15  and  N4_16 
ROOT
HETATM    1  N2  UNL     1       5.259  26.273  21.871  1.00  0.00    -0.340 N 
HETATM    2  C5  UNL     1       4.449  26.307  22.936  1.00  0.00     0.183 A 
HETATM    3  N3  UNL     1       5.156  26.602  24.037  1.00  0.00    -0.354 N 
ATOM      4  H3  UNL     1       4.781  26.690  24.981  1.00  0.00     0.166 HD
HETATM    5  C6  UNL     1       6.437  26.762  23.687  1.00  0.00     0.027 A 
HETATM    6  C9  UNL     1       6.486  26.553  22.326  1.00  0.00     0.117 A 
ENDROOT
BRANCH   1   7
HETATM    7  C4  UNL     1       4.895  25.992  20.503  1.00  0.00     0.223 C 
BRANCH   7   8
HETATM    8  C3  UNL     1       6.074  25.921  19.629  1.00  0.00    -0.085 C 
BRANCH   8   9
HETATM    9  C2  UNL     1       7.057  25.859  18.926  1.00  0.00    -0.078 C 
BRANCH   9  10
HETATM   10  C1  UNL     1       8.260  25.774  18.095  1.00  0.00     0.323 C 
BRANCH  10  11
HETATM   11  N1  UNL     1       9.461  25.579  18.899  1.00  0.00    -0.069 N 
ATOM     12  H13 UNL     1       9.471  24.657  19.333  1.00  0.00     0.275 HD
ATOM     13  H12 UNL     1      10.290  25.488  18.313  1.00  0.00     0.275 HD
ATOM     14  H11 UNL     1       9.576  26.317  19.593  1.00  0.00     0.275 HD
ENDBRANCH  10  11
ENDBRANCH   9  10
ENDBRANCH   8   9
ENDBRANCH   7   8
ENDBRANCH   1   7
BRANCH   5  15
HETATM   15  C7  UNL     1       7.615  27.095  24.529  1.00  0.00     0.085 C 
BRANCH  15  16
HETATM   16  C8  UNL     1       7.612  28.543  24.953  1.00  0.00     0.235 C 
BRANCH  16  17
HETATM   17  N4  UNL     1       7.773  29.400  23.788  1.00  0.00    -0.079 N 
ATOM     18  H43 UNL     1       8.711  29.340  23.395  1.00  0.00     0.274 HD
ATOM     19  H42 UNL     1       7.252  29.053  22.983  1.00  0.00     0.274 HD
ATOM     20  H41 UNL     1       7.517  30.359  24.025  1.00  0.00     0.274 HD
ENDBRANCH  16  17
ENDBRANCH  15  16
ENDBRANCH   5  15
TORSDOF 8
ENDMDL
MODEL 2
REMARK VINA RESULT: -4.399524608      1.915      5.848
REMARK  8 active torsions:
REMARK  status: ('A' for Active; 'I' for Inactive)
REMARK    1  A    between atoms: N1_1  and  C1_5 
REMARK    2  A    between atoms: C1_5  and  C2_6 
REMARK    3  A    between atoms: C2_6  and  C3_7 
REMARK    4  A    between atoms: C3_7  and  C4_8 
REMARK    5  A    between atoms: C4_8  and  N2_9 
REMARK    6  A    between atoms: C6_13  and  C7_14 
REMARK    7  A    between atoms: C7_14  and  C8_15 
REMARK    8  A    between atoms: C8_15  and  N4_16 
ROOT
HETATM    1  N2  UNL     1       7.801  27.988  21.222  1.00  0.00    -0.340 N 
HETATM    2  C5  UNL     1       9.012  27.625  20.784  1.00  0.00     0.183 A 
HETATM    3  N3  UNL     1       8.889  26.838  19.705  1.00  0.00    -0.354 N 
ATOM      4  H3  UNL     1       9.658  26.424  19.177  1.00  0.00     0.166 HD
HETATM    5  C6  UNL     1       7.588  26.687  19.437  1.00  0.00     0.027 A 
HETATM    6  C9  UNL     1       6.917  27.414  20.397  1.00  0.00     0.117 A 
ENDROOT
BRANCH   1   7
HETATM    7  C4  UNL     1       7.495  28.828  22.355  1.00  0.00     0.223 C 
BRANCH   7   8
HETATM    8  C3  UNL     1       6.477  28.223  23.225  1.00  0.00    -0.085 C 
BRANCH   8   9
HETATM    9  C2  UNL     1       5.628  27.718  23.924  1.00  0.00    -0.078 C 
BRANCH   9  10
HETATM   10  C1  UNL     1       4.604  27.085  24.758  1.00  0.00     0.323 C 
BRANCH  10  11
HETATM   11  N1  UNL     1       4.131  25.833  24.178  1.00  0.00    -0.069 N 
ATOM     12  H13 UNL     1       3.172  25.632  24.459  1.00  0.00     0.275 HD
ATOM     13  H12 UNL     1       3.986  25.921  23.172  1.00  0.00     0.275 HD
ATOM     14  H11 UNL     1       4.753  25.055  24.396  1.00  0.00     0.275 HD
ENDBRANCH  10  11
ENDBRANCH   9  10
ENDBRANCH   8   9
ENDBRANCH   7   8
ENDBRANCH   1   7
BRANCH   5  15
HETATM   15  C7  UNL     1       6.926  25.915  18.354  1.00  0.00     0.085 C 
BRANCH  15  16
HETATM   16  C8  UNL     1       7.916  25.098  17.560  1.00  0.00     0.235 C 
BRANCH  16  17
HETATM   17  N4  UNL     1       8.809  25.982  16.825  1.00  0.00    -0.079 N 
ATOM     18  H43 UNL     1       9.049  25.608  15.908  1.00  0.00     0.274 HD
ATOM     19  H42 UNL     1       8.339  26.834  16.520  1.00  0.00     0.274 HD
ATOM     20  H41 UNL     1       9.637  26.182  17.386  1.00  0.00     0.274 HD
ENDBRANCH  16  17
ENDBRANCH  15  16
ENDBRANCH   5  15
TORSDOF 8
ENDMDL
MODEL 3
REMARK VINA RESULT: -4.390200138      1.402      5.492
REMARK  8 active torsions:
REMARK  status: ('A' for Active; 'I' for Inactive)
REMARK    1  A    between atoms: N1_1  and  C1_5 
REMARK    2  A    between atoms: C1_5  and  C2_6 
REMARK    3  A    between atoms: C2_6  and  C3_7 
REMARK    4  A    between atoms: C3_7  and  C4_8 
REMARK    5  A    between atoms: C4_8  and  N2_9 
REMARK    6  A    between atoms: C6_13  and  C7_14 
REMARK    7  A    between atoms: C7_14  and  C8_15 
REMARK    8  A    between atoms: C8_15  and  N4_16 
ROOT
HETATM    1  N2  UNL     1       5.809  26.452  21.075  1.00  0.00    -0.340 N 
HETATM    2  C5  UNL     1       6.716  27.421  20.901  1.00  0.00     0.183 A 
HETATM    3  N3  UNL     1       7.327  27.263  19.717  1.00  0.00    -0.354 N 
ATOM      4  H3  UNL     1       8.059  27.865  19.339  1.00  0.00     0.166 HD
HETATM    5  C6  UNL     1       6.814  26.185  19.116  1.00  0.00     0.027 A 
HETATM    6  C9  UNL     1       5.863  25.686  19.979  1.00  0.00     0.117 A 
ENDROOT
BRANCH   1   7
HETATM    7  C4  UNL     1       4.941  26.261  22.212  1.00  0.00     0.223 C 
BRANCH   7   8
HETATM    8  C3  UNL     1       5.377  27.053  23.371  1.00  0.00    -0.085 C 
BRANCH   8   9
HETATM    9  C2  UNL     1       5.755  27.708  24.315  1.00  0.00    -0.078 C 
BRANCH   9  10
HETATM   10  C1  UNL     1       6.235  28.500  25.450  1.00  0.00     0.323 C 
BRANCH  10  11
HETATM   11  N1  UNL     1       7.631  28.889  25.285  1.00  0.00    -0.069 N 
ATOM     12  H13 UNL     1       8.140  28.215  24.715  1.00  0.00     0.275 HD
ATOM     13  H12 UNL     1       7.720  29.707  24.682  1.00  0.00     0.275 HD
ATOM     14  H11 UNL     1       8.091  29.039  26.183  1.00  0.00     0.275 HD
ENDBRANCH  10  11
ENDBRANCH   9  10
ENDBRANCH   8   9
ENDBRANCH   7   8
ENDBRANCH   1   7
BRANCH   5  15
HETATM   15  C7  UNL     1       7.147  25.587  17.797  1.00  0.00     0.085 C 
BRANCH  15  16
HETATM   16  C8  UNL     1       8.632  25.604  17.530  1.00  0.00     0.235 C 
BRANCH  16  17
HETATM   17  N4  UNL     1       9.361  25.536  18.788  1.00  0.00    -0.079 N 
ATOM     18  H43 UNL     1      10.008  24.749  18.814  1.00  0.00     0.274 HD
ATOM     19  H42 UNL     1      10.041  26.290  18.877  1.00  0.00     0.274 HD
ATOM     20  H41 UNL     1       8.704  25.518  19.568  1.00  0.00     0.274 HD
ENDBRANCH  16  17
ENDBRANCH  15  16
ENDBRANCH   5  15
TORSDOF 8
ENDMDL
MODEL 4
REMARK VINA RESULT: -4.315992698      1.799      3.550
REMARK  8 active torsions:
REMARK  status: ('A' for Active; 'I' for Inactive)
REMARK    1  A    between atoms: N1_1  and  C1_5 
REMARK    2  A    between atoms: C1_5  and  C2_6 
REMARK    3  A    between atoms: C2_6  and  C3_7 
REMARK    4  A    between atoms: C3_7  and  C4_8 
REMARK    5  A    between atoms: C4_8  and  N2_9 
REMARK    6  A    between atoms: C6_13  and  C7_14 
REMARK    7  A    between atoms: C7_14  and  C8_15 
REMARK    8  A    between atoms: C8_15  and  N4_16 
ROOT
HETATM    1  N2  UNL     1       7.169  27.493  22.215  1.00  0.00    -0.340 N 
HETATM    2  C5  UNL     1       6.964  27.659  23.527  1.00  0.00     0.183 A 
HETATM    3  N3  UNL     1       5.766  27.161  23.867  1.00  0.00    -0.354 N 
ATOM      4  H3  UNL     1       5.365  27.159  24.804  1.00  0.00     0.166 HD
HETATM    5  C6  UNL     1       5.186  26.666  22.768  1.00  0.00     0.027 A 
HETATM    6  C9  UNL     1       6.078  26.881  21.739  1.00  0.00     0.117 A 
ENDROOT
BRANCH   1   7
HETATM    7  C4  UNL     1       8.329  27.889  21.453  1.00  0.00     0.223 C 
BRANCH   7   8
HETATM    8  C3  UNL     1       8.452  27.121  20.206  1.00  0.00    -0.085 C 
BRANCH   8   9
HETATM    9  C2  UNL     1       8.531  26.484  19.180  1.00  0.00    -0.078 C 
BRANCH   9  10
HETATM   10  C1  UNL     1       8.608  25.726  17.930  1.00  0.00     0.323 C 
BRANCH  10  11
HETATM   11  N1  UNL     1       7.311  25.178  17.549  1.00  0.00    -0.069 N 
ATOM     12  H13 UNL     1       6.738  24.976  18.367  1.00  0.00     0.275 HD
ATOM     13  H12 UNL     1       6.722  25.887  17.112  1.00  0.00     0.275 HD
ATOM     14  H11 UNL     1       7.408  24.357  16.952  1.00  0.00     0.275 HD
ENDBRANCH  10  11
ENDBRANCH   9  10
ENDBRANCH   8   9
ENDBRANCH   7   8
ENDBRANCH   1   7
BRANCH   5  15
HETATM   15  C7  UNL     1       3.863  26.009  22.609  1.00  0.00     0.085 C 
BRANCH  15  16
HETATM   16  C8  UNL     1       3.557  25.704  21.163  1.00  0.00     0.235 C 
BRANCH  16  17
HETATM   17  N4  UNL     1       2.144  25.391  21.012  1.00  0.00    -0.079 N 
ATOM     18  H43 UNL     1       1.864  24.597  21.586  1.00  0.00     0.274 HD
ATOM     19  H42 UNL     1       1.547  26.100  21.439  1.00  0.00     0.274 HD
ATOM     20  H41 UNL     1       1.924  25.249  20.026  1.00  0.00     0.274 HD
ENDBRANCH  16  17
ENDBRANCH  15  16
ENDBRANCH   5  15
TORSDOF 8
ENDMDL
MODEL 5
REMARK VINA RESULT: -4.202260750      1.064      1.233
REMARK  8 active torsions:
REMARK  status: ('A' for Active; 'I' for Inactive)
REMARK    1  A    between atoms: N1_1  and  C1_5 
REMARK    2  A    between atoms: C1_5  and  C2_6 
REMARK    3  A    between atoms: C2_6  and  C3_7 
REMARK    4  A    between atoms: C3_7  and  C4_8 
REMARK    5  A    between atoms: C4_8  and  N2_9 
REMARK    6  A    between atoms: C6_13  and  C7_14 
REMARK    7  A    between atoms: C7_14  and  C8_15 
REMARK    8  A    between atoms: C8_15  and  N4_16 
ROOT
HETATM    1  N2  UNL     1       4.938  26.499  20.770  1.00  0.00    -0.340 N 
HETATM    2  C5  UNL     1       3.927  25.925  21.434  1.00  0.00     0.183 A 
HETATM    3  N3  UNL     1       4.202  25.897  22.747  1.00  0.00    -0.354 N 
ATOM      4  H3  UNL     1       3.600  25.513  23.474  1.00  0.00     0.166 HD
HETATM    5  C6  UNL     1       5.401  26.456  22.940  1.00  0.00     0.027 A 
HETATM    6  C9  UNL     1       5.851  26.829  21.691  1.00  0.00     0.117 A 
ENDROOT
BRANCH   1   7
HETATM    7  C4  UNL     1       5.035  26.723  19.348  1.00  0.00     0.223 C 
BRANCH   7   8
HETATM    8  C3  UNL     1       6.340  26.302  18.818  1.00  0.00    -0.085 C 
BRANCH   8   9
HETATM    9  C2  UNL     1       7.423  25.972  18.391  1.00  0.00    -0.078 C 
BRANCH   9  10
HETATM   10  C1  UNL     1       8.744  25.580  17.895  1.00  0.00     0.323 C 
BRANCH  10  11
HETATM   11  N1  UNL     1       9.731  25.528  18.968  1.00  0.00    -0.069 N 
ATOM     12  H13 UNL     1      10.411  26.283  18.884  1.00  0.00     0.275 HD
ATOM     13  H12 UNL     1       9.318  25.785  19.865  1.00  0.00     0.275 HD
ATOM     14  H11 UNL     1      10.190  24.619  19.017  1.00  0.00     0.275 HD
ENDBRANCH  10  11
ENDBRANCH   9  10
ENDBRANCH   8   9
ENDBRANCH   7   8
ENDBRANCH   1   7
BRANCH   5  15
HETATM   15  C7  UNL     1       6.157  26.667  24.201  1.00  0.00     0.085 C 
BRANCH  15  16
HETATM   16  C8  UNL     1       7.347  27.572  24.000  1.00  0.00     0.235 C 
BRANCH  16  17
HETATM   17  N4  UNL     1       7.300  28.670  24.954  1.00  0.00    -0.079 N 
ATOM     18  H43 UNL     1       7.489  29.570  24.513  1.00  0.00     0.274 HD
ATOM     19  H42 UNL     1       6.351  28.859  25.274  1.00  0.00     0.274 HD
ATOM     20  H41 UNL     1       7.936  28.483  25.729  1.00  0.00     0.274 HD
ENDBRANCH  16  17
ENDBRANCH  15  16
ENDBRANCH   5  15
TORSDOF 8
ENDMDL
