MODEL 1
REMARK VINA RESULT: -5.525309559      0.000      0.000
REMARK  6 active torsions:
REMARK  status: ('A' for Active; 'I' for Inactive)
REMARK    1  A    between atoms: C4_5  and  C5_6 
REMARK    2  A    between atoms: C5_6  and  N2_7 
REMARK    3  A    between atoms: C6_13  and  N4_14 
REMARK    4  A    between atoms: N4_14  and  C7_16 
REMARK    5  A    between atoms: C7_16  and  C8_17 
REMARK    6  A    between atoms: C8_17  and  N5_18 
ROOT
HETATM    1  C1  UNL     1       1.096  26.490  14.761  1.00  0.00     0.174 C 
HETATM    2  N1  UNL     1       2.548  26.623  14.631  1.00  0.00    -0.198 N 
HETATM    3  C2  UNL     1       3.300  25.480  14.574  1.00  0.00     0.110 A 
HETATM    4  C3  UNL     1       4.665  25.552  14.450  1.00  0.00     0.045 A 
HETATM    5  C4  UNL     1       5.268  26.790  14.383  1.00  0.00     0.053 A 
HETATM    6  N3  UNL     1       4.492  27.857  14.444  1.00  0.00    -0.194 N 
ATOM      7  H3  UNL     1       4.945  28.770  14.395  1.00  0.00     0.184 HD
HETATM    8  C6  UNL     1       3.109  27.837  14.568  1.00  0.00     0.680 A 
ENDROOT
BRANCH   8   9
HETATM    9  N4  UNL     1       2.579  28.944  14.608  1.00  0.00    -0.224 N 
ATOM     10  H4  UNL     1       2.730  29.323  15.543  1.00  0.00     0.177 HD
BRANCH   9  11
HETATM   11  C7  UNL     1       1.879  29.855  13.910  1.00  0.00     0.165 C 
BRANCH  11  12
HETATM   12  C8  UNL     1       2.312  29.997  12.421  1.00  0.00     0.249 C 
BRANCH  12  13
HETATM   13  N5  UNL     1       3.450  30.888  12.435  1.00  0.00    -0.078 N 
ATOM     14  H53 UNL     1       3.601  31.348  13.333  1.00  0.00     0.274 HD
ATOM     15  H52 UNL     1       4.349  30.408  12.394  1.00  0.00     0.274 HD
ATOM     16  H51 UNL     1       3.297  31.536  11.663  1.00  0.00     0.274 HD
ENDBRANCH  12  13
ENDBRANCH  11  12
ENDBRANCH   9  11
ENDBRANCH   8   9
BRANCH   5  17
HETATM   17  C5  UNL     1       6.765  26.885  14.248  1.00  0.00     0.287 C 
BRANCH  17  18
HETATM   18  N2  UNL     1       7.136  28.258  13.963  1.00  0.00    -0.074 N 
ATOM     19  H23 UNL     1       7.846  28.322  13.234  1.00  0.00     0.274 HD
ATOM     20  H22 UNL     1       6.392  28.768  13.486  1.00  0.00     0.274 HD
ATOM     21  H21 UNL     1       7.426  28.717  14.826  1.00  0.00     0.274 HD
ENDBRANCH  17  18
ENDBRANCH   5  17
TORSDOF 6
ENDMDL
MODEL 2
REMARK VINA RESULT: -5.432796086      1.140      3.772
REMARK  6 active torsions:
REMARK  status: ('A' for Active; 'I' for Inactive)
REMARK    1  A    between atoms: C4_5  and  C5_6 
REMARK    2  A    between atoms: C5_6  and  N2_7 
REMARK    3  A    between atoms: C6_13  and  N4_14 
REMARK    4  A    between atoms: N4_14  and  C7_16 
REMARK    5  A    between atoms: C7_16  and  C8_17 
REMARK    6  A    between atoms: C8_17  and  N5_18 
ROOT
HETATM    1  C1  UNL     1       3.350  24.916  15.121  1.00  0.00     0.174 C 
HETATM    2  N1  UNL     1       3.115  26.279  14.642  1.00  0.00    -0.198 N 
HETATM    3  C2  UNL     1       1.823  26.722  14.561  1.00  0.00     0.110 A 
HETATM    4  C3  UNL     1       1.550  27.993  14.119  1.00  0.00     0.045 A 
HETATM    5  C4  UNL     1       2.596  28.816  13.758  1.00  0.00     0.053 A 
HETATM    6  N3  UNL     1       3.821  28.333  13.857  1.00  0.00    -0.194 N 
ATOM      7  H3  UNL     1       4.590  28.947  13.587  1.00  0.00     0.184 HD
HETATM    8  C6  UNL     1       4.148  27.058  14.297  1.00  0.00     0.680 A 
ENDROOT
BRANCH   8   9
HETATM    9  N4  UNL     1       5.351  26.809  14.310  1.00  0.00    -0.224 N 
ATOM     10  H4  UNL     1       5.454  25.796  14.373  1.00  0.00     0.177 HD
BRANCH   9  11
HETATM   11  C7  UNL     1       6.585  27.340  14.275  1.00  0.00     0.165 C 
BRANCH  11  12
HETATM   12  C8  UNL     1       6.654  28.836  14.701  1.00  0.00     0.249 C 
BRANCH  12  13
HETATM   13  N5  UNL     1       7.738  29.406  13.933  1.00  0.00    -0.078 N 
ATOM     14  H53 UNL     1       7.617  30.397  13.724  1.00  0.00     0.274 HD
ATOM     15  H52 UNL     1       8.608  29.499  14.456  1.00  0.00     0.274 HD
ATOM     16  H51 UNL     1       7.820  28.819  13.103  1.00  0.00     0.274 HD
ENDBRANCH  12  13
ENDBRANCH  11  12
ENDBRANCH   9  11
ENDBRANCH   8   9
BRANCH   5  17
HETATM   17  C5  UNL     1       2.313  30.212  13.271  1.00  0.00     0.287 C 
BRANCH  17  18
HETATM   18  N2  UNL     1       3.413  30.664  12.440  1.00  0.00    -0.074 N 
ATOM     19  H23 UNL     1       4.077  29.917  12.239  1.00  0.00     0.274 HD
ATOM     20  H22 UNL     1       3.119  30.859  11.483  1.00  0.00     0.274 HD
ATOM     21  H21 UNL     1       3.859  31.471  12.879  1.00  0.00     0.274 HD
ENDBRANCH  17  18
ENDBRANCH   5  17
TORSDOF 6
ENDMDL
MODEL 3
REMARK VINA RESULT: -5.428890563      1.688      3.720
REMARK  6 active torsions:
REMARK  status: ('A' for Active; 'I' for Inactive)
REMARK    1  A    between atoms: C4_5  and  C5_6 
REMARK    2  A    between atoms: C5_6  and  N2_7 
REMARK    3  A    between atoms: C6_13  and  N4_14 
REMARK    4  A    between atoms: N4_14  and  C7_16 
REMARK    5  A    between atoms: C7_16  and  C8_17 
REMARK    6  A    between atoms: C8_17  and  N5_18 
ROOT
HETATM    1  C1  UNL     1       2.428  30.363  13.297  1.00  0.00     0.174 C 
HETATM    2  N1  UNL     1       2.765  29.025  13.785  1.00  0.00    -0.198 N 
HETATM    3  C2  UNL     1       1.802  28.054  13.727  1.00  0.00     0.110 A 
HETATM    4  C3  UNL     1       2.070  26.782  14.171  1.00  0.00     0.045 A 
HETATM    5  C4  UNL     1       3.320  26.498  14.675  1.00  0.00     0.053 A 
HETATM    6  N3  UNL     1       4.209  27.475  14.706  1.00  0.00    -0.194 N 
ATOM      7  H3  UNL     1       5.132  27.257  15.082  1.00  0.00     0.184 HD
HETATM    8  C6  UNL     1       3.987  28.774  14.270  1.00  0.00     0.680 A 
ENDROOT
BRANCH   8   9
HETATM    9  N4  UNL     1       4.949  29.529  14.389  1.00  0.00    -0.224 N 
ATOM     10  H4  UNL     1       4.943  30.163  13.590  1.00  0.00     0.177 HD
BRANCH   9  11
HETATM   11  C7  UNL     1       6.006  29.852  15.154  1.00  0.00     0.165 C 
BRANCH  11  12
HETATM   12  C8  UNL     1       7.377  29.776  14.422  1.00  0.00     0.249 C 
BRANCH  12  13
HETATM   13  N5  UNL     1       7.448  28.441  13.873  1.00  0.00    -0.078 N 
ATOM     14  H53 UNL     1       6.561  28.103  13.500  1.00  0.00     0.274 HD
ATOM     15  H52 UNL     1       7.975  28.382  13.002  1.00  0.00     0.274 HD
ATOM     16  H51 UNL     1       7.826  27.860  14.621  1.00  0.00     0.274 HD
ENDBRANCH  12  13
ENDBRANCH  11  12
ENDBRANCH   9  11
ENDBRANCH   8   9
BRANCH   5  17
HETATM   17  C5  UNL     1       3.628  25.108  15.166  1.00  0.00     0.287 C 
BRANCH  17  18
HETATM   18  N2  UNL     1       2.518  24.229  14.851  1.00  0.00    -0.074 N 
ATOM     19  H23 UNL     1       1.640  24.737  14.748  1.00  0.00     0.274 HD
ATOM     20  H22 UNL     1       2.580  23.853  13.905  1.00  0.00     0.274 HD
ATOM     21  H21 UNL     1       2.458  23.493  15.555  1.00  0.00     0.274 HD
ENDBRANCH  17  18
ENDBRANCH   5  17
TORSDOF 6
ENDMDL
MODEL 4
REMARK VINA RESULT: -5.260880979      1.953      4.062
REMARK  6 active torsions:
REMARK  status: ('A' for Active; 'I' for Inactive)
REMARK    1  A    between atoms: C4_5  and  C5_6 
REMARK    2  A    between atoms: C5_6  and  N2_7 
REMARK    3  A    between atoms: C6_13  and  N4_14 
REMARK    4  A    between atoms: N4_14  and  C7_16 
REMARK    5  A    between atoms: C7_16  and  C8_17 
REMARK    6  A    between atoms: C8_17  and  N5_18 
ROOT
HETATM    1  C1  UNL     1       1.514  27.595  14.057  1.00  0.00     0.174 C 
HETATM    2  N1  UNL     1       2.816  28.248  14.204  1.00  0.00    -0.198 N 
HETATM    3  C2  UNL     1       2.909  29.580  13.902  1.00  0.00     0.110 A 
HETATM    4  C3  UNL     1       4.107  30.239  14.025  1.00  0.00     0.045 A 
HETATM    5  C4  UNL     1       5.214  29.541  14.458  1.00  0.00     0.053 A 
HETATM    6  N3  UNL     1       5.064  28.258  14.734  1.00  0.00    -0.194 N 
ATOM      7  H3  UNL     1       5.888  27.748  15.053  1.00  0.00     0.184 HD
HETATM    8  C6  UNL     1       3.876  27.548  14.626  1.00  0.00     0.680 A 
ENDROOT
BRANCH   8   9
HETATM    9  N4  UNL     1       3.955  26.361  14.932  1.00  0.00    -0.224 N 
ATOM     10  H4  UNL     1       4.000  26.309  15.950  1.00  0.00     0.177 HD
BRANCH   9  11
HETATM   11  C7  UNL     1       4.006  25.104  14.460  1.00  0.00     0.165 C 
BRANCH  11  12
HETATM   12  C8  UNL     1       3.112  24.090  15.232  1.00  0.00     0.249 C 
BRANCH  12  13
HETATM   13  N5  UNL     1       3.933  23.600  16.316  1.00  0.00    -0.078 N 
ATOM     14  H53 UNL     1       3.982  24.234  17.113  1.00  0.00     0.274 HD
ATOM     15  H52 UNL     1       3.525  22.811  16.816  1.00  0.00     0.274 HD
ATOM     16  H51 UNL     1       4.841  23.395  15.898  1.00  0.00     0.274 HD
ENDBRANCH  12  13
ENDBRANCH  11  12
ENDBRANCH   9  11
ENDBRANCH   8   9
BRANCH   5  17
HETATM   17  C5  UNL     1       6.536  30.250  14.597  1.00  0.00     0.287 C 
BRANCH  17  18
HETATM   18  N2  UNL     1       7.585  29.430  14.020  1.00  0.00    -0.074 N 
ATOM     19  H23 UNL     1       7.803  28.618  14.598  1.00  0.00     0.274 HD
ATOM     20  H22 UNL     1       7.272  28.934  13.185  1.00  0.00     0.274 HD
ATOM     21  H21 UNL     1       8.406  30.008  13.840  1.00  0.00     0.274 HD
ENDBRANCH  17  18
ENDBRANCH   5  17
TORSDOF 6
ENDMDL
MODEL 5
REMARK VINA RESULT: -5.196649431      1.606      4.116
REMARK  6 active torsions:
REMARK  status: ('A' for Active; 'I' for Inactive)
REMARK    1  A    between atoms: C4_5  and  C5_6 
REMARK    2  A    between atoms: C5_6  and  N2_7 
REMARK    3  A    between atoms: C6_13  and  N4_14 
REMARK    4  A    between atoms: N4_14  and  C7_16 
REMARK    5  A    between atoms: C7_16  and  C8_17 
REMARK    6  A    between atoms: C8_17  and  N5_18 
ROOT
HETATM    1  C1  UNL     1       3.938  26.260  15.121  1.00  0.00     0.174 C 
HETATM    2  N1  UNL     1       3.372  27.450  14.483  1.00  0.00    -0.198 N 
HETATM    3  C2  UNL     1       2.105  27.368  13.971  1.00  0.00     0.110 A 
HETATM    4  C3  UNL     1       1.529  28.456  13.364  1.00  0.00     0.045 A 
HETATM    5  C4  UNL     1       2.243  29.632  13.279  1.00  0.00     0.053 A 
HETATM    6  N3  UNL     1       3.460  29.652  13.791  1.00  0.00    -0.194 N 
ATOM      7  H3  UNL     1       3.983  30.525  13.724  1.00  0.00     0.184 HD
HETATM    8  C6  UNL     1       4.086  28.580  14.414  1.00  0.00     0.680 A 
ENDROOT
BRANCH   8   9
HETATM    9  N4  UNL     1       5.222  28.811  14.819  1.00  0.00    -0.224 N 
ATOM     10  H4  UNL     1       5.712  27.918  14.883  1.00  0.00     0.177 HD
BRANCH   9  11
HETATM   11  C7  UNL     1       6.076  29.771  15.212  1.00  0.00     0.165 C 
BRANCH  11  12
HETATM   12  C8  UNL     1       7.462  29.730  14.502  1.00  0.00     0.249 C 
BRANCH  12  13
HETATM   13  N5  UNL     1       7.483  28.482  13.772  1.00  0.00    -0.078 N 
ATOM     14  H53 UNL     1       7.991  27.737  14.248  1.00  0.00     0.274 HD
ATOM     15  H52 UNL     1       6.580  28.010  13.739  1.00  0.00     0.274 HD
ATOM     16  H51 UNL     1       7.859  28.712  12.852  1.00  0.00     0.274 HD
ENDBRANCH  12  13
ENDBRANCH  11  12
ENDBRANCH   9  11
ENDBRANCH   8   9
BRANCH   5  17
HETATM   17  C5  UNL     1       1.624  30.835  12.616  1.00  0.00     0.287 C 
BRANCH  17  18
HETATM   18  N2  UNL     1       2.669  31.771  12.247  1.00  0.00    -0.074 N 
ATOM     19  H23 UNL     1       2.605  32.646  12.768  1.00  0.00     0.274 HD
ATOM     20  H22 UNL     1       3.588  31.474  12.576  1.00  0.00     0.274 HD
ATOM     21  H21 UNL     1       2.650  31.919  11.238  1.00  0.00     0.274 HD
ENDBRANCH  17  18
ENDBRANCH   5  17
TORSDOF 6
ENDMDL
