MODEL 1
REMARK VINA RESULT: -6.269378040      0.000      0.000
REMARK  9 active torsions:
REMARK  status: ('A' for Active; 'I' for Inactive)
REMARK    1  A    between atoms: S1_2  and  C2_5 
REMARK    2  A    between atoms: C3_7  and  C4_8 
REMARK    3  A    between atoms: C4_8  and  C5_9 
REMARK    4  A    between atoms: C5_9  and  O3_10 
REMARK    5  A    between atoms: C5_9  and  O4_12 
REMARK    6  A    between atoms: C7_15  and  C8_16 
REMARK    7  A    between atoms: C8_16  and  N1_17 
REMARK    8  A    between atoms: C8_16  and  N3_22 
REMARK    9  A    between atoms: N1_17  and  N2_19 
REMARK       I    between atoms: N3_22  and  C9_24 
ROOT
HETATM    1  C2  UNL     1      36.911  -3.051  13.573  1.00  0.00     0.113 A 
HETATM    2  S2  UNL     1      36.378  -4.671  13.653  1.00  0.00    -0.082 SA
HETATM    3  C3  UNL     1      35.416  -4.719  12.250  1.00  0.00    -0.011 A 
HETATM    4  C6  UNL     1      35.535  -3.465  11.751  1.00  0.00     0.032 A 
HETATM    5  C7  UNL     1      36.317  -2.580  12.435  1.00  0.00     0.039 A 
ENDROOT
BRANCH   5   6
HETATM    6  C8  UNL     1      36.559  -1.179  12.005  1.00  0.00     0.135 C 
BRANCH   6   7
HETATM    7  N1  UNL     1      37.365  -0.907  11.057  1.00  0.00    -0.291 N 
ATOM      8  H1  UNL     1      37.007  -0.636  10.141  1.00  0.00     0.188 HD
BRANCH   7   9
HETATM    9  N2  UNL     1      38.732  -0.980  11.278  1.00  0.00    -0.344 N 
ATOM     10  H22 UNL     1      39.266  -1.733  10.845  1.00  0.00     0.176 HD
ATOM     11  H21 UNL     1      39.185  -0.283  11.868  1.00  0.00     0.176 HD
ENDBRANCH   7   9
ENDBRANCH   6   7
BRANCH   6  12
HETATM   12  N3  UNL     1      35.869  -0.140  12.664  1.00  0.00    -0.295 N 
HETATM   13  C9  UNL     1      36.307   1.189  12.822  1.00  0.00     0.334 C 
HETATM   14  N4  UNL     1      35.510   2.128  13.501  1.00  0.00    -0.040 NA
HETATM   15  O5  UNL     1      37.404   1.551  12.365  1.00  0.00    -0.251 OA
ATOM     16  H3  UNL     1      34.961  -0.375  13.067  1.00  0.00     0.171 HD
ENDBRANCH   6  12
ENDBRANCH   5   6
BRANCH   1  17
HETATM   17  S1  UNL     1      37.985  -2.281  14.731  1.00  0.00     0.179 S 
HETATM   18  C1  UNL     1      38.361  -3.474  16.009  1.00  0.00     0.167 C 
HETATM   19  O1  UNL     1      39.281  -2.003  14.020  1.00  0.00    -0.222 OA
HETATM   20  O2  UNL     1      37.452  -1.028  15.301  1.00  0.00    -0.222 OA
ENDBRANCH   1  17
BRANCH   3  21
HETATM   21  C4  UNL     1      34.620  -5.878  11.691  1.00  0.00     0.106 C 
BRANCH  21  22
HETATM   22  C5  UNL     1      33.314  -6.026  12.428  1.00  0.00     0.258 C 
BRANCH  22  23
HETATM   23  O3  UNL     1      33.412  -7.185  13.197  1.00  0.00    -0.371 OA
ATOM     24  H3  UNL     1      32.602  -7.259  13.689  1.00  0.00     0.212 HD
ENDBRANCH  22  23
BRANCH  22  25
HETATM   25  O4  UNL     1      32.225  -6.119  11.599  1.00  0.00    -0.371 OA
ATOM     26  H4  UNL     1      31.933  -7.012  11.455  1.00  0.00     0.212 HD
ENDBRANCH  22  25
ENDBRANCH  21  22
ENDBRANCH   3  21
TORSDOF 9
ENDMDL
MODEL 2
REMARK VINA RESULT: -5.933150587      3.587      6.422
REMARK  9 active torsions:
REMARK  status: ('A' for Active; 'I' for Inactive)
REMARK    1  A    between atoms: S1_2  and  C2_5 
REMARK    2  A    between atoms: C3_7  and  C4_8 
REMARK    3  A    between atoms: C4_8  and  C5_9 
REMARK    4  A    between atoms: C5_9  and  O3_10 
REMARK    5  A    between atoms: C5_9  and  O4_12 
REMARK    6  A    between atoms: C7_15  and  C8_16 
REMARK    7  A    between atoms: C8_16  and  N1_17 
REMARK    8  A    between atoms: C8_16  and  N3_22 
REMARK    9  A    between atoms: N1_17  and  N2_19 
REMARK       I    between atoms: N3_22  and  C9_24 
ROOT
HETATM    1  C2  UNL     1      36.427  -4.376  12.751  1.00  0.00     0.113 A 
HETATM    2  S2  UNL     1      37.103  -2.811  12.844  1.00  0.00    -0.082 SA
HETATM    3  C3  UNL     1      36.059  -1.992  11.778  1.00  0.00    -0.011 A 
HETATM    4  C6  UNL     1      35.205  -2.964  11.374  1.00  0.00     0.032 A 
HETATM    5  C7  UNL     1      35.387  -4.219  11.877  1.00  0.00     0.039 A 
ENDROOT
BRANCH   5   6
HETATM    6  C8  UNL     1      34.524  -5.381  11.545  1.00  0.00     0.135 C 
BRANCH   6   7
HETATM    7  N1  UNL     1      33.519  -5.688  12.265  1.00  0.00    -0.291 N 
ATOM      8  H1  UNL     1      33.507  -5.452  13.258  1.00  0.00     0.188 HD
BRANCH   7   9
HETATM    9  N2  UNL     1      32.441  -6.344  11.692  1.00  0.00    -0.344 N 
ATOM     10  H22 UNL     1      32.415  -6.468  10.680  1.00  0.00     0.176 HD
ATOM     11  H21 UNL     1      31.690  -6.693  12.286  1.00  0.00     0.176 HD
ENDBRANCH   7   9
ENDBRANCH   6   7
BRANCH   6  12
HETATM   12  N3  UNL     1      34.832  -6.147  10.401  1.00  0.00    -0.295 N 
HETATM   13  C9  UNL     1      35.094  -7.531  10.364  1.00  0.00     0.334 C 
HETATM   14  N4  UNL     1      35.383  -8.170   9.145  1.00  0.00    -0.040 NA
HETATM   15  O5  UNL     1      35.075  -8.205  11.407  1.00  0.00    -0.251 OA
ATOM     16  H3  UNL     1      34.867  -5.650   9.511  1.00  0.00     0.171 HD
ENDBRANCH   6  12
ENDBRANCH   5   6
BRANCH   1  17
HETATM   17  S1  UNL     1      37.009  -5.782  13.630  1.00  0.00     0.179 S 
HETATM   18  C1  UNL     1      38.052  -6.727  12.527  1.00  0.00     0.167 C 
HETATM   19  O1  UNL     1      37.904  -5.280  14.730  1.00  0.00    -0.222 OA
HETATM   20  O2  UNL     1      35.935  -6.615  14.205  1.00  0.00    -0.222 OA
ENDBRANCH   1  17
BRANCH   3  21
HETATM   21  C4  UNL     1      36.074  -0.532  11.376  1.00  0.00     0.106 C 
BRANCH  21  22
HETATM   22  C5  UNL     1      36.633   0.315  12.491  1.00  0.00     0.258 C 
BRANCH  22  23
HETATM   23  O3  UNL     1      35.585   1.107  12.961  1.00  0.00    -0.371 OA
ATOM     24  H3  UNL     1      35.412   0.833  13.854  1.00  0.00     0.212 HD
ENDBRANCH  22  23
BRANCH  22  25
HETATM   25  O4  UNL     1      37.672   1.120  12.098  1.00  0.00    -0.371 OA
ATOM     26  H4  UNL     1      37.392   1.957  11.746  1.00  0.00     0.212 HD
ENDBRANCH  22  25
ENDBRANCH  21  22
ENDBRANCH   3  21
TORSDOF 9
ENDMDL
MODEL 3
REMARK VINA RESULT: -5.786770743      1.483      1.796
REMARK  9 active torsions:
REMARK  status: ('A' for Active; 'I' for Inactive)
REMARK    1  A    between atoms: S1_2  and  C2_5 
REMARK    2  A    between atoms: C3_7  and  C4_8 
REMARK    3  A    between atoms: C4_8  and  C5_9 
REMARK    4  A    between atoms: C5_9  and  O3_10 
REMARK    5  A    between atoms: C5_9  and  O4_12 
REMARK    6  A    between atoms: C7_15  and  C8_16 
REMARK    7  A    between atoms: C8_16  and  N1_17 
REMARK    8  A    between atoms: C8_16  and  N3_22 
REMARK    9  A    between atoms: N1_17  and  N2_19 
REMARK       I    between atoms: N3_22  and  C9_24 
ROOT
HETATM    1  C2  UNL     1      36.891  -4.251  13.686  1.00  0.00     0.113 A 
HETATM    2  S2  UNL     1      35.874  -5.610  13.879  1.00  0.00    -0.082 SA
HETATM    3  C3  UNL     1      34.667  -5.220  12.745  1.00  0.00    -0.011 A 
HETATM    4  C6  UNL     1      35.088  -4.034  12.241  1.00  0.00     0.032 A 
HETATM    5  C7  UNL     1      36.253  -3.516  12.726  1.00  0.00     0.039 A 
ENDROOT
BRANCH   5   6
HETATM    6  C8  UNL     1      36.852  -2.239  12.260  1.00  0.00     0.135 C 
BRANCH   6   7
HETATM    7  N1  UNL     1      37.721  -2.214  11.329  1.00  0.00    -0.291 N 
ATOM      8  H1  UNL     1      37.492  -2.577  10.403  1.00  0.00     0.188 HD
BRANCH   7   9
HETATM    9  N2  UNL     1      38.980  -1.692  11.581  1.00  0.00    -0.344 N 
ATOM     10  H22 UNL     1      39.184  -0.731  11.308  1.00  0.00     0.176 HD
ATOM     11  H21 UNL     1      39.685  -2.273  12.035  1.00  0.00     0.176 HD
ENDBRANCH   7   9
ENDBRANCH   6   7
BRANCH   6  12
HETATM   12  N3  UNL     1      36.434  -1.035  12.866  1.00  0.00    -0.295 N 
HETATM   13  C9  UNL     1      36.298   0.218  12.236  1.00  0.00     0.334 C 
HETATM   14  N4  UNL     1      35.863   1.340  12.963  1.00  0.00    -0.040 NA
HETATM   15  O5  UNL     1      36.560   0.349  11.029  1.00  0.00    -0.251 OA
ATOM     16  H3  UNL     1      36.208  -1.075  13.860  1.00  0.00     0.171 HD
ENDBRANCH   6  12
ENDBRANCH   5   6
BRANCH   1  17
HETATM   17  S1  UNL     1      38.389  -3.978  14.561  1.00  0.00     0.179 S 
HETATM   18  C1  UNL     1      38.114  -2.643  15.719  1.00  0.00     0.167 C 
HETATM   19  O1  UNL     1      38.652  -5.206  15.389  1.00  0.00    -0.222 OA
HETATM   20  O2  UNL     1      39.550  -3.708  13.690  1.00  0.00    -0.222 OA
ENDBRANCH   1  17
BRANCH   3  21
HETATM   21  C4  UNL     1      33.423  -6.003  12.382  1.00  0.00     0.106 C 
BRANCH  21  22
HETATM   22  C5  UNL     1      33.693  -7.484  12.455  1.00  0.00     0.258 C 
BRANCH  22  23
HETATM   23  O3  UNL     1      33.125  -8.055  11.317  1.00  0.00    -0.371 OA
ATOM     24  H3  UNL     1      33.396  -8.966  11.301  1.00  0.00     0.212 HD
ENDBRANCH  22  23
BRANCH  22  25
HETATM   25  O4  UNL     1      33.172  -8.081  13.575  1.00  0.00    -0.371 OA
ATOM     26  H4  UNL     1      33.794  -8.633  14.035  1.00  0.00     0.212 HD
ENDBRANCH  22  25
ENDBRANCH  21  22
ENDBRANCH   3  21
TORSDOF 9
ENDMDL
MODEL 4
REMARK VINA RESULT: -5.694010057      5.462      7.659
REMARK  9 active torsions:
REMARK  status: ('A' for Active; 'I' for Inactive)
REMARK    1  A    between atoms: S1_2  and  C2_5 
REMARK    2  A    between atoms: C3_7  and  C4_8 
REMARK    3  A    between atoms: C4_8  and  C5_9 
REMARK    4  A    between atoms: C5_9  and  O3_10 
REMARK    5  A    between atoms: C5_9  and  O4_12 
REMARK    6  A    between atoms: C7_15  and  C8_16 
REMARK    7  A    between atoms: C8_16  and  N1_17 
REMARK    8  A    between atoms: C8_16  and  N3_22 
REMARK    9  A    between atoms: N1_17  and  N2_19 
REMARK       I    between atoms: N3_22  and  C9_24 
ROOT
HETATM    1  C2  UNL     1      34.281  -9.687  11.506  1.00  0.00     0.113 A 
HETATM    2  S2  UNL     1      34.089 -11.027  10.465  1.00  0.00    -0.082 SA
HETATM    3  C3  UNL     1      34.471 -10.286   8.981  1.00  0.00    -0.011 A 
HETATM    4  C6  UNL     1      34.741  -9.006   9.336  1.00  0.00     0.032 A 
HETATM    5  C7  UNL     1      34.645  -8.679  10.657  1.00  0.00     0.039 A 
ENDROOT
BRANCH   5   6
HETATM    6  C8  UNL     1      34.927  -7.326  11.202  1.00  0.00     0.135 C 
BRANCH   6   7
HETATM    7  N1  UNL     1      34.114  -6.360  11.031  1.00  0.00    -0.291 N 
ATOM      8  H1  UNL     1      34.347  -5.599  10.392  1.00  0.00     0.188 HD
BRANCH   7   9
HETATM    9  N2  UNL     1      32.910  -6.348  11.719  1.00  0.00    -0.344 N 
ATOM     10  H22 UNL     1      32.488  -5.454  11.969  1.00  0.00     0.176 HD
ATOM     11  H21 UNL     1      32.463  -7.231  11.966  1.00  0.00     0.176 HD
ENDBRANCH   7   9
ENDBRANCH   6   7
BRANCH   6  12
HETATM   12  N3  UNL     1      36.119  -7.124  11.928  1.00  0.00    -0.295 N 
HETATM   13  C9  UNL     1      36.247  -6.452  13.159  1.00  0.00     0.334 C 
HETATM   14  N4  UNL     1      37.504  -6.328  13.778  1.00  0.00    -0.040 NA
HETATM   15  O5  UNL     1      35.252  -5.958  13.715  1.00  0.00    -0.251 OA
ATOM     16  H3  UNL     1      36.975  -7.502  11.521  1.00  0.00     0.171 HD
ENDBRANCH   6  12
ENDBRANCH   5   6
BRANCH   1  17
HETATM   17  S1  UNL     1      34.052  -9.719  13.248  1.00  0.00     0.179 S 
HETATM   18  C1  UNL     1      33.375 -11.315  13.684  1.00  0.00     0.167 C 
HETATM   19  O1  UNL     1      35.416  -9.654  13.877  1.00  0.00    -0.222 OA
HETATM   20  O2  UNL     1      33.215  -8.617  13.762  1.00  0.00    -0.222 OA
ENDBRANCH   1  17
BRANCH   3  21
HETATM   21  C4  UNL     1      34.505 -10.902   7.599  1.00  0.00     0.106 C 
BRANCH  21  22
HETATM   22  C5  UNL     1      35.442 -10.135   6.703  1.00  0.00     0.258 C 
BRANCH  22  23
HETATM   23  O3  UNL     1      34.873 -10.132   5.430  1.00  0.00    -0.371 OA
ATOM     24  H3  UNL     1      34.013  -9.738   5.513  1.00  0.00     0.212 HD
ENDBRANCH  22  23
BRANCH  22  25
HETATM   25  O4  UNL     1      36.702 -10.674   6.638  1.00  0.00    -0.371 OA
ATOM     26  H4  UNL     1      37.391 -10.056   6.855  1.00  0.00     0.212 HD
ENDBRANCH  22  25
ENDBRANCH  21  22
ENDBRANCH   3  21
TORSDOF 9
ENDMDL
MODEL 5
REMARK VINA RESULT: -5.670484938      3.924      6.767
REMARK  9 active torsions:
REMARK  status: ('A' for Active; 'I' for Inactive)
REMARK    1  A    between atoms: S1_2  and  C2_5 
REMARK    2  A    between atoms: C3_7  and  C4_8 
REMARK    3  A    between atoms: C4_8  and  C5_9 
REMARK    4  A    between atoms: C5_9  and  O3_10 
REMARK    5  A    between atoms: C5_9  and  O4_12 
REMARK    6  A    between atoms: C7_15  and  C8_16 
REMARK    7  A    between atoms: C8_16  and  N1_17 
REMARK    8  A    between atoms: C8_16  and  N3_22 
REMARK    9  A    between atoms: N1_17  and  N2_19 
REMARK       I    between atoms: N3_22  and  C9_24 
ROOT
HETATM    1  C2  UNL     1      36.439  -5.317  12.593  1.00  0.00     0.113 A 
HETATM    2  S2  UNL     1      36.985  -3.731  12.910  1.00  0.00    -0.082 SA
HETATM    3  C3  UNL     1      35.680  -2.850  12.264  1.00  0.00    -0.011 A 
HETATM    4  C6  UNL     1      34.846  -3.820  11.815  1.00  0.00     0.032 A 
HETATM    5  C7  UNL     1      35.232  -5.118  11.981  1.00  0.00     0.039 A 
ENDROOT
BRANCH   5   6
HETATM    6  C8  UNL     1      34.420  -6.288  11.560  1.00  0.00     0.135 C 
BRANCH   6   7
HETATM    7  N1  UNL     1      33.356  -6.615  12.180  1.00  0.00    -0.291 N 
ATOM      8  H1  UNL     1      33.412  -7.142  13.052  1.00  0.00     0.188 HD
BRANCH   7   9
HETATM    9  N2  UNL     1      32.123  -6.250  11.663  1.00  0.00    -0.344 N 
ATOM     10  H22 UNL     1      31.817  -6.649  10.776  1.00  0.00     0.176 HD
ATOM     11  H21 UNL     1      31.538  -5.590  12.175  1.00  0.00     0.176 HD
ENDBRANCH   7   9
ENDBRANCH   6   7
BRANCH   6  12
HETATM   12  N3  UNL     1      34.843  -7.038  10.442  1.00  0.00    -0.295 N 
HETATM   13  C9  UNL     1      34.756  -8.435  10.288  1.00  0.00     0.334 C 
HETATM   14  N4  UNL     1      35.214  -9.054   9.112  1.00  0.00    -0.040 NA
HETATM   15  O5  UNL     1      34.275  -9.140  11.190  1.00  0.00    -0.251 OA
ATOM     16  H3  UNL     1      35.252  -6.515   9.667  1.00  0.00     0.171 HD
ENDBRANCH   6  12
ENDBRANCH   5   6
BRANCH   1  17
HETATM   17  S1  UNL     1      37.304  -6.787  13.013  1.00  0.00     0.179 S 
HETATM   18  C1  UNL     1      38.760  -6.322  13.941  1.00  0.00     0.167 C 
HETATM   19  O1  UNL     1      36.430  -7.562  13.961  1.00  0.00    -0.222 OA
HETATM   20  O2  UNL     1      37.648  -7.632  11.853  1.00  0.00    -0.222 OA
ENDBRANCH   1  17
BRANCH   3  21
HETATM   21  C4  UNL     1      35.490  -1.350  12.204  1.00  0.00     0.106 C 
BRANCH  21  22
HETATM   22  C5  UNL     1      36.692  -0.691  11.577  1.00  0.00     0.258 C 
BRANCH  22  23
HETATM   23  O3  UNL     1      37.097   0.323  12.444  1.00  0.00    -0.371 OA
ATOM     24  H3  UNL     1      38.016   0.487  12.268  1.00  0.00     0.212 HD
ENDBRANCH  22  23
BRANCH  22  25
HETATM   25  O4  UNL     1      36.441  -0.159  10.338  1.00  0.00    -0.371 OA
ATOM     26  H4  UNL     1      37.111  -0.360   9.695  1.00  0.00     0.212 HD
ENDBRANCH  22  25
ENDBRANCH  21  22
ENDBRANCH   3  21
TORSDOF 9
ENDMDL
