MODEL 1
REMARK VINA RESULT: -5.345502322      0.000      0.000
REMARK  7 active torsions:
REMARK  status: ('A' for Active; 'I' for Inactive)
REMARK    1  A    between atoms: O1_2  and  N1_3 
REMARK    2  A    between atoms: N1_3  and  N2_4 
REMARK    3  A    between atoms: N2_4  and  C3_6 
REMARK    4  A    between atoms: C3_6  and  O2_7 
REMARK    5  A    between atoms: C3_6  and  C4_9 
REMARK    6  A    between atoms: C11_20  and  N6_21 
REMARK    7  A    between atoms: C13_26  and  O3_27 
ROOT
HETATM    1  C4  UNL     1     -38.427  -7.095  39.322  1.00  0.00     0.091 A 
HETATM    2  C5  UNL     1     -39.379  -6.682  38.433  1.00  0.00     0.135 A 
HETATM    3  N3  UNL     1     -40.803  -6.897  38.611  1.00  0.00    -0.082 NA
HETATM    4  N4  UNL     1     -38.989  -6.104  37.275  1.00  0.00    -0.329 N 
ATOM      5  H4  UNL     1     -39.708  -5.798  36.619  1.00  0.00     0.168 HD
HETATM    6  C6  UNL     1     -37.705  -5.912  36.947  1.00  0.00     0.124 A 
HETATM    7  C7  UNL     1     -36.698  -6.308  37.802  1.00  0.00     0.063 A 
HETATM    8  C8  UNL     1     -35.399  -6.100  37.438  1.00  0.00     0.065 A 
HETATM    9  C9  UNL     1     -34.328  -6.497  38.294  1.00  0.00     0.100 C 
HETATM   10  N5  UNL     1     -33.419  -6.811  38.978  1.00  0.00    -0.191 NA
HETATM   11  C10 UNL     1     -35.139  -5.492  36.211  1.00  0.00     0.072 A 
HETATM   12  C11 UNL     1     -36.183  -5.117  35.398  1.00  0.00     0.103 A 
HETATM   13  N7  UNL     1     -37.438  -5.317  35.747  1.00  0.00    -0.323 N 
HETATM   14  C12 UNL     1     -38.577  -4.933  34.910  1.00  0.00     0.159 C 
HETATM   15  C13 UNL     1     -37.061  -6.911  39.016  1.00  0.00     0.099 A 
ENDROOT
BRANCH  15  16
HETATM   16  O3  UNL     1     -36.055  -7.273  39.820  1.00  0.00    -0.359 OA
ATOM     17  H3  UNL     1     -35.386  -7.906  39.586  1.00  0.00     0.217 HD
ENDBRANCH  15  16
BRANCH  12  18
HETATM   18  N6  UNL     1     -35.917  -4.553  34.258  1.00  0.00    -0.385 N 
ATOM     19  H62 UNL     1     -34.965  -4.243  34.060  1.00  0.00     0.157 HD
ATOM     20  H61 UNL     1     -36.672  -4.431  33.582  1.00  0.00     0.157 HD
ENDBRANCH  12  18
BRANCH   1  21
HETATM   21  C3  UNL     1     -38.751  -7.827  40.519  1.00  0.00     0.172 C 
BRANCH  21  22
HETATM   22  N2  UNL     1     -39.411  -9.016  40.768  1.00  0.00    -0.253 N 
HETATM   23  C2  UNL     1     -39.490 -10.236  40.002  1.00  0.00     0.178 C 
BRANCH  22  24
HETATM   24  N1  UNL     1     -40.244  -9.037  41.947  1.00  0.00     0.025 NA
BRANCH  24  25
HETATM   25  O1  UNL     1     -39.514  -9.524  42.957  1.00  0.00    -0.272 OA
HETATM   26  C1  UNL     1     -39.617  -8.751  44.113  1.00  0.00     0.234 C 
ENDBRANCH  24  25
ENDBRANCH  22  24
ENDBRANCH  21  22
BRANCH  21  27
HETATM   27  O2  UNL     1     -38.326  -7.212  41.604  1.00  0.00    -0.344 OA
ATOM     28  H2  UNL     1     -38.279  -6.267  41.520  1.00  0.00     0.219 HD
ENDBRANCH  21  27
ENDBRANCH   1  21
TORSDOF 7
ENDMDL
MODEL 2
REMARK VINA RESULT: -5.309846032      1.052      1.348
REMARK  7 active torsions:
REMARK  status: ('A' for Active; 'I' for Inactive)
REMARK    1  A    between atoms: O1_2  and  N1_3 
REMARK    2  A    between atoms: N1_3  and  N2_4 
REMARK    3  A    between atoms: N2_4  and  C3_6 
REMARK    4  A    between atoms: C3_6  and  O2_7 
REMARK    5  A    between atoms: C3_6  and  C4_9 
REMARK    6  A    between atoms: C11_20  and  N6_21 
REMARK    7  A    between atoms: C13_26  and  O3_27 
ROOT
HETATM    1  C4  UNL     1     -38.502  -7.185  39.185  1.00  0.00     0.091 A 
HETATM    2  C5  UNL     1     -39.429  -6.735  38.287  1.00  0.00     0.135 A 
HETATM    3  N3  UNL     1     -40.858  -6.953  38.416  1.00  0.00    -0.082 NA
HETATM    4  N4  UNL     1     -39.006  -6.112  37.163  1.00  0.00    -0.329 N 
ATOM      5  H4  UNL     1     -39.706  -5.780  36.501  1.00  0.00     0.168 HD
HETATM    6  C6  UNL     1     -37.713  -5.911  36.880  1.00  0.00     0.124 A 
HETATM    7  C7  UNL     1     -36.731  -6.342  37.746  1.00  0.00     0.063 A 
HETATM    8  C8  UNL     1     -35.422  -6.123  37.426  1.00  0.00     0.065 A 
HETATM    9  C9  UNL     1     -34.375  -6.555  38.296  1.00  0.00     0.100 C 
HETATM   10  N5  UNL     1     -33.487  -6.899  38.991  1.00  0.00    -0.191 NA
HETATM   11  C10 UNL     1     -35.127  -5.468  36.232  1.00  0.00     0.072 A 
HETATM   12  C11 UNL     1     -36.147  -5.059  35.406  1.00  0.00     0.103 A 
HETATM   13  N7  UNL     1     -37.412  -5.270  35.712  1.00  0.00    -0.323 N 
HETATM   14  C12 UNL     1     -38.527  -4.850  34.859  1.00  0.00     0.159 C 
HETATM   15  C13 UNL     1     -37.128  -6.992  38.924  1.00  0.00     0.099 A 
ENDROOT
BRANCH  15  16
HETATM   16  O3  UNL     1     -36.145  -7.388  39.741  1.00  0.00    -0.359 OA
ATOM     17  H3  UNL     1     -35.941  -8.296  39.929  1.00  0.00     0.217 HD
ENDBRANCH  15  16
BRANCH  12  18
HETATM   18  N6  UNL     1     -35.849  -4.451  34.297  1.00  0.00    -0.385 N 
ATOM     19  H62 UNL     1     -35.610  -4.999  33.470  1.00  0.00     0.157 HD
ATOM     20  H61 UNL     1     -35.861  -3.430  34.278  1.00  0.00     0.157 HD
ENDBRANCH  12  18
BRANCH   1  21
HETATM   21  C3  UNL     1     -38.860  -7.963  40.343  1.00  0.00     0.172 C 
BRANCH  21  22
HETATM   22  N2  UNL     1     -39.585  -9.125  40.532  1.00  0.00    -0.253 N 
HETATM   23  C2  UNL     1     -40.866  -9.353  41.157  1.00  0.00     0.178 C 
BRANCH  22  24
HETATM   24  N1  UNL     1     -38.932 -10.347  40.126  1.00  0.00     0.025 NA
BRANCH  24  25
HETATM   25  O1  UNL     1     -39.677 -11.371  40.555  1.00  0.00    -0.272 OA
HETATM   26  C1  UNL     1     -38.931 -12.319  41.256  1.00  0.00     0.234 C 
ENDBRANCH  24  25
ENDBRANCH  22  24
ENDBRANCH  21  22
BRANCH  21  27
HETATM   27  O2  UNL     1     -38.394  -7.434  41.456  1.00  0.00    -0.344 OA
ATOM     28  H2  UNL     1     -38.632  -6.523  41.581  1.00  0.00     0.219 HD
ENDBRANCH  21  27
ENDBRANCH   1  21
TORSDOF 7
ENDMDL
MODEL 3
REMARK VINA RESULT: -3.791897363      1.125      1.245
REMARK  7 active torsions:
REMARK  status: ('A' for Active; 'I' for Inactive)
REMARK    1  A    between atoms: O1_2  and  N1_3 
REMARK    2  A    between atoms: N1_3  and  N2_4 
REMARK    3  A    between atoms: N2_4  and  C3_6 
REMARK    4  A    between atoms: C3_6  and  O2_7 
REMARK    5  A    between atoms: C3_6  and  C4_9 
REMARK    6  A    between atoms: C11_20  and  N6_21 
REMARK    7  A    between atoms: C13_26  and  O3_27 
ROOT
HETATM    1  C4  UNL     1     -38.657  -7.002  39.792  1.00  0.00     0.091 A 
HETATM    2  C5  UNL     1     -39.852  -6.632  39.241  1.00  0.00     0.135 A 
HETATM    3  N3  UNL     1     -41.136  -6.812  39.891  1.00  0.00    -0.082 NA
HETATM    4  N4  UNL     1     -39.868  -6.134  37.984  1.00  0.00    -0.329 N 
ATOM      5  H4  UNL     1     -40.764  -5.860  37.583  1.00  0.00     0.168 HD
HETATM    6  C6  UNL     1     -38.765  -5.985  37.240  1.00  0.00     0.124 A 
HETATM    7  C7  UNL     1     -37.530  -6.341  37.740  1.00  0.00     0.063 A 
HETATM    8  C8  UNL     1     -36.425  -6.177  36.956  1.00  0.00     0.065 A 
HETATM    9  C9  UNL     1     -35.129  -6.535  37.436  1.00  0.00     0.100 C 
HETATM   10  N5  UNL     1     -34.044  -6.820  37.801  1.00  0.00    -0.191 NA
HETATM   11  C10 UNL     1     -36.587  -5.653  35.675  1.00  0.00     0.072 A 
HETATM   12  C11 UNL     1     -37.843  -5.314  35.228  1.00  0.00     0.103 A 
HETATM   13  N7  UNL     1     -38.912  -5.471  35.983  1.00  0.00    -0.323 N 
HETATM   14  C12 UNL     1     -40.265  -5.123  35.544  1.00  0.00     0.159 C 
HETATM   15  C13 UNL     1     -37.469  -6.860  39.042  1.00  0.00     0.099 A 
ENDROOT
BRANCH  15  16
HETATM   16  O3  UNL     1     -36.252  -7.186  39.492  1.00  0.00    -0.359 OA
ATOM     17  H3  UNL     1     -35.628  -6.562  39.842  1.00  0.00     0.217 HD
ENDBRANCH  15  16
BRANCH  12  18
HETATM   18  N6  UNL     1     -37.971  -4.827  34.030  1.00  0.00    -0.385 N 
ATOM     19  H62 UNL     1     -37.299  -4.137  33.693  1.00  0.00     0.157 HD
ATOM     20  H61 UNL     1     -38.746  -5.148  33.449  1.00  0.00     0.157 HD
ENDBRANCH  12  18
BRANCH   1  21
HETATM   21  C3  UNL     1     -38.564  -7.652  41.074  1.00  0.00     0.172 C 
BRANCH  21  22
HETATM   22  N2  UNL     1     -39.158  -8.770  41.630  1.00  0.00    -0.253 N 
HETATM   23  C2  UNL     1     -40.033  -9.764  41.056  1.00  0.00     0.178 C 
BRANCH  22  24
HETATM   24  N1  UNL     1     -38.959  -8.948  43.049  1.00  0.00     0.025 NA
BRANCH  24  25
HETATM   25  O1  UNL     1     -39.879  -8.216  43.686  1.00  0.00    -0.272 OA
HETATM   26  C1  UNL     1     -39.848  -8.402  45.068  1.00  0.00     0.234 C 
ENDBRANCH  24  25
ENDBRANCH  22  24
ENDBRANCH  21  22
BRANCH  21  27
HETATM   27  O2  UNL     1     -37.734  -7.027  41.885  1.00  0.00    -0.344 OA
ATOM     28  H2  UNL     1     -37.705  -6.086  41.759  1.00  0.00     0.219 HD
ENDBRANCH  21  27
ENDBRANCH   1  21
TORSDOF 7
ENDMDL
MODEL 4
REMARK VINA RESULT: -3.353086812      1.230      1.681
REMARK  7 active torsions:
REMARK  status: ('A' for Active; 'I' for Inactive)
REMARK    1  A    between atoms: O1_2  and  N1_3 
REMARK    2  A    between atoms: N1_3  and  N2_4 
REMARK    3  A    between atoms: N2_4  and  C3_6 
REMARK    4  A    between atoms: C3_6  and  O2_7 
REMARK    5  A    between atoms: C3_6  and  C4_9 
REMARK    6  A    between atoms: C11_20  and  N6_21 
REMARK    7  A    between atoms: C13_26  and  O3_27 
ROOT
HETATM    1  C4  UNL     1     -38.496  -7.498  38.987  1.00  0.00     0.091 A 
HETATM    2  C5  UNL     1     -39.427  -6.932  38.161  1.00  0.00     0.135 A 
HETATM    3  N3  UNL     1     -40.858  -7.126  38.296  1.00  0.00    -0.082 NA
HETATM    4  N4  UNL     1     -39.007  -6.203  37.103  1.00  0.00    -0.329 N 
ATOM      5  H4  UNL     1     -39.709  -5.783  36.494  1.00  0.00     0.168 HD
HETATM    6  C6  UNL     1     -37.714  -6.005  36.815  1.00  0.00     0.124 A 
HETATM    7  C7  UNL     1     -36.729  -6.552  37.610  1.00  0.00     0.063 A 
HETATM    8  C8  UNL     1     -35.420  -6.332  37.289  1.00  0.00     0.065 A 
HETATM    9  C9  UNL     1     -34.370  -6.882  38.085  1.00  0.00     0.100 C 
HETATM   10  N5  UNL     1     -33.479  -7.321  38.721  1.00  0.00    -0.191 NA
HETATM   11  C10 UNL     1     -35.129  -5.561  36.165  1.00  0.00     0.072 A 
HETATM   12  C11 UNL     1     -36.152  -5.040  35.409  1.00  0.00     0.103 A 
HETATM   13  N7  UNL     1     -37.417  -5.250  35.717  1.00  0.00    -0.323 N 
HETATM   14  C12 UNL     1     -38.534  -4.713  34.937  1.00  0.00     0.159 C 
HETATM   15  C13 UNL     1     -37.122  -7.314  38.720  1.00  0.00     0.099 A 
ENDROOT
BRANCH  15  16
HETATM   16  O3  UNL     1     -36.136  -7.820  39.469  1.00  0.00    -0.359 OA
ATOM     17  H3  UNL     1     -35.217  -7.612  39.352  1.00  0.00     0.217 HD
ENDBRANCH  15  16
BRANCH  12  18
HETATM   18  N6  UNL     1     -35.857  -4.323  34.365  1.00  0.00    -0.385 N 
ATOM     19  H62 UNL     1     -36.600  -4.030  33.730  1.00  0.00     0.157 HD
ATOM     20  H61 UNL     1     -34.882  -4.069  34.203  1.00  0.00     0.157 HD
ENDBRANCH  12  18
BRANCH   1  21
HETATM   21  C3  UNL     1     -38.855  -8.387  40.062  1.00  0.00     0.172 C 
BRANCH  21  22
HETATM   22  N2  UNL     1     -38.925  -8.253  41.436  1.00  0.00    -0.253 N 
HETATM   23  C2  UNL     1     -39.304  -9.194  42.463  1.00  0.00     0.178 C 
BRANCH  22  24
HETATM   24  N1  UNL     1     -38.667  -6.930  41.953  1.00  0.00     0.025 NA
BRANCH  24  25
HETATM   25  O1  UNL     1     -39.738  -6.173  41.693  1.00  0.00    -0.272 OA
HETATM   26  C1  UNL     1     -39.413  -5.005  41.003  1.00  0.00     0.234 C 
ENDBRANCH  24  25
ENDBRANCH  22  24
ENDBRANCH  21  22
BRANCH  21  27
HETATM   27  O2  UNL     1     -39.177  -9.587  39.623  1.00  0.00    -0.344 OA
ATOM     28  H2  UNL     1     -38.889  -9.764  38.735  1.00  0.00     0.219 HD
ENDBRANCH  21  27
ENDBRANCH   1  21
TORSDOF 7
ENDMDL
MODEL 5
REMARK VINA RESULT: -2.823680626      2.072      3.484
REMARK  7 active torsions:
REMARK  status: ('A' for Active; 'I' for Inactive)
REMARK    1  A    between atoms: O1_2  and  N1_3 
REMARK    2  A    between atoms: N1_3  and  N2_4 
REMARK    3  A    between atoms: N2_4  and  C3_6 
REMARK    4  A    between atoms: C3_6  and  O2_7 
REMARK    5  A    between atoms: C3_6  and  C4_9 
REMARK    6  A    between atoms: C11_20  and  N6_21 
REMARK    7  A    between atoms: C13_26  and  O3_27 
ROOT
HETATM    1  C4  UNL     1     -38.733  -6.781  39.004  1.00  0.00     0.091 A 
HETATM    2  C5  UNL     1     -37.496  -7.034  39.528  1.00  0.00     0.135 A 
HETATM    3  N3  UNL     1     -37.270  -7.528  40.873  1.00  0.00    -0.082 NA
HETATM    4  N4  UNL     1     -36.400  -6.744  38.792  1.00  0.00    -0.329 N 
ATOM      5  H4  UNL     1     -35.482  -6.938  39.191  1.00  0.00     0.168 HD
HETATM    6  C6  UNL     1     -36.461  -6.214  37.564  1.00  0.00     0.124 A 
HETATM    7  C7  UNL     1     -37.679  -5.934  36.982  1.00  0.00     0.063 A 
HETATM    8  C8  UNL     1     -37.707  -5.392  35.728  1.00  0.00     0.065 A 
HETATM    9  C9  UNL     1     -38.948  -5.087  35.092  1.00  0.00     0.100 C 
HETATM   10  N5  UNL     1     -39.955  -4.824  34.537  1.00  0.00    -0.191 NA
HETATM   11  C10 UNL     1     -36.497  -5.142  35.083  1.00  0.00     0.072 A 
HETATM   12  C11 UNL     1     -35.311  -5.441  35.711  1.00  0.00     0.103 A 
HETATM   13  N7  UNL     1     -35.282  -5.964  36.921  1.00  0.00    -0.323 N 
HETATM   14  C12 UNL     1     -34.040  -6.296  37.623  1.00  0.00     0.159 C 
HETATM   15  C13 UNL     1     -38.842  -6.222  37.712  1.00  0.00     0.099 A 
ENDROOT
BRANCH  15  16
HETATM   16  O3  UNL     1     -40.003  -5.944  37.109  1.00  0.00    -0.359 OA
ATOM     17  H3  UNL     1     -40.291  -6.342  36.297  1.00  0.00     0.217 HD
ENDBRANCH  15  16
BRANCH  12  18
HETATM   18  N6  UNL     1     -34.196  -5.199  35.090  1.00  0.00    -0.385 N 
ATOM     19  H62 UNL     1     -33.309  -5.347  35.573  1.00  0.00     0.157 HD
ATOM     20  H61 UNL     1     -34.232  -4.863  34.127  1.00  0.00     0.157 HD
ENDBRANCH  12  18
BRANCH   1  21
HETATM   21  C3  UNL     1     -39.944  -6.946  39.765  1.00  0.00     0.172 C 
BRANCH  21  22
HETATM   22  N2  UNL     1     -40.478  -7.982  40.508  1.00  0.00    -0.253 N 
HETATM   23  C2  UNL     1     -40.762  -8.091  41.919  1.00  0.00     0.178 C 
BRANCH  22  24
HETATM   24  N1  UNL     1     -40.719  -9.212  39.790  1.00  0.00     0.025 NA
BRANCH  24  25
HETATM   25  O1  UNL     1     -39.634  -9.982  39.920  1.00  0.00    -0.272 OA
HETATM   26  C1  UNL     1     -39.921 -11.218  40.497  1.00  0.00     0.234 C 
ENDBRANCH  24  25
ENDBRANCH  22  24
ENDBRANCH  21  22
BRANCH  21  27
HETATM   27  O2  UNL     1     -40.700  -5.867  39.729  1.00  0.00    -0.344 OA
ATOM     28  H2  UNL     1     -40.247  -5.068  39.974  1.00  0.00     0.219 HD
ENDBRANCH  21  27
ENDBRANCH   1  21
TORSDOF 7
ENDMDL
