MODEL 1
REMARK VINA RESULT: -2.490940231      0.000      0.000
REMARK  5 active torsions:
REMARK  status: ('A' for Active; 'I' for Inactive)
REMARK    1  A    between atoms: C3_4  and  N2_5 
REMARK    2  A    between atoms: N2_5  and  N3_7 
REMARK    3  A    between atoms: N3_7  and  C4_9 
REMARK    4  A    between atoms: C6_19  and  N8_20 
REMARK    5  A    between atoms: C9_26  and  C10_27 
ROOT
HETATM    1  N1  UNL     1     -39.467  -4.890  41.799  1.00  0.00    -0.191 NA
HETATM    2  C1  UNL     1     -39.482  -6.053  41.783  1.00  0.00     0.104 C 
HETATM    3  C2  UNL     1     -39.516  -7.488  41.779  1.00  0.00     0.104 A 
HETATM    4  C3  UNL     1     -39.901  -8.135  42.935  1.00  0.00     0.143 A 
HETATM    5  N7  UNL     1     -39.926  -9.481  42.911  1.00  0.00    -0.325 N 
ATOM      6  H7  UNL     1     -40.206  -9.980  43.754  1.00  0.00     0.169 HD
HETATM    7  C6  UNL     1     -39.593 -10.199  41.812  1.00  0.00     0.122 A 
HETATM    8  C7  UNL     1     -39.204  -9.530  40.644  1.00  0.00     0.102 A 
HETATM    9  C8  UNL     1     -38.844 -10.260  39.457  1.00  0.00     0.104 C 
HETATM   10  N9  UNL     1     -38.545 -10.869  38.502  1.00  0.00    -0.191 NA
HETATM   11  C9  UNL     1     -39.166  -8.154  40.629  1.00  0.00     0.041 A 
ENDROOT
BRANCH   4  12
HETATM   12  N2  UNL     1     -40.257  -7.415  44.108  1.00  0.00    -0.282 N 
ATOM     13  H2  UNL     1     -40.418  -6.411  44.034  1.00  0.00     0.188 HD
BRANCH  12  14
HETATM   14  N3  UNL     1     -40.396  -8.022  45.355  1.00  0.00    -0.282 N 
ATOM     15  H3  UNL     1     -39.954  -8.927  45.516  1.00  0.00     0.188 HD
BRANCH  14  16
HETATM   16  C4  UNL     1     -41.072  -7.471  46.322  1.00  0.00     0.153 A 
HETATM   17  C5  UNL     1     -41.962  -6.431  46.261  1.00  0.00     0.159 A 
HETATM   18  N4  UNL     1     -42.399  -6.224  47.513  1.00  0.00    -0.294 N 
HETATM   19  N5  UNL     1     -41.814  -7.090  48.325  1.00  0.00    -0.241 N 
ATOM     20  H4  UNL     1     -43.074  -5.512  47.795  1.00  0.00     0.187 HD
HETATM   21  N6  UNL     1     -41.009  -7.848  47.606  1.00  0.00    -0.269 N 
ATOM     22  H5  UNL     1     -41.959  -7.159  49.331  1.00  0.00     0.208 HD
ATOM     23  H6  UNL     1     -40.428  -8.603  47.971  1.00  0.00     0.190 HD
ENDBRANCH  14  16
ENDBRANCH  12  14
ENDBRANCH   4  12
BRANCH  11  24
HETATM   24  C10 UNL     1     -38.758  -7.489  39.401  1.00  0.00     0.061 A 
HETATM   25  C11 UNL     1     -39.662  -6.801  38.614  1.00  0.00     0.118 A 
HETATM   26  N10 UNL     1     -39.304  -6.182  37.476  1.00  0.00    -0.372 N 
HETATM   27  C12 UNL     1     -38.030  -6.204  37.047  1.00  0.00     0.104 A 
ATOM     28  H10 UNL     1     -40.009  -5.688  36.930  1.00  0.00     0.164 HD
HETATM   29  C13 UNL     1     -37.119  -6.887  37.825  1.00  0.00     0.105 A 
HETATM   30  N11 UNL     1     -37.480  -7.506  38.962  1.00  0.00    -0.363 N 
ATOM     31  H11 UNL     1     -36.773  -8.001  39.506  1.00  0.00     0.165 HD
ENDBRANCH  11  24
BRANCH   7  32
HETATM   32  N8  UNL     1     -39.617 -11.488  41.789  1.00  0.00    -0.384 N 
ATOM     33  H82 UNL     1     -39.878 -11.976  42.646  1.00  0.00     0.157 HD
ATOM     34  H81 UNL     1     -39.388 -12.029  40.955  1.00  0.00     0.157 HD
ENDBRANCH   7  32
TORSDOF 5
ENDMDL
MODEL 2
REMARK VINA RESULT: -2.096318386      1.767      7.153
REMARK  5 active torsions:
REMARK  status: ('A' for Active; 'I' for Inactive)
REMARK    1  A    between atoms: C3_4  and  N2_5 
REMARK    2  A    between atoms: N2_5  and  N3_7 
REMARK    3  A    between atoms: N3_7  and  C4_9 
REMARK    4  A    between atoms: C6_19  and  N8_20 
REMARK    5  A    between atoms: C9_26  and  C10_27 
ROOT
HETATM    1  N1  UNL     1     -39.093  -4.820  41.793  1.00  0.00    -0.191 NA
HETATM    2  C1  UNL     1     -39.134  -5.896  41.355  1.00  0.00     0.104 C 
HETATM    3  C2  UNL     1     -39.172  -7.219  40.798  1.00  0.00     0.104 A 
HETATM    4  C3  UNL     1     -38.946  -7.363  39.444  1.00  0.00     0.143 A 
HETATM    5  N7  UNL     1     -38.986  -8.611  38.941  1.00  0.00    -0.325 N 
ATOM      6  H7  UNL     1     -38.821  -8.742  37.943  1.00  0.00     0.169 HD
HETATM    7  C6  UNL     1     -39.236  -9.700  39.705  1.00  0.00     0.122 A 
HETATM    8  C7  UNL     1     -39.465  -9.540  41.079  1.00  0.00     0.102 A 
HETATM    9  C8  UNL     1     -39.732 -10.675  41.922  1.00  0.00     0.104 C 
HETATM   10  N9  UNL     1     -39.958 -11.608  42.594  1.00  0.00    -0.191 NA
HETATM   11  C9  UNL     1     -39.432  -8.280  41.631  1.00  0.00     0.041 A 
ENDROOT
BRANCH   4  12
HETATM   12  N2  UNL     1     -38.680  -6.243  38.610  1.00  0.00    -0.282 N 
ATOM     13  H2  UNL     1     -38.788  -5.307  39.001  1.00  0.00     0.188 HD
BRANCH  12  14
HETATM   14  N3  UNL     1     -38.279  -6.368  37.281  1.00  0.00    -0.282 N 
ATOM     15  H3  UNL     1     -38.990  -6.495  36.560  1.00  0.00     0.188 HD
BRANCH  14  16
HETATM   16  C4  UNL     1     -37.026  -6.329  36.930  1.00  0.00     0.153 A 
HETATM   17  C5  UNL     1     -35.910  -6.395  37.723  1.00  0.00     0.159 A 
HETATM   18  N4  UNL     1     -34.850  -6.314  36.904  1.00  0.00    -0.294 N 
HETATM   19  N5  UNL     1     -35.274  -6.202  35.656  1.00  0.00    -0.241 N 
ATOM     20  H4  UNL     1     -33.873  -6.336  37.197  1.00  0.00     0.187 HD
HETATM   21  N6  UNL     1     -36.593  -6.210  35.667  1.00  0.00    -0.269 N 
ATOM     22  H5  UNL     1     -34.684  -6.121  34.828  1.00  0.00     0.208 HD
ATOM     23  H6  UNL     1     -37.190  -6.138  34.843  1.00  0.00     0.190 HD
ENDBRANCH  14  16
ENDBRANCH  12  14
ENDBRANCH   4  12
BRANCH  11  24
HETATM   24  C10 UNL     1     -39.673  -8.147  43.060  1.00  0.00     0.061 A 
HETATM   25  C11 UNL     1     -38.747  -8.568  43.994  1.00  0.00     0.118 A 
HETATM   26  N10 UNL     1     -38.952  -8.454  45.317  1.00  0.00    -0.372 N 
HETATM   27  C12 UNL     1     -40.087  -7.916  45.797  1.00  0.00     0.104 A 
ATOM     28  H10 UNL     1     -38.237  -8.781  45.967  1.00  0.00     0.164 HD
HETATM   29  C13 UNL     1     -41.018  -7.492  44.874  1.00  0.00     0.105 A 
HETATM   30  N11 UNL     1     -40.811  -7.607  43.551  1.00  0.00    -0.363 N 
ATOM     31  H11 UNL     1     -41.528  -7.281  42.904  1.00  0.00     0.165 HD
ENDBRANCH  11  24
BRANCH   7  32
HETATM   32  N8  UNL     1     -39.274 -10.896  39.223  1.00  0.00    -0.384 N 
ATOM     33  H82 UNL     1     -38.596 -11.141  38.502  1.00  0.00     0.157 HD
ATOM     34  H81 UNL     1     -39.950 -11.594  39.534  1.00  0.00     0.157 HD
ENDBRANCH   7  32
TORSDOF 5
ENDMDL
MODEL 3
REMARK VINA RESULT: -2.066195489      3.386      6.070
REMARK  5 active torsions:
REMARK  status: ('A' for Active; 'I' for Inactive)
REMARK    1  A    between atoms: C3_4  and  N2_5 
REMARK    2  A    between atoms: N2_5  and  N3_7 
REMARK    3  A    between atoms: N3_7  and  C4_9 
REMARK    4  A    between atoms: C6_19  and  N8_20 
REMARK    5  A    between atoms: C9_26  and  C10_27 
ROOT
HETATM    1  N1  UNL     1     -37.568  -7.314  40.600  1.00  0.00    -0.191 NA
HETATM    2  C1  UNL     1     -37.680  -6.906  39.517  1.00  0.00     0.104 C 
HETATM    3  C2  UNL     1     -37.838  -6.392  38.186  1.00  0.00     0.104 A 
HETATM    4  C3  UNL     1     -39.115  -6.125  37.737  1.00  0.00     0.143 A 
HETATM    5  N7  UNL     1     -39.242  -5.644  36.486  1.00  0.00    -0.325 N 
ATOM      6  H7  UNL     1     -40.177  -5.440  36.133  1.00  0.00     0.169 HD
HETATM    7  C6  UNL     1     -38.180  -5.421  35.677  1.00  0.00     0.122 A 
HETATM    8  C7  UNL     1     -36.888  -5.697  36.145  1.00  0.00     0.102 A 
HETATM    9  C8  UNL     1     -35.735  -5.471  35.314  1.00  0.00     0.104 C 
HETATM   10  N9  UNL     1     -34.808  -5.291  34.621  1.00  0.00    -0.191 NA
HETATM   11  C9  UNL     1     -36.717  -6.189  37.419  1.00  0.00     0.041 A 
ENDROOT
BRANCH   4  12
HETATM   12  N2  UNL     1     -40.255  -6.347  38.557  1.00  0.00    -0.282 N 
ATOM     13  H2  UNL     1     -40.763  -5.538  38.916  1.00  0.00     0.188 HD
BRANCH  12  14
HETATM   14  N3  UNL     1     -40.708  -7.622  38.894  1.00  0.00    -0.282 N 
ATOM     15  H3  UNL     1     -41.247  -8.151  38.208  1.00  0.00     0.188 HD
BRANCH  14  16
HETATM   16  C4  UNL     1     -40.466  -8.158  40.055  1.00  0.00     0.153 A 
HETATM   17  C5  UNL     1     -40.173  -9.463  40.353  1.00  0.00     0.159 A 
HETATM   18  N4  UNL     1     -40.005  -9.527  41.683  1.00  0.00    -0.294 N 
HETATM   19  N5  UNL     1     -40.184  -8.322  42.200  1.00  0.00    -0.241 N 
ATOM     20  H4  UNL     1     -39.776 -10.369  42.211  1.00  0.00     0.187 HD
HETATM   21  N6  UNL     1     -40.463  -7.489  41.216  1.00  0.00    -0.269 N 
ATOM     22  H5  UNL     1     -40.117  -8.079  43.188  1.00  0.00     0.208 HD
ATOM     23  H6  UNL     1     -40.649  -6.492  41.323  1.00  0.00     0.190 HD
ENDBRANCH  14  16
ENDBRANCH  12  14
ENDBRANCH   4  12
BRANCH  11  24
HETATM   24  C10 UNL     1     -35.363  -6.465  37.875  1.00  0.00     0.061 A 
HETATM   25  C11 UNL     1     -34.932  -6.090  39.133  1.00  0.00     0.118 A 
HETATM   26  N10 UNL     1     -33.685  -6.336  39.571  1.00  0.00    -0.372 N 
HETATM   27  C12 UNL     1     -32.789  -6.967  38.792  1.00  0.00     0.104 A 
ATOM     28  H10 UNL     1     -33.414  -6.039  40.509  1.00  0.00     0.164 HD
HETATM   29  C13 UNL     1     -33.209  -7.345  37.535  1.00  0.00     0.105 A 
HETATM   30  N11 UNL     1     -34.456  -7.098  37.099  1.00  0.00    -0.363 N 
ATOM     31  H11 UNL     1     -34.723  -7.395  36.161  1.00  0.00     0.165 HD
ENDBRANCH  11  24
BRANCH   7  32
HETATM   32  N8  UNL     1     -38.301  -4.960  34.478  1.00  0.00    -0.384 N 
ATOM     33  H82 UNL     1     -37.557  -4.363  34.119  1.00  0.00     0.157 HD
ATOM     34  H81 UNL     1     -39.105  -5.171  33.885  1.00  0.00     0.157 HD
ENDBRANCH   7  32
TORSDOF 5
ENDMDL
MODEL 4
REMARK VINA RESULT: -1.112357012      0.734      1.256
REMARK  5 active torsions:
REMARK  status: ('A' for Active; 'I' for Inactive)
REMARK    1  A    between atoms: C3_4  and  N2_5 
REMARK    2  A    between atoms: N2_5  and  N3_7 
REMARK    3  A    between atoms: N3_7  and  C4_9 
REMARK    4  A    between atoms: C6_19  and  N8_20 
REMARK    5  A    between atoms: C9_26  and  C10_27 
ROOT
HETATM    1  N1  UNL     1     -39.320  -5.090  42.040  1.00  0.00    -0.191 NA
HETATM    2  C1  UNL     1     -39.353  -6.250  41.969  1.00  0.00     0.104 C 
HETATM    3  C2  UNL     1     -39.406  -7.683  41.898  1.00  0.00     0.104 A 
HETATM    4  C3  UNL     1     -39.694  -8.383  43.052  1.00  0.00     0.143 A 
HETATM    5  N7  UNL     1     -39.739  -9.726  42.965  1.00  0.00    -0.325 N 
ATOM      6  H7  UNL     1     -39.950 -10.263  43.805  1.00  0.00     0.169 HD
HETATM    7  C6  UNL     1     -39.517 -10.392  41.807  1.00  0.00     0.122 A 
HETATM    8  C7  UNL     1     -39.225  -9.669  40.642  1.00  0.00     0.102 A 
HETATM    9  C8  UNL     1     -38.984 -10.343  39.394  1.00  0.00     0.104 C 
HETATM   10  N9  UNL     1     -38.781 -10.906  38.387  1.00  0.00    -0.191 NA
HETATM   11  C9  UNL     1     -39.170  -8.294  40.690  1.00  0.00     0.041 A 
ENDROOT
BRANCH   4  12
HETATM   12  N2  UNL     1     -39.933  -7.719  44.286  1.00  0.00    -0.282 N 
ATOM     13  H2  UNL     1     -39.135  -7.486  44.877  1.00  0.00     0.188 HD
BRANCH  12  14
HETATM   14  N3  UNL     1     -41.211  -7.372  44.722  1.00  0.00    -0.282 N 
ATOM     15  H3  UNL     1     -41.983  -7.394  44.057  1.00  0.00     0.188 HD
BRANCH  14  16
HETATM   16  C4  UNL     1     -41.449  -7.019  45.952  1.00  0.00     0.153 A 
HETATM   17  C5  UNL     1     -41.178  -7.703  47.109  1.00  0.00     0.159 A 
HETATM   18  N4  UNL     1     -41.608  -6.934  48.122  1.00  0.00    -0.294 N 
HETATM   19  N5  UNL     1     -42.126  -5.820  47.629  1.00  0.00    -0.241 N 
ATOM     20  H4  UNL     1     -41.546  -7.170  49.112  1.00  0.00     0.187 HD
HETATM   21  N6  UNL     1     -42.031  -5.868  46.315  1.00  0.00    -0.269 N 
ATOM     22  H5  UNL     1     -42.529  -5.057  48.172  1.00  0.00     0.208 HD
ATOM     23  H6  UNL     1     -42.351  -5.142  45.674  1.00  0.00     0.190 HD
ENDBRANCH  14  16
ENDBRANCH  12  14
ENDBRANCH   4  12
BRANCH  11  24
HETATM   24  C10 UNL     1     -38.866  -7.573  39.464  1.00  0.00     0.061 A 
HETATM   25  C11 UNL     1     -37.568  -7.419  39.016  1.00  0.00     0.118 A 
HETATM   26  N10 UNL     1     -37.269  -6.755  37.886  1.00  0.00    -0.372 N 
HETATM   27  C12 UNL     1     -38.234  -6.204  37.130  1.00  0.00     0.104 A 
ATOM     28  H10 UNL     1     -36.294  -6.669  37.598  1.00  0.00     0.164 HD
HETATM   29  C13 UNL     1     -39.533  -6.351  37.568  1.00  0.00     0.105 A 
HETATM   30  N11 UNL     1     -39.830  -7.015  38.698  1.00  0.00    -0.363 N 
ATOM     31  H11 UNL     1     -40.805  -7.099  38.985  1.00  0.00     0.165 HD
ENDBRANCH  11  24
BRANCH   7  32
HETATM   32  N8  UNL     1     -39.560 -11.678  41.724  1.00  0.00    -0.384 N 
ATOM     33  H82 UNL     1     -40.415 -12.104  41.366  1.00  0.00     0.157 HD
ATOM     34  H81 UNL     1     -38.779 -12.275  41.998  1.00  0.00     0.157 HD
ENDBRANCH   7  32
TORSDOF 5
ENDMDL
MODEL 5
REMARK VINA RESULT: -0.625725505      1.733      7.257
REMARK  5 active torsions:
REMARK  status: ('A' for Active; 'I' for Inactive)
REMARK    1  A    between atoms: C3_4  and  N2_5 
REMARK    2  A    between atoms: N2_5  and  N3_7 
REMARK    3  A    between atoms: N3_7  and  C4_9 
REMARK    4  A    between atoms: C6_19  and  N8_20 
REMARK    5  A    between atoms: C9_26  and  C10_27 
ROOT
HETATM    1  N1  UNL     1     -38.945  -5.086  41.515  1.00  0.00    -0.191 NA
HETATM    2  C1  UNL     1     -39.046  -6.191  41.167  1.00  0.00     0.104 C 
HETATM    3  C2  UNL     1     -39.156  -7.551  40.722  1.00  0.00     0.104 A 
HETATM    4  C3  UNL     1     -38.850  -7.834  39.407  1.00  0.00     0.143 A 
HETATM    5  N7  UNL     1     -38.960  -9.116  39.010  1.00  0.00    -0.325 N 
ATOM      6  H7  UNL     1     -38.739  -9.348  38.042  1.00  0.00     0.169 HD
HETATM    7  C6  UNL     1     -39.352 -10.109  39.842  1.00  0.00     0.122 A 
HETATM    8  C7  UNL     1     -39.661  -9.808  41.175  1.00  0.00     0.102 A 
HETATM    9  C8  UNL     1     -40.080 -10.838  42.089  1.00  0.00     0.104 C 
HETATM   10  N9  UNL     1     -40.429 -11.686  42.818  1.00  0.00    -0.191 NA
HETATM   11  C9  UNL     1     -39.560  -8.509  41.620  1.00  0.00     0.041 A 
ENDROOT
BRANCH   4  12
HETATM   12  N2  UNL     1     -38.435  -6.818  38.504  1.00  0.00    -0.282 N 
ATOM     13  H2  UNL     1     -38.807  -5.876  38.625  1.00  0.00     0.188 HD
BRANCH  12  14
HETATM   14  N3  UNL     1     -37.541  -7.053  37.460  1.00  0.00    -0.282 N 
ATOM     15  H3  UNL     1     -37.042  -7.942  37.427  1.00  0.00     0.188 HD
BRANCH  14  16
HETATM   16  C4  UNL     1     -37.322  -6.174  36.526  1.00  0.00     0.153 A 
HETATM   17  C5  UNL     1     -38.190  -5.692  35.580  1.00  0.00     0.159 A 
HETATM   18  N4  UNL     1     -37.504  -4.806  34.842  1.00  0.00    -0.294 N 
HETATM   19  N5  UNL     1     -36.264  -4.731  35.298  1.00  0.00    -0.241 N 
ATOM     20  H4  UNL     1     -37.878  -4.274  34.056  1.00  0.00     0.187 HD
HETATM   21  N6  UNL     1     -36.150  -5.559  36.319  1.00  0.00    -0.269 N 
ATOM     22  H5  UNL     1     -35.524  -4.137  34.925  1.00  0.00     0.208 HD
ATOM     23  H6  UNL     1     -35.301  -5.707  36.865  1.00  0.00     0.190 HD
ENDBRANCH  14  16
ENDBRANCH  12  14
ENDBRANCH   4  12
BRANCH  11  24
HETATM   24  C10 UNL     1     -39.887  -8.229  43.010  1.00  0.00     0.061 A 
HETATM   25  C11 UNL     1     -39.185  -8.806  44.051  1.00  0.00     0.118 A 
HETATM   26  N10 UNL     1     -39.473  -8.560  45.340  1.00  0.00    -0.372 N 
HETATM   27  C12 UNL     1     -40.473  -7.728  45.679  1.00  0.00     0.104 A 
ATOM     28  H10 UNL     1     -38.925  -9.011  46.072  1.00  0.00     0.164 HD
HETATM   29  C13 UNL     1     -41.181  -7.147  44.649  1.00  0.00     0.105 A 
HETATM   30  N11 UNL     1     -40.891  -7.395  43.360  1.00  0.00    -0.363 N 
ATOM     31  H11 UNL     1     -41.442  -6.944  42.630  1.00  0.00     0.165 HD
ENDBRANCH  11  24
BRANCH   7  32
HETATM   32  N8  UNL     1     -39.457 -11.336  39.461  1.00  0.00    -0.384 N 
ATOM     33  H82 UNL     1     -40.240 -11.882  39.821  1.00  0.00     0.157 HD
ATOM     34  H81 UNL     1     -38.795 -11.774  38.820  1.00  0.00     0.157 HD
ENDBRANCH   7  32
TORSDOF 5
ENDMDL
