MODEL 1
REMARK VINA RESULT: -6.209710981      0.000      0.000
REMARK  2 active torsions:
REMARK  status: ('A' for Active; 'I' for Inactive)
REMARK    1  A    between atoms: N1_2  and  C2_4 
REMARK    2  A    between atoms: N2_5  and  C3_7 
ROOT
HETATM    1  C3  UNL     1      29.888 -14.676   4.890  1.00  0.00     0.137 C 
HETATM    2  C4  UNL     1      30.339 -13.336   4.296  1.00  0.00     0.131 C 
HETATM    3 CL1  UNL     1      29.274 -12.798   3.011  1.00  0.00    -0.121 Cl
HETATM    4  C5  UNL     1      31.753 -13.492   3.967  1.00  0.00     0.058 C 
HETATM    5 CL2  UNL     1      32.646 -12.033   4.552  1.00  0.00    -0.117 Cl
HETATM    6  C6  UNL     1      32.186 -13.730   2.599  1.00  0.00     0.027 C 
HETATM    7  C7  UNL     1      31.479 -14.628   1.693  1.00  0.00     0.002 C 
HETATM    8  C8  UNL     1      30.881 -15.871   2.200  1.00  0.00     0.010 C 
HETATM    9  C9  UNL     1      31.334 -16.323   3.521  1.00  0.00     0.046 C 
HETATM   10  C10 UNL     1      30.608 -17.363   4.261  1.00  0.00     0.176 C 
HETATM   11  O1  UNL     1      31.033 -16.718   5.452  1.00  0.00    -0.377 OA
HETATM   12  C11 UNL     1      31.022 -15.555   4.703  1.00  0.00     0.090 C 
HETATM   13  C12 UNL     1      32.206 -14.603   4.936  1.00  0.00     0.068 C 
ENDROOT
BRANCH   1  14
HETATM   14  N2  UNL     1      28.623 -15.049   4.349  1.00  0.00    -0.377 N 
HETATM   15  C2  UNL     1      27.568 -14.915   5.091  1.00  0.00     0.171 C 
ATOM     16  H2  UNL     1      28.550 -15.412   3.399  1.00  0.00     0.160 HD
BRANCH  15  17
HETATM   17  N1  UNL     1      26.284 -15.262   4.626  1.00  0.00    -0.391 N 
HETATM   18  C1  UNL     1      25.123 -14.547   5.079  1.00  0.00     0.147 C 
ATOM     19  H1  UNL     1      26.178 -16.029   3.962  1.00  0.00     0.159 HD
ENDBRANCH  15  17
ENDBRANCH   1  14
TORSDOF 2
ENDMDL
MODEL 2
REMARK VINA RESULT: -6.154075705      1.598      2.074
REMARK  2 active torsions:
REMARK  status: ('A' for Active; 'I' for Inactive)
REMARK    1  A    between atoms: N1_2  and  C2_4 
REMARK    2  A    between atoms: N2_5  and  C3_7 
ROOT
HETATM    1  C3  UNL     1      30.075 -13.419   4.078  1.00  0.00     0.137 C 
HETATM    2  C4  UNL     1      30.998 -13.439   2.853  1.00  0.00     0.131 C 
HETATM    3 CL1  UNL     1      30.469 -14.603   1.654  1.00  0.00    -0.121 Cl
HETATM    4  C5  UNL     1      32.356 -13.587   3.370  1.00  0.00     0.058 C 
HETATM    5 CL2  UNL     1      33.428 -12.407   2.518  1.00  0.00    -0.117 Cl
HETATM    6  C6  UNL     1      33.037 -14.872   3.342  1.00  0.00     0.027 C 
HETATM    7  C7  UNL     1      32.366 -16.127   3.660  1.00  0.00     0.002 C 
HETATM    8  C8  UNL     1      31.353 -16.176   4.724  1.00  0.00     0.010 C 
HETATM    9  C9  UNL     1      31.326 -15.040   5.654  1.00  0.00     0.046 C 
HETATM   10  C10 UNL     1      30.191 -14.823   6.559  1.00  0.00     0.176 C 
HETATM   11  O1  UNL     1      30.461 -13.432   6.454  1.00  0.00    -0.377 OA
HETATM   12  C11 UNL     1      30.945 -13.727   5.192  1.00  0.00     0.090 C 
HETATM   13  C12 UNL     1      32.242 -13.005   4.793  1.00  0.00     0.068 C 
ENDROOT
BRANCH   1  14
HETATM   14  N2  UNL     1      28.933 -14.238   3.842  1.00  0.00    -0.377 N 
HETATM   15  C2  UNL     1      27.795 -13.875   4.346  1.00  0.00     0.171 C 
ATOM     16  H2  UNL     1      29.009 -15.091   3.287  1.00  0.00     0.160 HD
BRANCH  15  17
HETATM   17  N1  UNL     1      26.622 -14.633   4.156  1.00  0.00    -0.391 N 
HETATM   18  C1  UNL     1      25.540 -14.559   5.099  1.00  0.00     0.147 C 
ATOM     19  H1  UNL     1      26.541 -15.241   3.341  1.00  0.00     0.159 HD
ENDBRANCH  15  17
ENDBRANCH   1  14
TORSDOF 2
ENDMDL
MODEL 3
REMARK VINA RESULT: -6.102089178      1.945      2.274
REMARK  2 active torsions:
REMARK  status: ('A' for Active; 'I' for Inactive)
REMARK    1  A    between atoms: N1_2  and  C2_4 
REMARK    2  A    between atoms: N2_5  and  C3_7 
ROOT
HETATM    1  C3  UNL     1      29.979 -14.525   4.974  1.00  0.00     0.137 C 
HETATM    2  C4  UNL     1      29.932 -13.268   4.097  1.00  0.00     0.131 C 
HETATM    3 CL1  UNL     1      29.549 -13.648   2.429  1.00  0.00    -0.121 Cl
HETATM    4  C5  UNL     1      31.180 -12.551   4.348  1.00  0.00     0.058 C 
HETATM    5 CL2  UNL     1      30.800 -10.800   4.587  1.00  0.00    -0.117 Cl
HETATM    6  C6  UNL     1      32.288 -12.617   3.408  1.00  0.00     0.027 C 
HETATM    7  C7  UNL     1      32.681 -13.852   2.738  1.00  0.00     0.002 C 
HETATM    8  C8  UNL     1      32.618 -15.134   3.454  1.00  0.00     0.010 C 
HETATM    9  C9  UNL     1      32.506 -15.063   4.916  1.00  0.00     0.046 C 
HETATM   10  C10 UNL     1      32.136 -16.240   5.710  1.00  0.00     0.176 C 
HETATM   11  O1  UNL     1      31.525 -15.346   6.628  1.00  0.00    -0.377 OA
HETATM   12  C11 UNL     1      31.314 -14.529   5.531  1.00  0.00     0.090 C 
HETATM   13  C12 UNL     1      31.569 -13.030   5.760  1.00  0.00     0.068 C 
ENDROOT
BRANCH   1  14
HETATM   14  N2  UNL     1      29.534 -15.656   4.230  1.00  0.00    -0.377 N 
HETATM   15  C2  UNL     1      28.927 -16.613   4.860  1.00  0.00     0.171 C 
ATOM     16  H2  UNL     1      29.689 -15.712   3.223  1.00  0.00     0.160 HD
BRANCH  15  17
HETATM   17  N1  UNL     1      28.458 -17.762   4.193  1.00  0.00    -0.391 N 
HETATM   18  C1  UNL     1      28.696 -19.072   4.735  1.00  0.00     0.147 C 
ATOM     19  H1  UNL     1      27.945 -17.663   3.317  1.00  0.00     0.159 HD
ENDBRANCH  15  17
ENDBRANCH   1  14
TORSDOF 2
ENDMDL
MODEL 4
REMARK VINA RESULT: -6.052887328      2.872      4.894
REMARK  2 active torsions:
REMARK  status: ('A' for Active; 'I' for Inactive)
REMARK    1  A    between atoms: N1_2  and  C2_4 
REMARK    2  A    between atoms: N2_5  and  C3_7 
ROOT
HETATM    1  C3  UNL     1      31.187 -13.061   3.714  1.00  0.00     0.137 C 
HETATM    2  C4  UNL     1      30.745 -13.007   5.182  1.00  0.00     0.131 C 
HETATM    3 CL1  UNL     1      32.113 -12.917   6.274  1.00  0.00    -0.121 Cl
HETATM    4  C5  UNL     1      29.816 -14.119   5.368  1.00  0.00     0.058 C 
HETATM    5 CL2  UNL     1      28.376 -13.520   6.282  1.00  0.00    -0.117 Cl
HETATM    6  C6  UNL     1      30.239 -15.354   6.011  1.00  0.00     0.027 C 
HETATM    7  C7  UNL     1      31.535 -15.973   5.754  1.00  0.00     0.002 C 
HETATM    8  C8  UNL     1      32.112 -15.946   4.402  1.00  0.00     0.010 C 
HETATM    9  C9  UNL     1      31.195 -15.613   3.305  1.00  0.00     0.046 C 
HETATM   10  C10 UNL     1      31.699 -15.262   1.972  1.00  0.00     0.176 C 
HETATM   11  O1  UNL     1      30.557 -14.428   1.835  1.00  0.00    -0.377 OA
HETATM   12  C11 UNL     1      30.620 -14.293   3.210  1.00  0.00     0.090 C 
HETATM   13  C12 UNL     1      29.270 -14.347   3.945  1.00  0.00     0.068 C 
ENDROOT
BRANCH   1  14
HETATM   14  N2  UNL     1      32.594 -12.856   3.620  1.00  0.00    -0.377 N 
HETATM   15  C2  UNL     1      33.029 -11.844   2.936  1.00  0.00     0.171 C 
ATOM     16  H2  UNL     1      33.245 -13.492   4.082  1.00  0.00     0.160 HD
BRANCH  15  17
HETATM   17  N1  UNL     1      34.405 -11.577   2.798  1.00  0.00    -0.391 N 
HETATM   18  C1  UNL     1      35.150 -12.117   1.694  1.00  0.00     0.147 C 
ATOM     19  H1  UNL     1      34.878 -10.994   3.489  1.00  0.00     0.159 HD
ENDBRANCH  15  17
ENDBRANCH   1  14
TORSDOF 2
ENDMDL
MODEL 5
REMARK VINA RESULT: -6.013897311      1.033      1.136
REMARK  2 active torsions:
REMARK  status: ('A' for Active; 'I' for Inactive)
REMARK    1  A    between atoms: N1_2  and  C2_4 
REMARK    2  A    between atoms: N2_5  and  C3_7 
ROOT
HETATM    1  C3  UNL     1      29.942 -13.748   4.869  1.00  0.00     0.137 C 
HETATM    2  C4  UNL     1      30.363 -12.816   3.726  1.00  0.00     0.131 C 
HETATM    3 CL1  UNL     1      29.510 -13.180   2.238  1.00  0.00    -0.121 Cl
HETATM    4  C5  UNL     1      31.822 -12.856   3.684  1.00  0.00     0.058 C 
HETATM    5 CL2  UNL     1      32.441 -11.165   3.532  1.00  0.00    -0.117 Cl
HETATM    6  C6  UNL     1      32.525 -13.653   2.690  1.00  0.00     0.027 C 
HETATM    7  C7  UNL     1      32.091 -14.990   2.301  1.00  0.00     0.002 C 
HETATM    8  C8  UNL     1      31.534 -15.908   3.305  1.00  0.00     0.010 C 
HETATM    9  C9  UNL     1      31.774 -15.564   4.712  1.00  0.00     0.046 C 
HETATM   10  C10 UNL     1      31.029 -16.218   5.794  1.00  0.00     0.176 C 
HETATM   11  O1  UNL     1      31.157 -15.006   6.524  1.00  0.00    -0.377 OA
HETATM   12  C11 UNL     1      31.172 -14.385   5.287  1.00  0.00     0.090 C 
HETATM   13  C12 UNL     1      32.192 -13.246   5.129  1.00  0.00     0.068 C 
ENDROOT
BRANCH   1  14
HETATM   14  N2  UNL     1      28.844 -14.558   4.460  1.00  0.00    -0.377 N 
HETATM   15  C2  UNL     1      27.655 -14.247   4.872  1.00  0.00     0.171 C 
ATOM     16  H2  UNL     1      28.991 -15.366   3.854  1.00  0.00     0.160 HD
BRANCH  15  17
HETATM   17  N1  UNL     1      26.522 -15.000   4.510  1.00  0.00    -0.391 N 
HETATM   18  C1  UNL     1      25.223 -14.666   5.028  1.00  0.00     0.147 C 
ATOM     19  H1  UNL     1      26.623 -15.791   3.873  1.00  0.00     0.159 HD
ENDBRANCH  15  17
ENDBRANCH   1  14
TORSDOF 2
ENDMDL
