MODEL 1
REMARK VINA RESULT: -4.406431815      0.000      0.000
REMARK  2 active torsions:
REMARK  status: ('A' for Active; 'I' for Inactive)
REMARK    1  A    between atoms: S1_2  and  C2_3 
REMARK    2  A    between atoms: C4_10  and  C5_11 
ROOT
HETATM    1  C2  UNL     1      32.351 -12.495   4.349  1.00  0.00     0.095 A 
HETATM    2  N1  UNL     1      32.600 -11.190   4.148  1.00  0.00    -0.329 N 
ATOM      3  H1  UNL     1      32.341 -10.431   4.778  1.00  0.00     0.168 HD
HETATM    4  C3  UNL     1      33.255 -11.050   2.961  1.00  0.00     0.154 A 
HETATM    5 BR1  UNL     1      33.826  -9.389   2.229  1.00  0.00    -0.010 Br
HETATM    6  N2  UNL     1      33.414 -12.267   2.421  1.00  0.00    -0.337 N 
ATOM      7  H2  UNL     1      33.869 -12.478   1.533  1.00  0.00     0.168 HD
HETATM    8  C4  UNL     1      32.869 -13.153   3.257  1.00  0.00     0.055 A 
ENDROOT
BRANCH   1   9
HETATM    9  S1  UNL     1      31.520 -13.206   5.766  1.00  0.00    -0.115 SA
HETATM   10  C1  UNL     1      29.769 -13.553   5.331  1.00  0.00     0.097 C 
ENDBRANCH   1   9
BRANCH   8  11
HETATM   11  C5  UNL     1      32.819 -14.619   3.061  1.00  0.00     0.145 C 
HETATM   12 BR2  UNL     1      31.361 -15.131   1.901  1.00  0.00    -0.090 Br
ENDBRANCH   8  11
TORSDOF 2
ENDMDL
MODEL 2
REMARK VINA RESULT: -4.394848520      1.463      1.550
REMARK  2 active torsions:
REMARK  status: ('A' for Active; 'I' for Inactive)
REMARK    1  A    between atoms: S1_2  and  C2_3 
REMARK    2  A    between atoms: C4_10  and  C5_11 
ROOT
HETATM    1  C2  UNL     1      32.928 -12.716   3.531  1.00  0.00     0.095 A 
HETATM    2  N1  UNL     1      33.776 -11.764   3.106  1.00  0.00    -0.329 N 
ATOM      3  H1  UNL     1      33.869 -10.828   3.503  1.00  0.00     0.168 HD
HETATM    4  C3  UNL     1      34.490 -12.256   2.054  1.00  0.00     0.154 A 
HETATM    5 BR1  UNL     1      35.822 -11.288   1.102  1.00  0.00    -0.010 Br
HETATM    6  N2  UNL     1      34.087 -13.514   1.824  1.00  0.00    -0.337 N 
ATOM      7  H2  UNL     1      34.442 -14.137   1.098  1.00  0.00     0.168 HD
HETATM    8  C4  UNL     1      33.139 -13.803   2.716  1.00  0.00     0.055 A 
ENDROOT
BRANCH   1   9
HETATM    9  S1  UNL     1      31.775 -12.570   4.893  1.00  0.00    -0.115 SA
HETATM   10  C1  UNL     1      30.062 -12.502   4.232  1.00  0.00     0.097 C 
ENDBRANCH   1   9
BRANCH   8  11
HETATM   11  C5  UNL     1      32.413 -15.089   2.830  1.00  0.00     0.145 C 
HETATM   12 BR2  UNL     1      31.035 -15.247   1.486  1.00  0.00    -0.090 Br
ENDBRANCH   8  11
TORSDOF 2
ENDMDL
MODEL 3
REMARK VINA RESULT: -4.393600173      2.434      2.981
REMARK  2 active torsions:
REMARK  status: ('A' for Active; 'I' for Inactive)
REMARK    1  A    between atoms: S1_2  and  C2_3 
REMARK    2  A    between atoms: C4_10  and  C5_11 
ROOT
HETATM    1  C2  UNL     1      33.205 -13.870   3.123  1.00  0.00     0.095 A 
HETATM    2  N1  UNL     1      34.165 -13.630   2.214  1.00  0.00    -0.329 N 
ATOM      3  H1  UNL     1      34.626 -14.332   1.635  1.00  0.00     0.168 HD
HETATM    4  C3  UNL     1      34.422 -12.291   2.196  1.00  0.00     0.154 A 
HETATM    5 BR1  UNL     1      35.706 -11.449   1.074  1.00  0.00    -0.010 Br
HETATM    6  N2  UNL     1      33.621 -11.697   3.094  1.00  0.00    -0.337 N 
ATOM      7  H2  UNL     1      33.588 -10.700   3.304  1.00  0.00     0.168 HD
HETATM    8  C4  UNL     1      32.878 -12.648   3.662  1.00  0.00     0.055 A 
ENDROOT
BRANCH   1   9
HETATM    9  S1  UNL     1      32.506 -15.469   3.522  1.00  0.00    -0.115 SA
HETATM   10  C1  UNL     1      30.989 -15.735   2.522  1.00  0.00     0.097 C 
ENDBRANCH   1   9
BRANCH   8  11
HETATM   11  C5  UNL     1      31.853 -12.442   4.711  1.00  0.00     0.145 C 
HETATM   12 BR2  UNL     1      30.844 -10.822   4.409  1.00  0.00    -0.090 Br
ENDBRANCH   8  11
TORSDOF 2
ENDMDL
MODEL 4
REMARK VINA RESULT: -4.367623670      2.632      3.566
REMARK  2 active torsions:
REMARK  status: ('A' for Active; 'I' for Inactive)
REMARK    1  A    between atoms: S1_2  and  C2_3 
REMARK    2  A    between atoms: C4_10  and  C5_11 
ROOT
HETATM    1  C2  UNL     1      33.294 -11.783   3.011  1.00  0.00     0.095 A 
HETATM    2  N1  UNL     1      33.018 -10.476   2.865  1.00  0.00    -0.329 N 
ATOM      3  H1  UNL     1      33.559  -9.812   2.310  1.00  0.00     0.168 HD
HETATM    4  C3  UNL     1      31.896 -10.185   3.582  1.00  0.00     0.154 A 
HETATM    5 BR1  UNL     1      31.100  -8.461   3.696  1.00  0.00    -0.010 Br
HETATM    6  N2  UNL     1      31.473 -11.310   4.177  1.00  0.00    -0.337 N 
ATOM      7  H2  UNL     1      30.656 -11.402   4.780  1.00  0.00     0.168 HD
HETATM    8  C4  UNL     1      32.314 -12.287   3.836  1.00  0.00     0.055 A 
ENDROOT
BRANCH   1   9
HETATM    9  S1  UNL     1      34.661 -12.664   2.264  1.00  0.00    -0.115 SA
HETATM   10  C1  UNL     1      35.619 -11.510   1.203  1.00  0.00     0.097 C 
ENDBRANCH   1   9
BRANCH   8  11
HETATM   11  C5  UNL     1      32.227 -13.701   4.265  1.00  0.00     0.145 C 
HETATM   12 BR2  UNL     1      31.436 -13.863   6.020  1.00  0.00    -0.090 Br
ENDBRANCH   8  11
TORSDOF 2
ENDMDL
MODEL 5
REMARK VINA RESULT: -4.335416043      2.296      3.035
REMARK  2 active torsions:
REMARK  status: ('A' for Active; 'I' for Inactive)
REMARK    1  A    between atoms: S1_2  and  C2_3 
REMARK    2  A    between atoms: C4_10  and  C5_11 
ROOT
HETATM    1  C2  UNL     1      32.522 -12.531   3.847  1.00  0.00     0.095 A 
HETATM    2  N1  UNL     1      33.614 -12.816   3.117  1.00  0.00    -0.329 N 
ATOM      3  H1  UNL     1      34.060 -13.731   3.046  1.00  0.00     0.168 HD
HETATM    4  C3  UNL     1      34.028 -11.679   2.490  1.00  0.00     0.154 A 
HETATM    5 BR1  UNL     1      35.538 -11.564   1.339  1.00  0.00    -0.010 Br
HETATM    6  N2  UNL     1      33.194 -10.684   2.829  1.00  0.00    -0.337 N 
ATOM      7  H2  UNL     1      33.252  -9.716   2.514  1.00  0.00     0.168 HD
HETATM    8  C4  UNL     1      32.276 -11.191   3.652  1.00  0.00     0.055 A 
ENDROOT
BRANCH   1   9
HETATM    9  S1  UNL     1      31.593 -13.684   4.852  1.00  0.00    -0.115 SA
HETATM   10  C1  UNL     1      30.015 -14.092   4.005  1.00  0.00     0.097 C 
ENDBRANCH   1   9
BRANCH   8  11
HETATM   11  C5  UNL     1      31.155 -10.448   4.272  1.00  0.00     0.145 C 
HETATM   12 BR2  UNL     1      31.091  -8.618   3.655  1.00  0.00    -0.090 Br
ENDBRANCH   8  11
TORSDOF 2
ENDMDL
