MODEL 1
REMARK VINA RESULT: -7.314108352      0.000      0.000
REMARK  2 active torsions:
REMARK  status: ('A' for Active; 'I' for Inactive)
REMARK       I    between atoms: N1_2  and  C2_4 
REMARK    1  A    between atoms: C2_4  and  C3_6 
REMARK    2  A    between atoms: N2_10  and  C6_11 
ROOT
HETATM    1  C3  UNL     1      14.143 -10.243  21.198  1.00  0.00     0.186 C 
HETATM    2  F1  UNL     1      15.379 -10.586  21.657  1.00  0.00    -0.233 F 
HETATM    3  C4  UNL     1      13.252 -11.467  21.286  1.00  0.00     0.084 C 
HETATM    4  C5  UNL     1      13.361 -12.053  22.638  1.00  0.00     0.276 C 
HETATM    5  N2  UNL     1      13.910 -11.277  23.657  1.00  0.00     0.093 N 
HETATM    6  C14 UNL     1      13.860  -9.875  23.581  1.00  0.00     0.276 C 
HETATM    7  C15 UNL     1      13.536  -9.292  22.239  1.00  0.00     0.084 C 
ENDROOT
BRANCH   5   8
HETATM    8  C6  UNL     1      13.491 -11.740  24.963  1.00  0.00     0.223 C 
HETATM    9  C7  UNL     1      14.209 -11.080  26.092  1.00  0.00     0.036 C 
HETATM   10  C8  UNL     1      15.143 -12.037  26.820  1.00  0.00     0.011 C 
HETATM   11  C9  UNL     1      14.383 -13.176  27.455  1.00  0.00    -0.048 C 
HETATM   12  C10 UNL     1      13.843 -12.768  28.805  1.00  0.00     0.015 C 
HETATM   13  C11 UNL     1      15.256 -14.392  27.656  1.00  0.00     0.015 C 
HETATM   14  C12 UNL     1      13.236 -13.579  26.542  1.00  0.00     0.011 C 
HETATM   15  C13 UNL     1      13.648 -13.239  25.122  1.00  0.00     0.036 C 
ENDBRANCH   5   8
BRANCH   1  16
HETATM   16  C2  UNL     1      14.138  -9.623  19.879  1.00  0.00     0.257 C 
HETATM   17  N1  UNL     1      12.961  -9.614  19.098  1.00  0.00    -0.363 N 
HETATM   18  C1  UNL     1      12.920  -9.004  17.780  1.00  0.00     0.149 C 
ATOM     19  H1  UNL     1      12.116 -10.047  19.471  1.00  0.00     0.162 HD
HETATM   20  O1  UNL     1      15.170  -9.088  19.413  1.00  0.00    -0.270 OA
ENDBRANCH   1  16
TORSDOF 2
ENDMDL
MODEL 2
REMARK VINA RESULT: -7.154282128      2.649      3.528
REMARK  2 active torsions:
REMARK  status: ('A' for Active; 'I' for Inactive)
REMARK       I    between atoms: N1_2  and  C2_4 
REMARK    1  A    between atoms: C2_4  and  C3_6 
REMARK    2  A    between atoms: N2_10  and  C6_11 
ROOT
HETATM    1  C3  UNL     1      13.042 -10.365  19.398  1.00  0.00     0.186 C 
HETATM    2  F1  UNL     1      14.395 -10.289  19.256  1.00  0.00    -0.233 F 
HETATM    3  C4  UNL     1      12.636 -11.819  19.257  1.00  0.00     0.084 C 
HETATM    4  C5  UNL     1      13.482 -12.649  20.138  1.00  0.00     0.276 C 
HETATM    5  N2  UNL     1      14.205 -12.022  21.152  1.00  0.00     0.093 N 
HETATM    6  C14 UNL     1      13.764 -10.796  21.676  1.00  0.00     0.276 C 
HETATM    7  C15 UNL     1      12.738 -10.058  20.871  1.00  0.00     0.084 C 
ENDROOT
BRANCH   5   8
HETATM    8  C6  UNL     1      14.548 -12.945  22.212  1.00  0.00     0.223 C 
HETATM    9  C7  UNL     1      15.097 -14.244  21.725  1.00  0.00     0.036 C 
HETATM   10  C8  UNL     1      14.139 -15.403  21.969  1.00  0.00     0.011 C 
HETATM   11  C9  UNL     1      13.892 -15.614  23.443  1.00  0.00    -0.048 C 
HETATM   12  C10 UNL     1      14.984 -16.463  24.049  1.00  0.00     0.015 C 
HETATM   13  C11 UNL     1      12.574 -16.306  23.699  1.00  0.00     0.015 C 
HETATM   14  C12 UNL     1      13.845 -14.262  24.139  1.00  0.00     0.011 C 
HETATM   15  C13 UNL     1      13.370 -13.246  23.118  1.00  0.00     0.036 C 
ENDBRANCH   5   8
BRANCH   1  16
HETATM   16  C2  UNL     1      12.290  -9.471  18.526  1.00  0.00     0.257 C 
HETATM   17  N1  UNL     1      10.888  -9.358  18.658  1.00  0.00    -0.363 N 
HETATM   18  C1  UNL     1      10.107  -8.477  17.806  1.00  0.00     0.149 C 
ATOM     19  H1  UNL     1      10.411  -9.910  19.370  1.00  0.00     0.162 HD
HETATM   20  O1  UNL     1      12.866  -8.789  17.649  1.00  0.00    -0.270 OA
ENDBRANCH   1  16
TORSDOF 2
ENDMDL
MODEL 3
REMARK VINA RESULT: -7.131458122      2.564      3.420
REMARK  2 active torsions:
REMARK  status: ('A' for Active; 'I' for Inactive)
REMARK       I    between atoms: N1_2  and  C2_4 
REMARK    1  A    between atoms: C2_4  and  C3_6 
REMARK    2  A    between atoms: N2_10  and  C6_11 
ROOT
HETATM    1  C3  UNL     1      13.093  -9.730  20.135  1.00  0.00     0.186 C 
HETATM    2  F1  UNL     1      13.893 -10.455  19.304  1.00  0.00    -0.233 F 
HETATM    3  C4  UNL     1      12.035 -10.660  20.697  1.00  0.00     0.084 C 
HETATM    4  C5  UNL     1      12.686 -11.873  21.231  1.00  0.00     0.276 C 
HETATM    5  N2  UNL     1      14.059 -11.844  21.467  1.00  0.00     0.093 N 
HETATM    6  C14 UNL     1      14.705 -10.622  21.718  1.00  0.00     0.276 C 
HETATM    7  C15 UNL     1      13.941  -9.381  21.366  1.00  0.00     0.084 C 
ENDROOT
BRANCH   5   8
HETATM    8  C6  UNL     1      14.456 -12.847  22.432  1.00  0.00     0.223 C 
HETATM    9  C7  UNL     1      14.961 -14.108  21.816  1.00  0.00     0.036 C 
HETATM   10  C8  UNL     1      14.009 -15.276  22.031  1.00  0.00     0.011 C 
HETATM   11  C9  UNL     1      13.850 -15.597  23.497  1.00  0.00    -0.048 C 
HETATM   12  C10 UNL     1      14.968 -16.496  23.969  1.00  0.00     0.015 C 
HETATM   13  C11 UNL     1      12.543 -16.300  23.781  1.00  0.00     0.015 C 
HETATM   14  C12 UNL     1      13.859 -14.301  24.294  1.00  0.00     0.011 C 
HETATM   15  C13 UNL     1      13.333 -13.209  23.384  1.00  0.00     0.036 C 
ENDBRANCH   5   8
BRANCH   1  16
HETATM   16  C2  UNL     1      12.539  -8.521  19.540  1.00  0.00     0.257 C 
HETATM   17  N1  UNL     1      11.401  -7.904  20.105  1.00  0.00    -0.363 N 
HETATM   18  C1  UNL     1      10.821  -6.698  19.538  1.00  0.00     0.149 C 
ATOM     19  H1  UNL     1      10.973  -8.317  20.935  1.00  0.00     0.162 HD
HETATM   20  O1  UNL     1      13.056  -8.006  18.523  1.00  0.00    -0.270 OA
ENDBRANCH   1  16
TORSDOF 2
ENDMDL
MODEL 4
REMARK VINA RESULT: -7.128238675      3.243      5.311
REMARK  2 active torsions:
REMARK  status: ('A' for Active; 'I' for Inactive)
REMARK       I    between atoms: N1_2  and  C2_4 
REMARK    1  A    between atoms: C2_4  and  C3_6 
REMARK    2  A    between atoms: N2_10  and  C6_11 
ROOT
HETATM    1  C3  UNL     1      14.379  -8.226  24.763  1.00  0.00     0.186 C 
HETATM    2  F1  UNL     1      13.047  -8.051  24.534  1.00  0.00    -0.233 F 
HETATM    3  C4  UNL     1      14.566  -9.567  25.445  1.00  0.00     0.084 C 
HETATM    4  C5  UNL     1      13.842 -10.606  24.685  1.00  0.00     0.276 C 
HETATM    5  N2  UNL     1      13.441 -10.321  23.381  1.00  0.00     0.093 N 
HETATM    6  C14 UNL     1      14.132  -9.356  22.628  1.00  0.00     0.276 C 
HETATM    7  C15 UNL     1      15.035  -8.436  23.391  1.00  0.00     0.084 C 
ENDROOT
BRANCH   5   8
HETATM    8  C6  UNL     1      13.234 -11.528  22.610  1.00  0.00     0.223 C 
HETATM    9  C7  UNL     1      12.982 -12.738  23.445  1.00  0.00     0.036 C 
HETATM   10  C8  UNL     1      14.137 -13.729  23.387  1.00  0.00     0.011 C 
HETATM   11  C9  UNL     1      14.342 -14.257  21.988  1.00  0.00    -0.048 C 
HETATM   12  C10 UNL     1      13.410 -15.414  21.715  1.00  0.00     0.015 C 
HETATM   13  C11 UNL     1      15.755 -14.743  21.772  1.00  0.00     0.015 C 
HETATM   14  C12 UNL     1      14.081 -13.139  20.991  1.00  0.00     0.011 C 
HETATM   15  C13 UNL     1      14.397 -11.830  21.687  1.00  0.00     0.036 C 
ENDBRANCH   5   8
BRANCH   1  16
HETATM   16  C2  UNL     1      15.021  -7.126  25.471  1.00  0.00     0.257 C 
HETATM   17  N1  UNL     1      15.018  -7.088  26.883  1.00  0.00    -0.363 N 
HETATM   18  C1  UNL     1      15.648  -6.007  27.622  1.00  0.00     0.149 C 
ATOM     19  H1  UNL     1      14.560  -7.839  27.399  1.00  0.00     0.162 HD
HETATM   20  O1  UNL     1      15.586  -6.199  24.848  1.00  0.00    -0.270 OA
ENDBRANCH   1  16
TORSDOF 2
ENDMDL
MODEL 5
REMARK VINA RESULT: -7.005727019      2.507      3.337
REMARK  2 active torsions:
REMARK  status: ('A' for Active; 'I' for Inactive)
REMARK       I    between atoms: N1_2  and  C2_4 
REMARK    1  A    between atoms: C2_4  and  C3_6 
REMARK    2  A    between atoms: N2_10  and  C6_11 
ROOT
HETATM    1  C3  UNL     1      12.566 -10.010  21.050  1.00  0.00     0.186 C 
HETATM    2  F1  UNL     1      12.990  -9.353  22.166  1.00  0.00    -0.233 F 
HETATM    3  C4  UNL     1      13.746 -10.768  20.474  1.00  0.00     0.084 C 
HETATM    4  C5  UNL     1      14.393 -11.552  21.546  1.00  0.00     0.276 C 
HETATM    5  N2  UNL     1      13.690 -11.767  22.730  1.00  0.00     0.093 N 
HETATM    6  C14 UNL     1      12.285 -11.741  22.730  1.00  0.00     0.276 C 
HETATM    7  C15 UNL     1      11.631 -11.130  21.528  1.00  0.00     0.084 C 
ENDROOT
BRANCH   5   8
HETATM    8  C6  UNL     1      14.185 -12.927  23.441  1.00  0.00     0.223 C 
HETATM    9  C7  UNL     1      14.720 -13.995  22.548  1.00  0.00     0.036 C 
HETATM   10  C8  UNL     1      13.839 -15.238  22.544  1.00  0.00     0.011 C 
HETATM   11  C9  UNL     1      13.771 -15.872  23.912  1.00  0.00    -0.048 C 
HETATM   12  C10 UNL     1      14.956 -16.782  24.136  1.00  0.00     0.015 C 
HETATM   13  C11 UNL     1      12.518 -16.695  24.088  1.00  0.00     0.015 C 
HETATM   14  C12 UNL     1      13.756 -14.777  24.968  1.00  0.00     0.011 C 
HETATM   15  C13 UNL     1      13.131 -13.549  24.335  1.00  0.00     0.036 C 
ENDBRANCH   5   8
BRANCH   1  16
HETATM   16  C2  UNL     1      11.892  -9.167  20.071  1.00  0.00     0.257 C 
HETATM   17  N1  UNL     1      11.575  -7.826  20.381  1.00  0.00    -0.363 N 
HETATM   18  C1  UNL     1      10.903  -6.957  19.429  1.00  0.00     0.149 C 
ATOM     19  H1  UNL     1      11.824  -7.457  21.299  1.00  0.00     0.162 HD
HETATM   20  O1  UNL     1      11.581  -9.610  18.942  1.00  0.00    -0.270 OA
ENDBRANCH   1  16
TORSDOF 2
ENDMDL
