MODEL 1
REMARK VINA RESULT: -7.168346081      0.000      0.000
REMARK  6 active torsions:
REMARK  status: ('A' for Active; 'I' for Inactive)
REMARK    1  A    between atoms: O1_2  and  C2_3 
REMARK    2  A    between atoms: C5_6  and  C6_7 
REMARK    3  A    between atoms: C6_7  and  N1_8 
REMARK       I    between atoms: N1_8  and  C7_10 
REMARK       I    between atoms: C7_10  and  N3_14 
REMARK    4  A    between atoms: N3_14  and  C8_16 
REMARK    5  A    between atoms: C8_16  and  C10_18 
REMARK    6  A    between atoms: C10_18  and  N4_19 
ROOT
HETATM    1  N1  UNL     1      38.341 -10.955   2.151  1.00  0.00    -0.223 N 
ATOM      2  H1  UNL     1      38.740 -10.954   3.090  1.00  0.00     0.178 HD
HETATM    3  C7  UNL     1      37.654 -12.096   1.668  1.00  0.00     0.668 C 
HETATM    4  N2  UNL     1      36.481 -11.995   1.091  1.00  0.00    -0.235 N 
ATOM      5  H21 UNL     1      35.986 -12.817   0.743  1.00  0.00     0.174 HD
ATOM      6  H22 UNL     1      36.109 -11.048   1.020  1.00  0.00     0.174 HD
HETATM    7  N3  UNL     1      38.170 -13.414   1.767  1.00  0.00    -0.221 N 
ATOM      8  H3  UNL     1      37.751 -14.083   2.413  1.00  0.00     0.178 HD
ENDROOT
BRANCH   1   9
HETATM    9  C6  UNL     1      38.470  -9.813   1.318  1.00  0.00     0.176 C 
BRANCH   9  10
HETATM   10  C5  UNL     1      39.756  -9.123   1.338  1.00  0.00    -0.040 A 
HETATM   11  C4  UNL     1      39.723  -7.758   1.022  1.00  0.00     0.011 A 
HETATM   12  C3  UNL     1      40.852  -6.974   1.000  1.00  0.00     0.037 A 
HETATM   13  C2  UNL     1      42.085  -7.528   1.297  1.00  0.00     0.068 A 
HETATM   14  C12 UNL     1      42.150  -8.867   1.611  1.00  0.00     0.037 A 
HETATM   15  C11 UNL     1      40.980  -9.637   1.625  1.00  0.00     0.011 A 
BRANCH  13  16
HETATM   16  O1  UNL     1      43.195  -6.704   1.262  1.00  0.00    -0.356 OA
HETATM   17  C1  UNL     1      43.505  -5.843   0.203  1.00  0.00     0.210 C 
ENDBRANCH  13  16
ENDBRANCH   9  10
ENDBRANCH   1   9
BRANCH   7  18
HETATM   18  C8  UNL     1      39.294 -13.802   0.941  1.00  0.00     0.120 C 
HETATM   19  C9  UNL     1      39.081 -13.536  -0.516  1.00  0.00     0.034 C 
BRANCH  18  20
HETATM   20  C10 UNL     1      39.653 -15.255   1.125  1.00  0.00     0.254 C 
BRANCH  20  21
HETATM   21  N4  UNL     1      38.696 -15.953   1.926  1.00  0.00    -0.077 N 
ATOM     22  H43 UNL     1      39.143 -16.409   2.721  1.00  0.00     0.274 HD
ATOM     23  H42 UNL     1      38.093 -15.302   2.430  1.00  0.00     0.274 HD
ATOM     24  H41 UNL     1      38.146 -16.617   1.380  1.00  0.00     0.274 HD
ENDBRANCH  20  21
ENDBRANCH  18  20
ENDBRANCH   7  18
TORSDOF 6
ENDMDL
MODEL 2
REMARK VINA RESULT: -7.083159322      3.865      6.712
REMARK  6 active torsions:
REMARK  status: ('A' for Active; 'I' for Inactive)
REMARK    1  A    between atoms: O1_2  and  C2_3 
REMARK    2  A    between atoms: C5_6  and  C6_7 
REMARK    3  A    between atoms: C6_7  and  N1_8 
REMARK       I    between atoms: N1_8  and  C7_10 
REMARK       I    between atoms: C7_10  and  N3_14 
REMARK    4  A    between atoms: N3_14  and  C8_16 
REMARK    5  A    between atoms: C8_16  and  C10_18 
REMARK    6  A    between atoms: C10_18  and  N4_19 
ROOT
HETATM    1  N1  UNL     1      40.032  -7.872  -0.094  1.00  0.00    -0.223 N 
ATOM      2  H1  UNL     1      40.041  -8.542  -0.864  1.00  0.00     0.178 HD
HETATM    3  C7  UNL     1      40.840  -6.709  -0.150  1.00  0.00     0.668 C 
HETATM    4  N2  UNL     1      40.351  -5.523   0.125  1.00  0.00    -0.235 N 
ATOM      5  H21 UNL     1      40.933  -4.686   0.085  1.00  0.00     0.174 HD
ATOM      6  H22 UNL     1      39.362  -5.506   0.376  1.00  0.00     0.174 HD
HETATM    7  N3  UNL     1      42.214  -6.733  -0.499  1.00  0.00    -0.221 N 
ATOM      8  H3  UNL     1      42.524  -6.356  -1.394  1.00  0.00     0.178 HD
ENDROOT
BRANCH   1   9
HETATM    9  C6  UNL     1      39.210  -8.098   1.041  1.00  0.00     0.176 C 
BRANCH   9  10
HETATM   10  C5  UNL     1      38.675  -9.445   1.210  1.00  0.00    -0.040 A 
HETATM   11  C4  UNL     1      39.617 -10.484   1.204  1.00  0.00     0.011 A 
HETATM   12  C3  UNL     1      39.266 -11.804   1.353  1.00  0.00     0.037 A 
HETATM   13  C2  UNL     1      37.937 -12.153   1.517  1.00  0.00     0.068 A 
HETATM   14  C12 UNL     1      36.988 -11.156   1.526  1.00  0.00     0.037 A 
HETATM   15  C11 UNL     1      37.379  -9.820   1.372  1.00  0.00     0.011 A 
BRANCH  13  16
HETATM   16  O1  UNL     1      37.628 -13.493   1.663  1.00  0.00    -0.356 OA
HETATM   17  C1  UNL     1      38.462 -14.543   1.261  1.00  0.00     0.210 C 
ENDBRANCH  13  16
ENDBRANCH   9  10
ENDBRANCH   1   9
BRANCH   7  18
HETATM   18  C8  UNL     1      43.174  -7.296   0.427  1.00  0.00     0.120 C 
HETATM   19  C9  UNL     1      42.905  -8.730   0.762  1.00  0.00     0.034 C 
BRANCH  18  20
HETATM   20  C10 UNL     1      43.256  -6.503   1.707  1.00  0.00     0.254 C 
BRANCH  20  21
HETATM   21  N4  UNL     1      42.886  -7.278   2.850  1.00  0.00    -0.077 N 
ATOM     22  H43 UNL     1      41.890  -7.496   2.840  1.00  0.00     0.274 HD
ATOM     23  H42 UNL     1      43.261  -8.225   2.790  1.00  0.00     0.274 HD
ATOM     24  H41 UNL     1      43.157  -6.829   3.725  1.00  0.00     0.274 HD
ENDBRANCH  20  21
ENDBRANCH  18  20
ENDBRANCH   7  18
TORSDOF 6
ENDMDL
MODEL 3
REMARK VINA RESULT: -6.969707251      2.104      3.679
REMARK  6 active torsions:
REMARK  status: ('A' for Active; 'I' for Inactive)
REMARK    1  A    between atoms: O1_2  and  C2_3 
REMARK    2  A    between atoms: C5_6  and  C6_7 
REMARK    3  A    between atoms: C6_7  and  N1_8 
REMARK       I    between atoms: N1_8  and  C7_10 
REMARK       I    between atoms: C7_10  and  N3_14 
REMARK    4  A    between atoms: N3_14  and  C8_16 
REMARK    5  A    between atoms: C8_16  and  C10_18 
REMARK    6  A    between atoms: C10_18  and  N4_19 
ROOT
HETATM    1  N1  UNL     1      39.076 -13.995   1.748  1.00  0.00    -0.223 N 
ATOM      2  H1  UNL     1      39.890 -13.537   2.157  1.00  0.00     0.178 HD
HETATM    3  C7  UNL     1      39.019 -15.408   1.663  1.00  0.00     0.668 C 
HETATM    4  N2  UNL     1      37.958 -16.074   2.052  1.00  0.00    -0.235 N 
ATOM      5  H21 UNL     1      37.917 -17.092   1.991  1.00  0.00     0.174 HD
ATOM      6  H22 UNL     1      37.193 -15.505   2.414  1.00  0.00     0.174 HD
HETATM    7  N3  UNL     1      40.082 -16.201   1.159  1.00  0.00    -0.221 N 
ATOM      8  H3  UNL     1      40.632 -16.783   1.790  1.00  0.00     0.178 HD
ENDROOT
BRANCH   1   9
HETATM    9  C6  UNL     1      37.991 -13.221   1.259  1.00  0.00     0.176 C 
BRANCH   9  10
HETATM   10  C5  UNL     1      38.160 -11.772   1.261  1.00  0.00    -0.040 A 
HETATM   11  C4  UNL     1      39.483 -11.310   1.313  1.00  0.00     0.011 A 
HETATM   12  C3  UNL     1      39.802  -9.974   1.321  1.00  0.00     0.037 A 
HETATM   13  C2  UNL     1      38.799  -9.022   1.277  1.00  0.00     0.068 A 
HETATM   14  C12 UNL     1      37.489  -9.444   1.225  1.00  0.00     0.037 A 
HETATM   15  C11 UNL     1      37.198 -10.814   1.219  1.00  0.00     0.011 A 
BRANCH  13  16
HETATM   16  O1  UNL     1      39.164  -7.688   1.287  1.00  0.00    -0.356 OA
HETATM   17  C1  UNL     1      40.420  -7.217   1.688  1.00  0.00     0.210 C 
ENDBRANCH  13  16
ENDBRANCH   9  10
ENDBRANCH   1   9
BRANCH   7  18
HETATM   18  C8  UNL     1      40.379 -16.176  -0.258  1.00  0.00     0.120 C 
HETATM   19  C9  UNL     1      41.427 -17.165  -0.661  1.00  0.00     0.034 C 
BRANCH  18  20
HETATM   20  C10 UNL     1      40.797 -14.804  -0.722  1.00  0.00     0.254 C 
BRANCH  20  21
HETATM   21  N4  UNL     1      39.917 -14.277  -1.718  1.00  0.00    -0.077 N 
ATOM     22  H43 UNL     1      38.996 -14.713  -1.664  1.00  0.00     0.274 HD
ATOM     23  H42 UNL     1      39.653 -13.315  -1.506  1.00  0.00     0.274 HD
ATOM     24  H41 UNL     1      40.306 -14.354  -2.658  1.00  0.00     0.274 HD
ENDBRANCH  20  21
ENDBRANCH  18  20
ENDBRANCH   7  18
TORSDOF 6
ENDMDL
MODEL 4
REMARK VINA RESULT: -6.806451715      3.722      6.890
REMARK  6 active torsions:
REMARK  status: ('A' for Active; 'I' for Inactive)
REMARK    1  A    between atoms: O1_2  and  C2_3 
REMARK    2  A    between atoms: C5_6  and  C6_7 
REMARK    3  A    between atoms: C6_7  and  N1_8 
REMARK       I    between atoms: N1_8  and  C7_10 
REMARK       I    between atoms: C7_10  and  N3_14 
REMARK    4  A    between atoms: N3_14  and  C8_16 
REMARK    5  A    between atoms: C8_16  and  C10_18 
REMARK    6  A    between atoms: C10_18  and  N4_19 
ROOT
HETATM    1  N1  UNL     1      40.307  -7.923   1.818  1.00  0.00    -0.223 N 
ATOM      2  H1  UNL     1      39.826  -7.335   2.499  1.00  0.00     0.178 HD
HETATM    3  C7  UNL     1      41.702  -8.149   1.928  1.00  0.00     0.668 C 
HETATM    4  N2  UNL     1      42.208  -9.357   1.845  1.00  0.00    -0.235 N 
ATOM      5  H21 UNL     1      43.212  -9.519   1.925  1.00  0.00     0.174 HD
ATOM      6  H22 UNL     1      41.530 -10.105   1.698  1.00  0.00     0.174 HD
HETATM    7  N3  UNL     1      42.645  -7.110   2.134  1.00  0.00    -0.221 N 
ATOM      8  H3  UNL     1      43.118  -7.015   3.032  1.00  0.00     0.178 HD
ENDROOT
BRANCH   1   9
HETATM    9  C6  UNL     1      39.585  -8.520   0.752  1.00  0.00     0.176 C 
BRANCH   9  10
HETATM   10  C5  UNL     1      38.919  -9.787   1.035  1.00  0.00    -0.040 A 
HETATM   11  C4  UNL     1      39.700 -10.940   0.870  1.00  0.00     0.011 A 
HETATM   12  C3  UNL     1      39.213 -12.205   1.099  1.00  0.00     0.037 A 
HETATM   13  C2  UNL     1      37.903 -12.378   1.510  1.00  0.00     0.068 A 
HETATM   14  C12 UNL     1      37.111 -11.265   1.681  1.00  0.00     0.037 A 
HETATM   15  C11 UNL     1      37.638  -9.990   1.439  1.00  0.00     0.011 A 
BRANCH  13  16
HETATM   16  O1  UNL     1      37.453 -13.668   1.729  1.00  0.00    -0.356 OA
HETATM   17  C1  UNL     1      38.051 -14.813   1.190  1.00  0.00     0.210 C 
ENDBRANCH  13  16
ENDBRANCH   9  10
ENDBRANCH   1   9
BRANCH   7  18
HETATM   18  C8  UNL     1      42.930  -6.185   1.057  1.00  0.00     0.120 C 
HETATM   19  C9  UNL     1      41.815  -5.222   0.790  1.00  0.00     0.034 C 
BRANCH  18  20
HETATM   20  C10 UNL     1      43.274  -6.901  -0.225  1.00  0.00     0.254 C 
BRANCH  20  21
HETATM   21  N4  UNL     1      42.234  -6.797  -1.200  1.00  0.00    -0.077 N 
ATOM     22  H43 UNL     1      41.360  -7.189  -0.850  1.00  0.00     0.274 HD
ATOM     23  H42 UNL     1      41.939  -5.828  -1.323  1.00  0.00     0.274 HD
ATOM     24  H41 UNL     1      42.496  -7.218  -2.092  1.00  0.00     0.274 HD
ENDBRANCH  20  21
ENDBRANCH  18  20
ENDBRANCH   7  18
TORSDOF 6
ENDMDL
MODEL 5
REMARK VINA RESULT: -6.759944852      3.300      6.762
REMARK  6 active torsions:
REMARK  status: ('A' for Active; 'I' for Inactive)
REMARK    1  A    between atoms: O1_2  and  C2_3 
REMARK    2  A    between atoms: C5_6  and  C6_7 
REMARK    3  A    between atoms: C6_7  and  N1_8 
REMARK       I    between atoms: N1_8  and  C7_10 
REMARK       I    between atoms: C7_10  and  N3_14 
REMARK    4  A    between atoms: N3_14  and  C8_16 
REMARK    5  A    between atoms: C8_16  and  C10_18 
REMARK    6  A    between atoms: C10_18  and  N4_19 
ROOT
HETATM    1  N1  UNL     1      38.822 -11.335   0.550  1.00  0.00    -0.223 N 
ATOM      2  H1  UNL     1      39.354 -11.475  -0.309  1.00  0.00     0.178 HD
HETATM    3  C7  UNL     1      38.344 -10.045   0.892  1.00  0.00     0.668 C 
HETATM    4  N2  UNL     1      37.101  -9.854   1.266  1.00  0.00    -0.235 N 
ATOM      5  H21 UNL     1      36.758  -8.925   1.513  1.00  0.00     0.174 HD
ATOM      6  H22 UNL     1      36.518 -10.690   1.290  1.00  0.00     0.174 HD
HETATM    7  N3  UNL     1      39.154  -8.882   0.860  1.00  0.00    -0.221 N 
ATOM      8  H3  UNL     1      39.007  -8.173   0.141  1.00  0.00     0.178 HD
ENDROOT
BRANCH   1   9
HETATM    9  C6  UNL     1      38.553 -12.431   1.412  1.00  0.00     0.176 C 
BRANCH   9  10
HETATM   10  C5  UNL     1      39.066 -13.733   1.001  1.00  0.00    -0.040 A 
HETATM   11  C4  UNL     1      39.452 -13.845  -0.342  1.00  0.00     0.011 A 
HETATM   12  C3  UNL     1      39.954 -15.007  -0.876  1.00  0.00     0.037 A 
HETATM   13  C2  UNL     1      40.096 -16.130  -0.080  1.00  0.00     0.068 A 
HETATM   14  C12 UNL     1      39.726 -16.052   1.244  1.00  0.00     0.037 A 
HETATM   15  C11 UNL     1      39.218 -14.852   1.757  1.00  0.00     0.011 A 
BRANCH  13  16
HETATM   16  O1  UNL     1      40.605 -17.279  -0.658  1.00  0.00    -0.356 OA
HETATM   17  C1  UNL     1      41.934 -17.433  -1.069  1.00  0.00     0.210 C 
ENDBRANCH  13  16
ENDBRANCH   9  10
ENDBRANCH   1   9
BRANCH   7  18
HETATM   18  C8  UNL     1      40.191  -8.708   1.855  1.00  0.00     0.120 C 
HETATM   19  C9  UNL     1      40.496  -7.273   2.151  1.00  0.00     0.034 C 
BRANCH  18  20
HETATM   20  C10 UNL     1      41.469  -9.409   1.465  1.00  0.00     0.254 C 
BRANCH  20  21
HETATM   21  N4  UNL     1      42.571  -9.024   2.290  1.00  0.00    -0.077 N 
ATOM     22  H43 UNL     1      43.041  -9.839   2.682  1.00  0.00     0.274 HD
ATOM     23  H42 UNL     1      43.337  -8.648   1.730  1.00  0.00     0.274 HD
ATOM     24  H41 UNL     1      42.296  -8.369   3.023  1.00  0.00     0.274 HD
ENDBRANCH  20  21
ENDBRANCH  18  20
ENDBRANCH   7  18
TORSDOF 6
ENDMDL
