MODEL 1
REMARK VINA RESULT: -6.225975030      0.000      0.000
REMARK  8 active torsions:
REMARK  status: ('A' for Active; 'I' for Inactive)
REMARK    1  A    between atoms: C2_2  and  N1_3 
REMARK    2  A    between atoms: N1_3  and  C3_5 
REMARK    3  A    between atoms: C3_5  and  N2_7 
REMARK    4  A    between atoms: N2_7  and  C4_9 
REMARK    5  A    between atoms: C4_9  and  C5_10 
REMARK    6  A    between atoms: C5_10  and  N3_11 
REMARK    7  A    between atoms: C5_10  and  C6_15 
REMARK    8  A    between atoms: C6_15  and  O1_16 
ROOT
HETATM    1  C5  UNL     1      39.639  -8.328   1.337  1.00  0.00     0.235 C 
ENDROOT
BRANCH   1   2
HETATM    2  C4  UNL     1      39.944  -9.590   2.059  1.00  0.00     0.158 C 
BRANCH   2   3
HETATM    3  N2  UNL     1      39.478 -10.676   1.157  1.00  0.00    -0.365 N 
ATOM      4  H2  UNL     1      39.887 -10.767   0.227  1.00  0.00     0.161 HD
BRANCH   3   5
HETATM    5  C3  UNL     1      38.480 -11.579   1.568  1.00  0.00     0.167 C 
HETATM    6  S1  UNL     1      36.939 -11.097   1.651  1.00  0.00    -0.041 SA
BRANCH   5   7
HETATM    7  N1  UNL     1      38.828 -12.897   1.910  1.00  0.00    -0.368 N 
ATOM      8  H1  UNL     1      39.146 -13.084   2.860  1.00  0.00     0.161 HD
BRANCH   7   9
HETATM    9  C2  UNL     1      38.754 -14.010   0.969  1.00  0.00     0.117 C 
HETATM   10  C1  UNL     1      39.433 -15.198   1.651  1.00  0.00     0.026 C 
ENDBRANCH   7   9
ENDBRANCH   5   7
ENDBRANCH   3   5
ENDBRANCH   2   3
ENDBRANCH   1   2
BRANCH   1  11
HETATM   11  N3  UNL     1      39.268  -8.723  -0.027  1.00  0.00    -0.071 N 
ATOM     12  H33 UNL     1      38.860  -9.657  -0.085  1.00  0.00     0.274 HD
ATOM     13  H32 UNL     1      38.463  -8.215  -0.394  1.00  0.00     0.274 HD
ATOM     14  H31 UNL     1      40.110  -8.611  -0.591  1.00  0.00     0.274 HD
ENDBRANCH   1  11
BRANCH   1  15
HETATM   15  C6  UNL     1      40.737  -7.288   1.300  1.00  0.00     0.090 C 
HETATM   16  C8  UNL     1      41.637  -7.407   2.510  1.00  0.00     0.040 C 
HETATM   17  C9  UNL     1      43.066  -7.445   2.001  1.00  0.00     0.003 C 
HETATM   18  C10 UNL     1      42.856  -8.445   0.854  1.00  0.00     0.003 C 
HETATM   19  C11 UNL     1      41.679  -7.818   0.189  1.00  0.00     0.040 C 
BRANCH  15  20
HETATM   20  O1  UNL     1      40.440  -6.068   0.910  1.00  0.00    -0.383 OA
HETATM   21  C7  UNL     1      41.050  -5.206   0.149  1.00  0.00     0.202 C 
ENDBRANCH  15  20
ENDBRANCH   1  15
TORSDOF 8
ENDMDL
MODEL 2
REMARK VINA RESULT: -6.026830752      1.416      1.698
REMARK  8 active torsions:
REMARK  status: ('A' for Active; 'I' for Inactive)
REMARK    1  A    between atoms: C2_2  and  N1_3 
REMARK    2  A    between atoms: N1_3  and  C3_5 
REMARK    3  A    between atoms: C3_5  and  N2_7 
REMARK    4  A    between atoms: N2_7  and  C4_9 
REMARK    5  A    between atoms: C4_9  and  C5_10 
REMARK    6  A    between atoms: C5_10  and  N3_11 
REMARK    7  A    between atoms: C5_10  and  C6_15 
REMARK    8  A    between atoms: C6_15  and  O1_16 
ROOT
HETATM    1  C5  UNL     1      41.550  -9.101   1.406  1.00  0.00     0.235 C 
ENDROOT
BRANCH   1   2
HETATM    2  C4  UNL     1      40.382  -9.720   2.085  1.00  0.00     0.158 C 
BRANCH   2   3
HETATM    3  N2  UNL     1      39.422 -10.035   0.996  1.00  0.00    -0.365 N 
ATOM      4  H2  UNL     1      39.351  -9.412   0.191  1.00  0.00     0.161 HD
BRANCH   3   5
HETATM    5  C3  UNL     1      38.608 -11.182   1.059  1.00  0.00     0.167 C 
HETATM    6  S1  UNL     1      37.110 -11.078   1.658  1.00  0.00    -0.041 SA
BRANCH   5   7
HETATM    7  N1  UNL     1      39.102 -12.416   0.603  1.00  0.00    -0.368 N 
ATOM      8  H1  UNL     1      40.053 -12.453   0.237  1.00  0.00     0.161 HD
BRANCH   7   9
HETATM    9  C2  UNL     1      38.319 -13.647   0.629  1.00  0.00     0.117 C 
HETATM   10  C1  UNL     1      39.096 -14.635   1.500  1.00  0.00     0.026 C 
ENDBRANCH   7   9
ENDBRANCH   5   7
ENDBRANCH   3   5
ENDBRANCH   2   3
ENDBRANCH   1   2
BRANCH   1  11
HETATM   11  N3  UNL     1      42.733  -9.550   2.148  1.00  0.00    -0.071 N 
ATOM     12  H33 UNL     1      42.824  -9.121   3.070  1.00  0.00     0.274 HD
ATOM     13  H32 UNL     1      42.672 -10.517   2.468  1.00  0.00     0.274 HD
ATOM     14  H31 UNL     1      43.531  -9.374   1.538  1.00  0.00     0.274 HD
ENDBRANCH   1  11
BRANCH   1  15
HETATM   15  C6  UNL     1      41.543  -7.592   1.294  1.00  0.00     0.090 C 
HETATM   16  C8  UNL     1      42.923  -7.023   1.539  1.00  0.00     0.040 C 
HETATM   17  C9  UNL     1      43.228  -6.081   0.390  1.00  0.00     0.003 C 
HETATM   18  C10 UNL     1      42.746  -6.983  -0.757  1.00  0.00     0.003 C 
HETATM   19  C11 UNL     1      41.403  -7.359  -0.232  1.00  0.00     0.040 C 
BRANCH  15  20
HETATM   20  O1  UNL     1      40.535  -6.924   1.811  1.00  0.00    -0.383 OA
HETATM   21  C7  UNL     1      39.414  -6.484   1.316  1.00  0.00     0.202 C 
ENDBRANCH  15  20
ENDBRANCH   1  15
TORSDOF 8
ENDMDL
MODEL 3
REMARK VINA RESULT: -5.958800834      1.839      2.643
REMARK  8 active torsions:
REMARK  status: ('A' for Active; 'I' for Inactive)
REMARK    1  A    between atoms: C2_2  and  N1_3 
REMARK    2  A    between atoms: N1_3  and  C3_5 
REMARK    3  A    between atoms: C3_5  and  N2_7 
REMARK    4  A    between atoms: N2_7  and  C4_9 
REMARK    5  A    between atoms: C4_9  and  C5_10 
REMARK    6  A    between atoms: C5_10  and  N3_11 
REMARK    7  A    between atoms: C5_10  and  C6_15 
REMARK    8  A    between atoms: C6_15  and  O1_16 
ROOT
HETATM    1  C5  UNL     1      39.068  -9.620   1.690  1.00  0.00     0.235 C 
ENDROOT
BRANCH   1   2
HETATM    2  C4  UNL     1      39.102 -11.069   2.016  1.00  0.00     0.158 C 
BRANCH   2   3
HETATM    3  N2  UNL     1      38.751 -11.760   0.748  1.00  0.00    -0.365 N 
ATOM      4  H2  UNL     1      38.383 -11.218  -0.035  1.00  0.00     0.161 HD
BRANCH   3   5
HETATM    5  C3  UNL     1      38.919 -13.150   0.612  1.00  0.00     0.167 C 
HETATM    6  S1  UNL     1      39.204 -13.791  -0.846  1.00  0.00    -0.041 SA
BRANCH   5   7
HETATM    7  N1  UNL     1      38.834 -13.979   1.743  1.00  0.00    -0.368 N 
ATOM      8  H1  UNL     1      38.239 -13.685   2.517  1.00  0.00     0.161 HD
BRANCH   7   9
HETATM    9  C2  UNL     1      39.559 -15.240   1.863  1.00  0.00     0.117 C 
HETATM   10  C1  UNL     1      38.503 -16.346   1.869  1.00  0.00     0.026 C 
ENDBRANCH   7   9
ENDBRANCH   5   7
ENDBRANCH   3   5
ENDBRANCH   2   3
ENDBRANCH   1   2
BRANCH   1  11
HETATM   11  N3  UNL     1      38.124  -9.478   0.576  1.00  0.00    -0.071 N 
ATOM     12  H33 UNL     1      37.161  -9.705   0.826  1.00  0.00     0.274 HD
ATOM     13  H32 UNL     1      37.956  -8.509   0.304  1.00  0.00     0.274 HD
ATOM     14  H31 UNL     1      38.495 -10.054  -0.181  1.00  0.00     0.274 HD
ENDBRANCH   1  11
BRANCH   1  15
HETATM   15  C6  UNL     1      40.391  -8.975   1.341  1.00  0.00     0.090 C 
HETATM   16  C8  UNL     1      40.298  -8.215   0.036  1.00  0.00     0.040 C 
HETATM   17  C9  UNL     1      40.858  -6.828   0.288  1.00  0.00     0.003 C 
HETATM   18  C10 UNL     1      40.146  -6.549   1.620  1.00  0.00     0.003 C 
HETATM   19  C11 UNL     1      40.483  -7.803   2.351  1.00  0.00     0.040 C 
BRANCH  15  20
HETATM   20  O1  UNL     1      41.499  -9.655   1.543  1.00  0.00    -0.383 OA
HETATM   21  C7  UNL     1      42.725  -9.300   1.800  1.00  0.00     0.202 C 
ENDBRANCH  15  20
ENDBRANCH   1  15
TORSDOF 8
ENDMDL
MODEL 4
REMARK VINA RESULT: -5.942358139      1.516      2.261
REMARK  8 active torsions:
REMARK  status: ('A' for Active; 'I' for Inactive)
REMARK    1  A    between atoms: C2_2  and  N1_3 
REMARK    2  A    between atoms: N1_3  and  C3_5 
REMARK    3  A    between atoms: C3_5  and  N2_7 
REMARK    4  A    between atoms: N2_7  and  C4_9 
REMARK    5  A    between atoms: C4_9  and  C5_10 
REMARK    6  A    between atoms: C5_10  and  N3_11 
REMARK    7  A    between atoms: C5_10  and  C6_15 
REMARK    8  A    between atoms: C6_15  and  O1_16 
ROOT
HETATM    1  C5  UNL     1      40.164  -7.621   1.364  1.00  0.00     0.235 C 
ENDROOT
BRANCH   1   2
HETATM    2  C4  UNL     1      39.078  -8.550   0.959  1.00  0.00     0.158 C 
BRANCH   2   3
HETATM    3  N2  UNL     1      39.316  -9.790   1.742  1.00  0.00    -0.365 N 
ATOM      4  H2  UNL     1      39.979  -9.776   2.517  1.00  0.00     0.161 HD
BRANCH   3   5
HETATM    5  C3  UNL     1      38.641 -10.985   1.427  1.00  0.00     0.167 C 
HETATM    6  S1  UNL     1      37.052 -11.111   1.700  1.00  0.00    -0.041 SA
BRANCH   5   7
HETATM    7  N1  UNL     1      39.352 -12.066   0.879  1.00  0.00    -0.368 N 
ATOM      8  H1  UNL     1      40.370 -12.035   0.894  1.00  0.00     0.161 HD
BRANCH   7   9
HETATM    9  C2  UNL     1      38.700 -13.232   0.291  1.00  0.00     0.117 C 
HETATM   10  C1  UNL     1      38.937 -14.393   1.257  1.00  0.00     0.026 C 
ENDBRANCH   7   9
ENDBRANCH   5   7
ENDBRANCH   3   5
ENDBRANCH   2   3
ENDBRANCH   1   2
BRANCH   1  11
HETATM   11  N3  UNL     1      39.786  -6.304   0.838  1.00  0.00    -0.071 N 
ATOM     12  H33 UNL     1      40.064  -5.529   1.440  1.00  0.00     0.274 HD
ATOM     13  H32 UNL     1      40.325  -6.022   0.018  1.00  0.00     0.274 HD
ATOM     14  H31 UNL     1      38.781  -6.347   0.669  1.00  0.00     0.274 HD
ENDBRANCH   1  11
BRANCH   1  15
HETATM   15  C6  UNL     1      41.563  -7.982   0.917  1.00  0.00     0.090 C 
HETATM   16  C8  UNL     1      41.848  -7.440  -0.467  1.00  0.00     0.040 C 
HETATM   17  C9  UNL     1      43.168  -6.698  -0.393  1.00  0.00     0.003 C 
HETATM   18  C10 UNL     1      42.906  -5.927   0.910  1.00  0.00     0.003 C 
HETATM   19  C11 UNL     1      42.454  -7.049   1.778  1.00  0.00     0.040 C 
BRANCH  15  20
HETATM   20  O1  UNL     1      42.020  -9.187   1.178  1.00  0.00    -0.383 OA
HETATM   21  C7  UNL     1      42.965  -9.629   1.956  1.00  0.00     0.202 C 
ENDBRANCH  15  20
ENDBRANCH   1  15
TORSDOF 8
ENDMDL
MODEL 5
REMARK VINA RESULT: -5.772116992      2.619      6.479
REMARK  8 active torsions:
REMARK  status: ('A' for Active; 'I' for Inactive)
REMARK    1  A    between atoms: C2_2  and  N1_3 
REMARK    2  A    between atoms: N1_3  and  C3_5 
REMARK    3  A    between atoms: C3_5  and  N2_7 
REMARK    4  A    between atoms: N2_7  and  C4_9 
REMARK    5  A    between atoms: C4_9  and  C5_10 
REMARK    6  A    between atoms: C5_10  and  N3_11 
REMARK    7  A    between atoms: C5_10  and  C6_15 
REMARK    8  A    between atoms: C6_15  and  O1_16 
ROOT
HETATM    1  C5  UNL     1      37.857 -12.429   0.844  1.00  0.00     0.235 C 
ENDROOT
BRANCH   1   2
HETATM    2  C4  UNL     1      38.383 -11.094   0.457  1.00  0.00     0.158 C 
BRANCH   2   3
HETATM    3  N2  UNL     1      39.557 -10.870   1.340  1.00  0.00    -0.365 N 
ATOM      4  H2  UNL     1      40.007 -11.666   1.791  1.00  0.00     0.161 HD
BRANCH   3   5
HETATM    5  C3  UNL     1      40.057  -9.573   1.561  1.00  0.00     0.167 C 
HETATM    6  S1  UNL     1      39.239  -8.287   1.019  1.00  0.00    -0.041 SA
BRANCH   5   7
HETATM    7  N1  UNL     1      41.269  -9.399   2.251  1.00  0.00    -0.368 N 
ATOM      8  H1  UNL     1      41.267  -9.487   3.266  1.00  0.00     0.161 HD
BRANCH   7   9
HETATM    9  C2  UNL     1      42.531  -9.098   1.581  1.00  0.00     0.117 C 
HETATM   10  C1  UNL     1      42.876  -7.652   1.939  1.00  0.00     0.026 C 
ENDBRANCH   7   9
ENDBRANCH   5   7
ENDBRANCH   3   5
ENDBRANCH   2   3
ENDBRANCH   1   2
BRANCH   1  11
HETATM   11  N3  UNL     1      37.670 -12.382   2.299  1.00  0.00    -0.071 N 
ATOM     12  H33 UNL     1      36.745 -12.689   2.601  1.00  0.00     0.274 HD
ATOM     13  H32 UNL     1      38.205 -13.091   2.802  1.00  0.00     0.274 HD
ATOM     14  H31 UNL     1      37.894 -11.428   2.580  1.00  0.00     0.274 HD
ENDBRANCH   1  11
BRANCH   1  15
HETATM   15  C6  UNL     1      38.702 -13.624   0.463  1.00  0.00     0.090 C 
HETATM   16  C8  UNL     1      39.196 -14.355   1.692  1.00  0.00     0.040 C 
HETATM   17  C9  UNL     1      38.864 -15.823   1.502  1.00  0.00     0.003 C 
HETATM   18  C10 UNL     1      37.424 -15.652   0.996  1.00  0.00     0.003 C 
HETATM   19  C11 UNL     1      37.653 -14.635  -0.069  1.00  0.00     0.040 C 
BRANCH  15  20
HETATM   20  O1  UNL     1      39.557 -13.504  -0.529  1.00  0.00    -0.383 OA
HETATM   21  C7  UNL     1      39.852 -14.263  -1.545  1.00  0.00     0.202 C 
ENDBRANCH  15  20
ENDBRANCH   1  15
TORSDOF 8
ENDMDL
