MODEL 1
REMARK VINA RESULT: -5.131433697      0.000      0.000
REMARK  4 active torsions:
REMARK  status: ('A' for Active; 'I' for Inactive)
REMARK    1  A    between atoms: C3_5  and  N2_6 
REMARK    2  A    between atoms: C4_7  and  C5_8 
REMARK    3  A    between atoms: C5_8  and  S1_9 
REMARK    4  A    between atoms: S1_9  and  C6_10 
ROOT
HETATM    1  N2  UNL     1      11.365 -41.752  10.693  1.00  0.00    -0.253 N 
HETATM    2  C4  UNL     1      10.542 -41.833   9.659  1.00  0.00     0.116 A 
HETATM    3  N3  UNL     1       9.306 -41.539  10.174  1.00  0.00    -0.286 N 
ATOM      4  H3  UNL     1       8.437 -41.513   9.640  1.00  0.00     0.188 HD
HETATM    5  N4  UNL     1       9.411 -41.296  11.468  1.00  0.00    -0.274 N 
ATOM      6  H4  UNL     1       8.644 -41.052  12.095  1.00  0.00     0.189 HD
HETATM    7  C7  UNL     1      10.704 -41.424  11.818  1.00  0.00     0.200 A 
HETATM    8  S2  UNL     1      11.291 -41.210  13.334  1.00  0.00    -0.038 SA
ENDROOT
BRANCH   1   9
HETATM    9  C3  UNL     1      12.796 -41.960  10.720  1.00  0.00     0.159 A 
HETATM   10  N1  UNL     1      13.743 -41.059  10.479  1.00  0.00    -0.339 N 
HETATM   11  C2  UNL     1      14.987 -41.391  10.539  1.00  0.00     0.020 A 
ATOM     12  H1  UNL     1      13.484 -40.101  10.245  1.00  0.00     0.168 HD
HETATM   13  C1  UNL     1      16.104 -40.401  10.275  1.00  0.00     0.069 C 
HETATM   14  C8  UNL     1      15.288 -42.692  10.857  1.00  0.00     0.004 A 
HETATM   15  S3  UNL     1      13.724 -43.350  11.050  1.00  0.00    -0.056 SA
HETATM   16  C9  UNL     1      16.643 -43.333  10.990  1.00  0.00     0.058 C 
ENDBRANCH   1   9
BRANCH   2  17
HETATM   17  C5  UNL     1      10.855 -42.171   8.251  1.00  0.00     0.157 C 
BRANCH  17  18
HETATM   18  S1  UNL     1      11.341 -40.742   7.269  1.00  0.00    -0.093 SA
BRANCH  18  19
HETATM   19  C6  UNL     1      10.035 -39.488   7.212  1.00  0.00     0.416 C 
HETATM   20  F1  UNL     1      10.328 -38.507   8.155  1.00  0.00    -0.203 F 
HETATM   21  F2  UNL     1       8.858 -40.101   7.640  1.00  0.00    -0.203 F 
ENDBRANCH  18  19
ENDBRANCH  17  18
ENDBRANCH   2  17
TORSDOF 4
ENDMDL
MODEL 2
REMARK VINA RESULT: -4.131539223      2.464      3.738
REMARK  4 active torsions:
REMARK  status: ('A' for Active; 'I' for Inactive)
REMARK    1  A    between atoms: C3_5  and  N2_6 
REMARK    2  A    between atoms: C4_7  and  C5_8 
REMARK    3  A    between atoms: C5_8  and  S1_9 
REMARK    4  A    between atoms: S1_9  and  C6_10 
ROOT
HETATM    1  N2  UNL     1      11.196 -41.605   9.165  1.00  0.00    -0.253 N 
HETATM    2  C4  UNL     1      10.007 -41.863   9.688  1.00  0.00     0.116 A 
HETATM    3  N3  UNL     1       9.111 -41.386   8.765  1.00  0.00    -0.286 N 
ATOM      4  H3  UNL     1       8.095 -41.425   8.857  1.00  0.00     0.188 HD
HETATM    5  N4  UNL     1       9.763 -40.869   7.740  1.00  0.00    -0.274 N 
ATOM      6  H4  UNL     1       9.339 -40.445   6.915  1.00  0.00     0.189 HD
HETATM    7  C7  UNL     1      11.083 -40.996   7.971  1.00  0.00     0.200 A 
HETATM    8  S2  UNL     1      12.266 -40.487   6.956  1.00  0.00    -0.038 SA
ENDROOT
BRANCH   1   9
HETATM    9  C3  UNL     1      12.501 -41.902   9.714  1.00  0.00     0.159 A 
HETATM   10  N1  UNL     1      13.593 -41.148   9.639  1.00  0.00    -0.339 N 
HETATM   11  C2  UNL     1      14.694 -41.545  10.179  1.00  0.00     0.020 A 
ATOM     12  H1  UNL     1      13.560 -40.252   9.152  1.00  0.00     0.168 HD
HETATM   13  C1  UNL     1      15.967 -40.722  10.123  1.00  0.00     0.069 C 
HETATM   14  C8  UNL     1      14.692 -42.757  10.823  1.00  0.00     0.004 A 
HETATM   15  S3  UNL     1      13.071 -43.242  10.598  1.00  0.00    -0.056 SA
HETATM   16  C9  UNL     1      15.831 -43.444  11.526  1.00  0.00     0.058 C 
ENDBRANCH   1   9
BRANCH   2  17
HETATM   17  C5  UNL     1       9.684 -42.511  10.979  1.00  0.00     0.157 C 
BRANCH  17  18
HETATM   18  S1  UNL     1       9.397 -41.335  12.313  1.00  0.00    -0.093 SA
BRANCH  18  19
HETATM   19  C6  UNL     1      10.646 -41.480  13.617  1.00  0.00     0.416 C 
HETATM   20  F1  UNL     1      10.238 -40.709  14.702  1.00  0.00    -0.203 F 
HETATM   21  F2  UNL     1      11.813 -40.887  13.136  1.00  0.00    -0.203 F 
ENDBRANCH  18  19
ENDBRANCH  17  18
ENDBRANCH   2  17
TORSDOF 4
ENDMDL
MODEL 3
REMARK VINA RESULT: -3.836178551      0.996      1.437
REMARK  4 active torsions:
REMARK  status: ('A' for Active; 'I' for Inactive)
REMARK    1  A    between atoms: C3_5  and  N2_6 
REMARK    2  A    between atoms: C4_7  and  C5_8 
REMARK    3  A    between atoms: C5_8  and  S1_9 
REMARK    4  A    between atoms: S1_9  and  C6_10 
ROOT
HETATM    1  N2  UNL     1      11.486 -41.774  10.758  1.00  0.00    -0.253 N 
HETATM    2  C4  UNL     1      10.742 -41.947   9.676  1.00  0.00     0.116 A 
HETATM    3  N3  UNL     1       9.450 -41.833  10.122  1.00  0.00    -0.286 N 
ATOM      4  H3  UNL     1       8.617 -41.915   9.539  1.00  0.00     0.188 HD
HETATM    5  N4  UNL     1       9.449 -41.600  11.422  1.00  0.00    -0.274 N 
ATOM      6  H4  UNL     1       8.621 -41.473  12.006  1.00  0.00     0.189 HD
HETATM    7  C7  UNL     1      10.726 -41.558  11.846  1.00  0.00     0.200 A 
HETATM    8  S2  UNL     1      11.192 -41.293  13.395  1.00  0.00    -0.038 SA
ENDROOT
BRANCH   1   9
HETATM    9  C3  UNL     1      12.929 -41.786  10.865  1.00  0.00     0.159 A 
HETATM   10  N1  UNL     1      13.708 -42.837  11.099  1.00  0.00    -0.339 N 
HETATM   11  C2  UNL     1      14.987 -42.696  11.170  1.00  0.00     0.020 A 
ATOM     12  H1  UNL     1      13.291 -43.760  11.223  1.00  0.00     0.168 HD
HETATM   13  C1  UNL     1      15.918 -43.864  11.432  1.00  0.00     0.069 C 
HETATM   14  C8  UNL     1      15.503 -41.436  10.997  1.00  0.00     0.004 A 
HETATM   15  S3  UNL     1      14.077 -40.533  10.740  1.00  0.00    -0.056 SA
HETATM   16  C9  UNL     1      16.943 -41.002  11.033  1.00  0.00     0.058 C 
ENDBRANCH   1   9
BRANCH   2  17
HETATM   17  C5  UNL     1      11.176 -42.214   8.286  1.00  0.00     0.157 C 
BRANCH  17  18
HETATM   18  S1  UNL     1      11.259 -40.730   7.270  1.00  0.00    -0.093 SA
BRANCH  18  19
HETATM   19  C6  UNL     1       9.646 -39.919   7.128  1.00  0.00     0.416 C 
HETATM   20  F1  UNL     1       9.464 -39.105   8.243  1.00  0.00    -0.203 F 
HETATM   21  F2  UNL     1       8.676 -40.917   7.213  1.00  0.00    -0.203 F 
ENDBRANCH  18  19
ENDBRANCH  17  18
ENDBRANCH   2  17
TORSDOF 4
ENDMDL
MODEL 4
REMARK VINA RESULT: -3.534319410      2.327      3.635
REMARK  4 active torsions:
REMARK  status: ('A' for Active; 'I' for Inactive)
REMARK    1  A    between atoms: C3_5  and  N2_6 
REMARK    2  A    between atoms: C4_7  and  C5_8 
REMARK    3  A    between atoms: C5_8  and  S1_9 
REMARK    4  A    between atoms: S1_9  and  C6_10 
ROOT
HETATM    1  N2  UNL     1      12.077 -41.607  10.343  1.00  0.00    -0.253 N 
HETATM    2  C4  UNL     1      11.212 -41.446  11.333  1.00  0.00     0.116 A 
HETATM    3  N3  UNL     1      10.005 -41.255  10.711  1.00  0.00    -0.286 N 
ATOM      4  H3  UNL     1       9.116 -41.099  11.188  1.00  0.00     0.188 HD
HETATM    5  N4  UNL     1      10.168 -41.303   9.402  1.00  0.00    -0.274 N 
ATOM      6  H4  UNL     1       9.432 -41.192   8.703  1.00  0.00     0.189 HD
HETATM    7  C7  UNL     1      11.471 -41.526   9.145  1.00  0.00     0.200 A 
HETATM    8  S2  UNL     1      12.122 -41.658   7.647  1.00  0.00    -0.038 SA
ENDROOT
BRANCH   1   9
HETATM    9  C3  UNL     1      13.501 -41.850  10.426  1.00  0.00     0.159 A 
HETATM   10  N1  UNL     1      14.478 -40.965  10.256  1.00  0.00    -0.339 N 
HETATM   11  C2  UNL     1      15.710 -41.328  10.360  1.00  0.00     0.020 A 
ATOM     12  H1  UNL     1      14.251 -39.993  10.042  1.00  0.00     0.168 HD
HETATM   13  C1  UNL     1      16.860 -40.357  10.177  1.00  0.00     0.069 C 
HETATM   14  C8  UNL     1      15.967 -42.646  10.648  1.00  0.00     0.004 A 
HETATM   15  S3  UNL     1      14.382 -43.271  10.751  1.00  0.00    -0.056 SA
HETATM   16  C9  UNL     1      17.300 -43.322  10.820  1.00  0.00     0.058 C 
ENDBRANCH   1   9
BRANCH   2  17
HETATM   17  C5  UNL     1      11.462 -41.458  12.792  1.00  0.00     0.157 C 
BRANCH  17  18
HETATM   18  S1  UNL     1       9.952 -41.399  13.772  1.00  0.00    -0.093 SA
BRANCH  18  19
HETATM   19  C6  UNL     1       9.083 -39.822  13.577  1.00  0.00     0.416 C 
HETATM   20  F1  UNL     1       8.599 -39.431  14.823  1.00  0.00    -0.203 F 
HETATM   21  F2  UNL     1       7.963 -40.066  12.783  1.00  0.00    -0.203 F 
ENDBRANCH  18  19
ENDBRANCH  17  18
ENDBRANCH   2  17
TORSDOF 4
ENDMDL
MODEL 5
REMARK VINA RESULT: -3.204587797      3.204      5.731
REMARK  4 active torsions:
REMARK  status: ('A' for Active; 'I' for Inactive)
REMARK    1  A    between atoms: C3_5  and  N2_6 
REMARK    2  A    between atoms: C4_7  and  C5_8 
REMARK    3  A    between atoms: C5_8  and  S1_9 
REMARK    4  A    between atoms: S1_9  and  C6_10 
ROOT
HETATM    1  N2  UNL     1      11.413 -41.375  10.977  1.00  0.00    -0.253 N 
HETATM    2  C4  UNL     1      12.735 -41.430  11.003  1.00  0.00     0.116 A 
HETATM    3  N3  UNL     1      13.065 -41.248  12.322  1.00  0.00    -0.286 N 
ATOM      4  H3  UNL     1      14.015 -41.235  12.694  1.00  0.00     0.188 HD
HETATM    5  N4  UNL     1      11.965 -41.092  13.037  1.00  0.00    -0.274 N 
ATOM      6  H4  UNL     1      11.924 -40.940  14.044  1.00  0.00     0.189 HD
HETATM    7  C7  UNL     1      10.908 -41.169  12.207  1.00  0.00     0.200 A 
HETATM    8  S2  UNL     1       9.341 -41.030  12.670  1.00  0.00    -0.038 SA
ENDROOT
BRANCH   1   9
HETATM    9  C3  UNL     1      10.530 -41.512   9.839  1.00  0.00     0.159 A 
HETATM   10  N1  UNL     1      10.060 -42.641   9.320  1.00  0.00    -0.339 N 
HETATM   11  C2  UNL     1       9.278 -42.610   8.296  1.00  0.00     0.020 A 
ATOM     12  H1  UNL     1      10.318 -43.537   9.734  1.00  0.00     0.168 HD
HETATM   13  C1  UNL     1       8.712 -43.869   7.669  1.00  0.00     0.069 C 
HETATM   14  C8  UNL     1       8.957 -41.382   7.772  1.00  0.00     0.004 A 
HETATM   15  S3  UNL     1       9.824 -40.347   8.817  1.00  0.00    -0.056 SA
HETATM   16  C9  UNL     1       8.077 -41.070   6.593  1.00  0.00     0.058 C 
ENDBRANCH   1   9
BRANCH   2  17
HETATM   17  C5  UNL     1      13.676 -41.633   9.878  1.00  0.00     0.157 C 
BRANCH  17  18
HETATM   18  S1  UNL     1      15.404 -41.474  10.359  1.00  0.00    -0.093 SA
BRANCH  18  19
HETATM   19  C6  UNL     1      16.052 -43.012  11.061  1.00  0.00     0.416 C 
HETATM   20  F1  UNL     1      16.702 -43.717  10.052  1.00  0.00    -0.203 F 
HETATM   21  F2  UNL     1      14.955 -43.789  11.433  1.00  0.00    -0.203 F 
ENDBRANCH  18  19
ENDBRANCH  17  18
ENDBRANCH   2  17
TORSDOF 4
ENDMDL
