MODEL 1
REMARK VINA RESULT: -8.412629874      0.000      0.000
REMARK  18 active torsions:
REMARK  status: ('A' for Active; 'I' for Inactive)
REMARK    1  A    between atoms: C2_2  and  C3_3 
REMARK    2  A    between atoms: C3_3  and  C4_4 
REMARK    3  A    between atoms: C4_4  and  C5_5 
REMARK    4  A    between atoms: C5_5  and  N1_6 
REMARK    5  A    between atoms: C5_5  and  C27_39 
REMARK       I    between atoms: N1_6  and  C6_8 
REMARK    6  A    between atoms: C6_8  and  C7_10 
REMARK    7  A    between atoms: C7_10  and  C8_11 
REMARK    8  A    between atoms: C7_10  and  N2_18 
REMARK    9  A    between atoms: C8_11  and  C9_12 
REMARK   10  A    between atoms: N2_18  and  C15_20 
REMARK   11  A    between atoms: C15_20  and  O2_21 
REMARK   12  A    between atoms: C15_20  and  C16_23 
REMARK   13  A    between atoms: C21_28  and  C22_29 
REMARK   14  A    between atoms: C21_28  and  C23_32 
REMARK   15  A    between atoms: C23_32  and  O5_33 
REMARK   16  A    between atoms: N3_35  and  C25_37 
REMARK       I    between atoms: C27_39  and  N4_41 
REMARK   17  A    between atoms: C29_43  and  C30_44 
REMARK   18  A    between atoms: C30_44  and  C31_45 
REMARK       I    between atoms: N5_48  and  C34_49 
ROOT
HETATM    1  C7  UNL     1      48.412  -2.582  11.839  1.00  0.00     0.175 C 
ENDROOT
BRANCH   1   2
HETATM    2  C6  UNL     1      47.231  -2.155  10.977  1.00  0.00     0.241 C 
HETATM    3  N1  UNL     1      45.923  -2.600  11.161  1.00  0.00    -0.346 N 
ATOM      4  H1  UNL     1      45.730  -3.258  11.916  1.00  0.00     0.163 HD
HETATM    5  O1  UNL     1      47.466  -1.354  10.041  1.00  0.00    -0.271 OA
BRANCH   3   6
HETATM    6  C5  UNL     1      44.813  -2.160  10.310  1.00  0.00     0.176 C 
BRANCH   6   7
HETATM    7  C4  UNL     1      43.889  -1.261  11.054  1.00  0.00     0.035 C 
BRANCH   7   8
HETATM    8  C3  UNL     1      44.345   0.200  11.002  1.00  0.00     0.002 C 
BRANCH   8   9
HETATM    9  C2  UNL     1      43.650   0.922  12.161  1.00  0.00    -0.004 C 
HETATM   10  C1  UNL     1      44.589   1.979  12.732  1.00  0.00     0.005 C 
ENDBRANCH   8   9
ENDBRANCH   7   8
ENDBRANCH   6   7
BRANCH   6  11
HETATM   11  C27 UNL     1      44.097  -3.353   9.765  1.00  0.00     0.243 C 
HETATM   12  O6  UNL     1      44.343  -3.646   8.545  1.00  0.00    -0.271 OA
HETATM   13  N4  UNL     1      43.186  -4.152  10.493  1.00  0.00    -0.334 N 
HETATM   14  C28 UNL     1      42.596  -5.299   9.827  1.00  0.00     0.134 C 
HETATM   15  C35 UNL     1      42.826  -3.830  11.853  1.00  0.00     0.256 C 
HETATM   16  C29 UNL     1      41.150  -5.501  10.192  1.00  0.00     0.022 C 
HETATM   17  C33 UNL     1      40.912  -5.402  11.668  1.00  0.00     0.135 C 
HETATM   18  N5  UNL     1      41.432  -4.115  12.097  1.00  0.00    -0.320 N 
HETATM   19  C34 UNL     1      40.612  -3.154  12.746  1.00  0.00     0.332 C 
HETATM   20  N6  UNL     1      39.242  -3.406  13.017  1.00  0.00    -0.040 NA
HETATM   21  O7  UNL     1      41.112  -2.052  13.093  1.00  0.00    -0.251 OA
BRANCH  16  22
HETATM   22  C30 UNL     1      40.602  -6.762   9.613  1.00  0.00     0.007 C 
BRANCH  22  23
HETATM   23  C31 UNL     1      40.799  -7.908  10.594  1.00  0.00    -0.004 C 
HETATM   24  C32 UNL     1      39.618  -8.836  10.651  1.00  0.00     0.005 C 
ENDBRANCH  22  23
ENDBRANCH  16  22
ENDBRANCH   6  11
ENDBRANCH   3   6
ENDBRANCH   1   2
BRANCH   1  25
HETATM   25  C8  UNL     1      49.652  -2.152  11.224  1.00  0.00     0.039 C 
BRANCH  25  26
HETATM   26  C9  UNL     1      50.494  -3.026  10.400  1.00  0.00    -0.012 C 
HETATM   27  C10 UNL     1      51.109  -2.464   9.180  1.00  0.00     0.005 C 
HETATM   28  C11 UNL     1      50.064  -2.437   8.054  1.00  0.00     0.000 C 
HETATM   29  C12 UNL     1      49.913  -3.858   7.527  1.00  0.00     0.000 C 
HETATM   30  C13 UNL     1      50.157  -4.795   8.692  1.00  0.00     0.000 C 
HETATM   31  C14 UNL     1      49.599  -4.205   9.941  1.00  0.00     0.005 C 
ENDBRANCH  25  26
ENDBRANCH   1  25
BRANCH   1  32
HETATM   32  N2  UNL     1      48.096  -2.289  13.210  1.00  0.00    -0.361 N 
ATOM     33  H2  UNL     1      47.117  -2.146  13.458  1.00  0.00     0.162 HD
BRANCH  32  34
HETATM   34  C15 UNL     1      49.058  -2.190  14.230  1.00  0.00     0.117 C 
BRANCH  34  35
HETATM   35  O2  UNL     1      49.731  -3.308  14.358  1.00  0.00    -0.349 OA
ATOM     36  H2  UNL     1      50.332  -3.433  13.633  1.00  0.00     0.219 HD
ENDBRANCH  34  35
BRANCH  34  37
HETATM   37  C16 UNL     1      49.400  -1.087  15.126  1.00  0.00     0.087 C 
HETATM   38  C17 UNL     1      50.368  -1.588  16.181  1.00  0.00     0.014 C 
HETATM   39  C18 UNL     1      51.009  -0.652  17.073  1.00  0.00     0.001 C 
HETATM   40  C19 UNL     1      51.014   0.790  16.700  1.00  0.00     0.002 C 
HETATM   41  C20 UNL     1      49.956   1.172  15.742  1.00  0.00     0.030 C 
HETATM   42  C21 UNL     1      49.792   0.224  14.555  1.00  0.00     0.123 C 
BRANCH  42  43
HETATM   43  C22 UNL     1      48.604   0.781  13.804  1.00  0.00     0.191 C 
HETATM   44  O3  UNL     1      48.568   0.859  12.575  1.00  0.00    -0.647 OA
HETATM   45  O4  UNL     1      47.538   1.214  14.561  1.00  0.00    -0.647 OA
ENDBRANCH  42  43
BRANCH  42  46
HETATM   46  C23 UNL     1      51.004   0.224  13.753  1.00  0.00     0.133 C 
HETATM   47  N3  UNL     1      51.751   1.156  13.092  1.00  0.00    -0.369 N 
HETATM   48  C24 UNL     1      52.913   0.693  12.289  1.00  0.00     0.151 C 
BRANCH  46  49
HETATM   49  O5  UNL     1      51.518  -0.991  13.623  1.00  0.00    -0.348 OA
ATOM     50  H5  UNL     1      52.447  -0.969  13.431  1.00  0.00     0.219 HD
ENDBRANCH  46  49
BRANCH  47  51
HETATM   51  C25 UNL     1      51.618   2.574  13.084  1.00  0.00     0.119 C 
HETATM   52  C26 UNL     1      51.954   3.209  11.725  1.00  0.00     0.026 C 
ENDBRANCH  47  51
ENDBRANCH  42  46
ENDBRANCH  34  37
ENDBRANCH  32  34
ENDBRANCH   1  32
TORSDOF 18
ENDMDL
MODEL 2
REMARK VINA RESULT: -8.324121560      3.532     10.241
REMARK  18 active torsions:
REMARK  status: ('A' for Active; 'I' for Inactive)
REMARK    1  A    between atoms: C2_2  and  C3_3 
REMARK    2  A    between atoms: C3_3  and  C4_4 
REMARK    3  A    between atoms: C4_4  and  C5_5 
REMARK    4  A    between atoms: C5_5  and  N1_6 
REMARK    5  A    between atoms: C5_5  and  C27_39 
REMARK       I    between atoms: N1_6  and  C6_8 
REMARK    6  A    between atoms: C6_8  and  C7_10 
REMARK    7  A    between atoms: C7_10  and  C8_11 
REMARK    8  A    between atoms: C7_10  and  N2_18 
REMARK    9  A    between atoms: C8_11  and  C9_12 
REMARK   10  A    between atoms: N2_18  and  C15_20 
REMARK   11  A    between atoms: C15_20  and  O2_21 
REMARK   12  A    between atoms: C15_20  and  C16_23 
REMARK   13  A    between atoms: C21_28  and  C22_29 
REMARK   14  A    between atoms: C21_28  and  C23_32 
REMARK   15  A    between atoms: C23_32  and  O5_33 
REMARK   16  A    between atoms: N3_35  and  C25_37 
REMARK       I    between atoms: C27_39  and  N4_41 
REMARK   17  A    between atoms: C29_43  and  C30_44 
REMARK   18  A    between atoms: C30_44  and  C31_45 
REMARK       I    between atoms: N5_48  and  C34_49 
ROOT
HETATM    1  C7  UNL     1      40.517  -2.402  12.733  1.00  0.00     0.175 C 
ENDROOT
BRANCH   1   2
HETATM    2  C6  UNL     1      41.812  -1.627  12.527  1.00  0.00     0.241 C 
HETATM    3  N1  UNL     1      42.827  -2.011  11.652  1.00  0.00    -0.346 N 
ATOM      4  H1  UNL     1      42.709  -2.868  11.111  1.00  0.00     0.163 HD
HETATM    5  O1  UNL     1      41.963  -0.579  13.199  1.00  0.00    -0.271 OA
BRANCH   3   6
HETATM    6  C5  UNL     1      44.057  -1.232  11.480  1.00  0.00     0.176 C 
BRANCH   6   7
HETATM    7  C4  UNL     1      43.770   0.099  10.879  1.00  0.00     0.035 C 
BRANCH   7   8
HETATM    8  C3  UNL     1      44.146   1.247  11.820  1.00  0.00     0.002 C 
BRANCH   8   9
HETATM    9  C2  UNL     1      45.554   1.699  11.426  1.00  0.00    -0.004 C 
HETATM   10  C1  UNL     1      46.025   2.783  12.391  1.00  0.00     0.005 C 
ENDBRANCH   8   9
ENDBRANCH   7   8
ENDBRANCH   6   7
BRANCH   6  11
HETATM   11  C27 UNL     1      45.029  -2.009  10.655  1.00  0.00     0.243 C 
HETATM   12  O6  UNL     1      44.524  -2.745   9.739  1.00  0.00    -0.271 OA
HETATM   13  N4  UNL     1      46.433  -1.986  10.821  1.00  0.00    -0.334 N 
HETATM   14  C28 UNL     1      47.244  -2.777   9.914  1.00  0.00     0.134 C 
HETATM   15  C35 UNL     1      47.050  -1.221  11.878  1.00  0.00     0.256 C 
HETATM   16  C29 UNL     1      48.416  -3.425  10.600  1.00  0.00     0.022 C 
HETATM   17  C33 UNL     1      49.159  -2.475  11.489  1.00  0.00     0.135 C 
HETATM   18  N5  UNL     1      48.190  -1.919  12.420  1.00  0.00    -0.320 N 
HETATM   19  C34 UNL     1      48.348  -2.043  13.826  1.00  0.00     0.332 C 
HETATM   20  N6  UNL     1      49.464  -2.710  14.395  1.00  0.00    -0.040 NA
HETATM   21  O7  UNL     1      47.477  -1.548  14.588  1.00  0.00    -0.251 OA
BRANCH  16  22
HETATM   22  C30 UNL     1      49.317  -4.114   9.629  1.00  0.00     0.007 C 
BRANCH  22  23
HETATM   23  C31 UNL     1      50.199  -3.091   8.930  1.00  0.00    -0.004 C 
HETATM   24  C32 UNL     1      49.794  -2.852   7.502  1.00  0.00     0.005 C 
ENDBRANCH  22  23
ENDBRANCH  16  22
ENDBRANCH   6  11
ENDBRANCH   3   6
ENDBRANCH   1   2
BRANCH   1  25
HETATM   25  C8  UNL     1      40.477  -3.543  11.840  1.00  0.00     0.039 C 
BRANCH  25  26
HETATM   26  C9  UNL     1      40.953  -4.880  12.211  1.00  0.00    -0.012 C 
HETATM   27  C10 UNL     1      42.118  -5.437  11.491  1.00  0.00     0.005 C 
HETATM   28  C11 UNL     1      41.655  -5.995  10.136  1.00  0.00     0.000 C 
HETATM   29  C12 UNL     1      40.965  -7.328  10.396  1.00  0.00     0.000 C 
HETATM   30  C13 UNL     1      40.307  -7.234  11.757  1.00  0.00     0.000 C 
HETATM   31  C14 UNL     1      39.776  -5.858  11.968  1.00  0.00     0.005 C 
ENDBRANCH  25  26
ENDBRANCH   1  25
BRANCH   1  32
HETATM   32  N2  UNL     1      40.289  -2.528  14.147  1.00  0.00    -0.361 N 
ATOM     33  H2  UNL     1      40.825  -3.229  14.659  1.00  0.00     0.162 HD
BRANCH  32  34
HETATM   34  C15 UNL     1      39.371  -1.743  14.864  1.00  0.00     0.117 C 
BRANCH  34  35
HETATM   35  O2  UNL     1      39.963  -0.717  15.427  1.00  0.00    -0.349 OA
ATOM     36  H2  UNL     1      39.329  -0.122  15.812  1.00  0.00     0.219 HD
ENDBRANCH  34  35
BRANCH  34  37
HETATM   37  C16 UNL     1      37.932  -1.892  15.070  1.00  0.00     0.087 C 
HETATM   38  C17 UNL     1      37.461  -3.155  14.374  1.00  0.00     0.014 C 
HETATM   39  C18 UNL     1      36.115  -3.633  14.584  1.00  0.00     0.001 C 
HETATM   40  C19 UNL     1      35.355  -3.115  15.756  1.00  0.00     0.002 C 
HETATM   41  C20 UNL     1      35.851  -1.825  16.278  1.00  0.00     0.030 C 
HETATM   42  C21 UNL     1      37.368  -1.735  16.433  1.00  0.00     0.123 C 
BRANCH  42  43
HETATM   43  C22 UNL     1      37.608  -0.311  16.877  1.00  0.00     0.191 C 
HETATM   44  O3  UNL     1      36.941   0.639  16.464  1.00  0.00    -0.647 OA
HETATM   45  O4  UNL     1      38.628  -0.106  17.781  1.00  0.00    -0.647 OA
ENDBRANCH  42  43
BRANCH  42  46
HETATM   46  C23 UNL     1      37.821  -2.706  17.416  1.00  0.00     0.133 C 
HETATM   47  N3  UNL     1      37.366  -3.187  18.610  1.00  0.00    -0.369 N 
HETATM   48  C24 UNL     1      38.221  -4.146  19.358  1.00  0.00     0.151 C 
BRANCH  46  49
HETATM   49  O5  UNL     1      38.972  -3.266  17.073  1.00  0.00    -0.348 OA
ATOM     50  H5  UNL     1      39.400  -3.687  17.809  1.00  0.00     0.219 HD
ENDBRANCH  46  49
BRANCH  47  51
HETATM   51  C25 UNL     1      36.125  -2.943  19.263  1.00  0.00     0.119 C 
HETATM   52  C26 UNL     1      36.101  -1.622  20.050  1.00  0.00     0.026 C 
ENDBRANCH  47  51
ENDBRANCH  42  46
ENDBRANCH  34  37
ENDBRANCH  32  34
ENDBRANCH   1  32
TORSDOF 18
ENDMDL
MODEL 3
REMARK VINA RESULT: -8.232653560      1.391      2.620
REMARK  18 active torsions:
REMARK  status: ('A' for Active; 'I' for Inactive)
REMARK    1  A    between atoms: C2_2  and  C3_3 
REMARK    2  A    between atoms: C3_3  and  C4_4 
REMARK    3  A    between atoms: C4_4  and  C5_5 
REMARK    4  A    between atoms: C5_5  and  N1_6 
REMARK    5  A    between atoms: C5_5  and  C27_39 
REMARK       I    between atoms: N1_6  and  C6_8 
REMARK    6  A    between atoms: C6_8  and  C7_10 
REMARK    7  A    between atoms: C7_10  and  C8_11 
REMARK    8  A    between atoms: C7_10  and  N2_18 
REMARK    9  A    between atoms: C8_11  and  C9_12 
REMARK   10  A    between atoms: N2_18  and  C15_20 
REMARK   11  A    between atoms: C15_20  and  O2_21 
REMARK   12  A    between atoms: C15_20  and  C16_23 
REMARK   13  A    between atoms: C21_28  and  C22_29 
REMARK   14  A    between atoms: C21_28  and  C23_32 
REMARK   15  A    between atoms: C23_32  and  O5_33 
REMARK   16  A    between atoms: N3_35  and  C25_37 
REMARK       I    between atoms: C27_39  and  N4_41 
REMARK   17  A    between atoms: C29_43  and  C30_44 
REMARK   18  A    between atoms: C30_44  and  C31_45 
REMARK       I    between atoms: N5_48  and  C34_49 
ROOT
HETATM    1  C7  UNL     1      48.725  -2.777  11.329  1.00  0.00     0.175 C 
ENDROOT
BRANCH   1   2
HETATM    2  C6  UNL     1      47.441  -2.296  10.666  1.00  0.00     0.241 C 
HETATM    3  N1  UNL     1      46.159  -2.629  11.101  1.00  0.00    -0.346 N 
ATOM      4  H1  UNL     1      46.060  -3.237  11.913  1.00  0.00     0.163 HD
HETATM    5  O1  UNL     1      47.561  -1.556   9.660  1.00  0.00    -0.271 OA
BRANCH   3   6
HETATM    6  C5  UNL     1      44.948  -2.139  10.435  1.00  0.00     0.176 C 
BRANCH   6   7
HETATM    7  C4  UNL     1      44.088  -1.375  11.378  1.00  0.00     0.035 C 
BRANCH   7   8
HETATM    8  C3  UNL     1      44.120   0.129  11.095  1.00  0.00     0.002 C 
BRANCH   8   9
HETATM    9  C2  UNL     1      45.451   0.654  11.639  1.00  0.00    -0.004 C 
HETATM   10  C1  UNL     1      45.201   1.920  12.452  1.00  0.00     0.005 C 
ENDBRANCH   8   9
ENDBRANCH   7   8
ENDBRANCH   6   7
BRANCH   6  11
HETATM   11  C27 UNL     1      44.212  -3.288   9.829  1.00  0.00     0.243 C 
HETATM   12  O6  UNL     1      44.480  -3.544   8.604  1.00  0.00    -0.271 OA
HETATM   13  N4  UNL     1      43.259  -4.086  10.503  1.00  0.00    -0.334 N 
HETATM   14  C28 UNL     1      42.653  -5.189   9.781  1.00  0.00     0.134 C 
HETATM   15  C35 UNL     1      42.874  -3.803  11.865  1.00  0.00     0.256 C 
HETATM   16  C29 UNL     1      41.193  -5.360  10.102  1.00  0.00     0.022 C 
HETATM   17  C33 UNL     1      40.920  -5.308  11.574  1.00  0.00     0.135 C 
HETATM   18  N5  UNL     1      41.467  -4.054  12.064  1.00  0.00    -0.320 N 
HETATM   19  C34 UNL     1      40.659  -3.094  12.729  1.00  0.00     0.332 C 
HETATM   20  N6  UNL     1      39.276  -3.313  12.956  1.00  0.00    -0.040 NA
HETATM   21  O7  UNL     1      41.183  -2.021  13.129  1.00  0.00    -0.251 OA
BRANCH  16  22
HETATM   22  C30 UNL     1      40.622  -6.582   9.463  1.00  0.00     0.007 C 
BRANCH  22  23
HETATM   23  C31 UNL     1      41.061  -7.819  10.233  1.00  0.00    -0.004 C 
HETATM   24  C32 UNL     1      39.927  -8.767  10.506  1.00  0.00     0.005 C 
ENDBRANCH  22  23
ENDBRANCH  16  22
ENDBRANCH   6  11
ENDBRANCH   3   6
ENDBRANCH   1   2
BRANCH   1  25
HETATM   25  C8  UNL     1      49.872  -2.175  10.679  1.00  0.00     0.039 C 
BRANCH  25  26
HETATM   26  C9  UNL     1      50.806  -2.921   9.827  1.00  0.00    -0.012 C 
HETATM   27  C10 UNL     1      50.911  -2.545   8.402  1.00  0.00     0.005 C 
HETATM   28  C11 UNL     1      49.736  -3.163   7.628  1.00  0.00     0.000 C 
HETATM   29  C12 UNL     1      50.037  -4.643   7.434  1.00  0.00     0.000 C 
HETATM   30  C13 UNL     1      50.840  -5.098   8.636  1.00  0.00     0.000 C 
HETATM   31  C14 UNL     1      50.354  -4.403   9.860  1.00  0.00     0.005 C 
ENDBRANCH  25  26
ENDBRANCH   1  25
BRANCH   1  32
HETATM   32  N2  UNL     1      48.540  -2.730  12.753  1.00  0.00    -0.361 N 
ATOM     33  H2  UNL     1      48.455  -3.612  13.257  1.00  0.00     0.162 HD
BRANCH  32  34
HETATM   34  C15 UNL     1      48.468  -1.537  13.493  1.00  0.00     0.117 C 
BRANCH  34  35
HETATM   35  O2  UNL     1      47.268  -1.357  13.990  1.00  0.00    -0.349 OA
ATOM     36  H2  UNL     1      47.287  -0.761  14.729  1.00  0.00     0.219 HD
ENDBRANCH  34  35
BRANCH  34  37
HETATM   37  C16 UNL     1      49.478  -0.518  13.775  1.00  0.00     0.087 C 
HETATM   38  C17 UNL     1      48.783   0.758  14.213  1.00  0.00     0.014 C 
HETATM   39  C18 UNL     1      49.560   1.857  14.733  1.00  0.00     0.001 C 
HETATM   40  C19 UNL     1      50.952   1.588  15.188  1.00  0.00     0.002 C 
HETATM   41  C20 UNL     1      51.553   0.369  14.609  1.00  0.00     0.030 C 
HETATM   42  C21 UNL     1      50.648  -0.861  14.618  1.00  0.00     0.123 C 
BRANCH  42  43
HETATM   43  C22 UNL     1      51.453  -1.915  13.894  1.00  0.00     0.191 C 
HETATM   44  O3  UNL     1      51.325  -3.120  14.112  1.00  0.00    -0.647 OA
HETATM   45  O4  UNL     1      52.364  -1.468  12.962  1.00  0.00    -0.647 OA
ENDBRANCH  42  43
BRANCH  42  46
HETATM   46  C23 UNL     1      50.346  -1.239  15.989  1.00  0.00     0.133 C 
HETATM   47  N3  UNL     1      51.063  -1.523  17.116  1.00  0.00    -0.369 N 
HETATM   48  C24 UNL     1      50.328  -1.972  18.328  1.00  0.00     0.151 C 
BRANCH  46  49
HETATM   49  O5  UNL     1      49.042  -1.340  16.205  1.00  0.00    -0.348 OA
ATOM     50  H5  UNL     1      48.663  -0.523  16.505  1.00  0.00     0.219 HD
ENDBRANCH  46  49
BRANCH  47  51
HETATM   51  C25 UNL     1      52.464  -1.411  17.342  1.00  0.00     0.119 C 
HETATM   52  C26 UNL     1      53.211  -2.748  17.208  1.00  0.00     0.026 C 
ENDBRANCH  47  51
ENDBRANCH  42  46
ENDBRANCH  34  37
ENDBRANCH  32  34
ENDBRANCH   1  32
TORSDOF 18
ENDMDL
MODEL 4
REMARK VINA RESULT: -8.210523342      1.747      2.952
REMARK  18 active torsions:
REMARK  status: ('A' for Active; 'I' for Inactive)
REMARK    1  A    between atoms: C2_2  and  C3_3 
REMARK    2  A    between atoms: C3_3  and  C4_4 
REMARK    3  A    between atoms: C4_4  and  C5_5 
REMARK    4  A    between atoms: C5_5  and  N1_6 
REMARK    5  A    between atoms: C5_5  and  C27_39 
REMARK       I    between atoms: N1_6  and  C6_8 
REMARK    6  A    between atoms: C6_8  and  C7_10 
REMARK    7  A    between atoms: C7_10  and  C8_11 
REMARK    8  A    between atoms: C7_10  and  N2_18 
REMARK    9  A    between atoms: C8_11  and  C9_12 
REMARK   10  A    between atoms: N2_18  and  C15_20 
REMARK   11  A    between atoms: C15_20  and  O2_21 
REMARK   12  A    between atoms: C15_20  and  C16_23 
REMARK   13  A    between atoms: C21_28  and  C22_29 
REMARK   14  A    between atoms: C21_28  and  C23_32 
REMARK   15  A    between atoms: C23_32  and  O5_33 
REMARK   16  A    between atoms: N3_35  and  C25_37 
REMARK       I    between atoms: C27_39  and  N4_41 
REMARK   17  A    between atoms: C29_43  and  C30_44 
REMARK   18  A    between atoms: C30_44  and  C31_45 
REMARK       I    between atoms: N5_48  and  C34_49 
ROOT
HETATM    1  C7  UNL     1      48.639  -2.771  11.465  1.00  0.00     0.175 C 
ENDROOT
BRANCH   1   2
HETATM    2  C6  UNL     1      47.353  -2.264  10.826  1.00  0.00     0.241 C 
HETATM    3  N1  UNL     1      46.078  -2.718  11.160  1.00  0.00    -0.346 N 
ATOM      4  H1  UNL     1      45.986  -3.439  11.875  1.00  0.00     0.163 HD
HETATM    5  O1  UNL     1      47.464  -1.384   9.939  1.00  0.00    -0.271 OA
BRANCH   3   6
HETATM    6  C5  UNL     1      44.864  -2.198  10.522  1.00  0.00     0.176 C 
BRANCH   6   7
HETATM    7  C4  UNL     1      43.952  -1.583  11.524  1.00  0.00     0.035 C 
BRANCH   7   8
HETATM    8  C3  UNL     1      43.716  -0.096  11.249  1.00  0.00     0.002 C 
BRANCH   8   9
HETATM    9  C2  UNL     1      45.059   0.610  11.450  1.00  0.00    -0.004 C 
HETATM   10  C1  UNL     1      44.847   1.874  12.277  1.00  0.00     0.005 C 
ENDBRANCH   8   9
ENDBRANCH   7   8
ENDBRANCH   6   7
BRANCH   6  11
HETATM   11  C27 UNL     1      44.188  -3.295   9.766  1.00  0.00     0.243 C 
HETATM   12  O6  UNL     1      44.475  -3.377   8.521  1.00  0.00    -0.271 OA
HETATM   13  N4  UNL     1      43.274  -4.219  10.322  1.00  0.00    -0.334 N 
HETATM   14  C28 UNL     1      42.727  -5.248   9.458  1.00  0.00     0.134 C 
HETATM   15  C35 UNL     1      42.871  -4.133  11.705  1.00  0.00     0.256 C 
HETATM   16  C29 UNL     1      41.277  -5.531   9.740  1.00  0.00     0.022 C 
HETATM   17  C33 UNL     1      40.995  -5.683  11.203  1.00  0.00     0.135 C 
HETATM   18  N5  UNL     1      41.477  -4.477  11.856  1.00  0.00    -0.320 N 
HETATM   19  C34 UNL     1      40.619  -3.651  12.630  1.00  0.00     0.332 C 
HETATM   20  N6  UNL     1      39.248  -3.966  12.813  1.00  0.00    -0.040 NA
HETATM   21  O7  UNL     1      41.087  -2.615  13.170  1.00  0.00    -0.251 OA
BRANCH  16  22
HETATM   22  C30 UNL     1      40.771  -6.688   8.943  1.00  0.00     0.007 C 
BRANCH  22  23
HETATM   23  C31 UNL     1      40.242  -7.765   9.878  1.00  0.00    -0.004 C 
HETATM   24  C32 UNL     1      38.804  -8.113   9.612  1.00  0.00     0.005 C 
ENDBRANCH  22  23
ENDBRANCH  16  22
ENDBRANCH   6  11
ENDBRANCH   3   6
ENDBRANCH   1   2
BRANCH   1  25
HETATM   25  C8  UNL     1      49.780  -2.089  10.885  1.00  0.00     0.039 C 
BRANCH  25  26
HETATM   26  C9  UNL     1      50.742  -2.738   9.987  1.00  0.00    -0.012 C 
HETATM   27  C10 UNL     1      50.786  -2.308   8.574  1.00  0.00     0.005 C 
HETATM   28  C11 UNL     1      49.639  -2.981   7.805  1.00  0.00     0.000 C 
HETATM   29  C12 UNL     1      50.037  -4.429   7.553  1.00  0.00     0.000 C 
HETATM   30  C13 UNL     1      50.898  -4.867   8.720  1.00  0.00     0.000 C 
HETATM   31  C14 UNL     1      50.396  -4.249   9.978  1.00  0.00     0.005 C 
ENDBRANCH  25  26
ENDBRANCH   1  25
BRANCH   1  32
HETATM   32  N2  UNL     1      48.435  -2.849  12.885  1.00  0.00    -0.361 N 
ATOM     33  H2  UNL     1      48.359  -3.773  13.310  1.00  0.00     0.162 HD
BRANCH  32  34
HETATM   34  C15 UNL     1      48.335  -1.726  13.724  1.00  0.00     0.117 C 
BRANCH  34  35
HETATM   35  O2  UNL     1      47.154  -1.163  13.625  1.00  0.00    -0.349 OA
ATOM     36  H2  UNL     1      47.146  -0.306  14.035  1.00  0.00     0.219 HD
ENDBRANCH  34  35
BRANCH  34  37
HETATM   37  C16 UNL     1      49.300  -1.119  14.639  1.00  0.00     0.087 C 
HETATM   38  C17 UNL     1      48.551  -0.316  15.685  1.00  0.00     0.014 C 
HETATM   39  C18 UNL     1      49.261   0.227  16.819  1.00  0.00     0.001 C 
HETATM   40  C19 UNL     1      50.606  -0.326  17.143  1.00  0.00     0.002 C 
HETATM   41  C20 UNL     1      51.274  -0.996  16.009  1.00  0.00     0.030 C 
HETATM   42  C21 UNL     1      50.386  -1.949  15.212  1.00  0.00     0.123 C 
BRANCH  42  43
HETATM   43  C22 UNL     1      51.271  -2.411  14.077  1.00  0.00     0.191 C 
HETATM   44  O3  UNL     1      51.305  -3.580  13.689  1.00  0.00    -0.647 OA
HETATM   45  O4  UNL     1      52.061  -1.455  13.478  1.00  0.00    -0.647 OA
ENDBRANCH  42  43
BRANCH  42  46
HETATM   46  C23 UNL     1      49.956  -3.048  16.061  1.00  0.00     0.133 C 
HETATM   47  N3  UNL     1      50.533  -3.851  17.003  1.00  0.00    -0.369 N 
HETATM   48  C24 UNL     1      49.722  -4.955  17.583  1.00  0.00     0.151 C 
BRANCH  46  49
HETATM   49  O5  UNL     1      48.681  -3.356  15.874  1.00  0.00    -0.348 OA
ATOM     50  H5  UNL     1      48.097  -2.769  16.339  1.00  0.00     0.219 HD
ENDBRANCH  46  49
BRANCH  47  51
HETATM   51  C25 UNL     1      51.832  -3.771  17.580  1.00  0.00     0.119 C 
HETATM   52  C26 UNL     1      52.902  -4.530  16.778  1.00  0.00     0.026 C 
ENDBRANCH  47  51
ENDBRANCH  42  46
ENDBRANCH  34  37
ENDBRANCH  32  34
ENDBRANCH   1  32
TORSDOF 18
ENDMDL
MODEL 5
REMARK VINA RESULT: -8.111354037      0.946      1.151
REMARK  18 active torsions:
REMARK  status: ('A' for Active; 'I' for Inactive)
REMARK    1  A    between atoms: C2_2  and  C3_3 
REMARK    2  A    between atoms: C3_3  and  C4_4 
REMARK    3  A    between atoms: C4_4  and  C5_5 
REMARK    4  A    between atoms: C5_5  and  N1_6 
REMARK    5  A    between atoms: C5_5  and  C27_39 
REMARK       I    between atoms: N1_6  and  C6_8 
REMARK    6  A    between atoms: C6_8  and  C7_10 
REMARK    7  A    between atoms: C7_10  and  C8_11 
REMARK    8  A    between atoms: C7_10  and  N2_18 
REMARK    9  A    between atoms: C8_11  and  C9_12 
REMARK   10  A    between atoms: N2_18  and  C15_20 
REMARK   11  A    between atoms: C15_20  and  O2_21 
REMARK   12  A    between atoms: C15_20  and  C16_23 
REMARK   13  A    between atoms: C21_28  and  C22_29 
REMARK   14  A    between atoms: C21_28  and  C23_32 
REMARK   15  A    between atoms: C23_32  and  O5_33 
REMARK   16  A    between atoms: N3_35  and  C25_37 
REMARK       I    between atoms: C27_39  and  N4_41 
REMARK   17  A    between atoms: C29_43  and  C30_44 
REMARK   18  A    between atoms: C30_44  and  C31_45 
REMARK       I    between atoms: N5_48  and  C34_49 
ROOT
HETATM    1  C7  UNL     1      48.634  -2.870  11.366  1.00  0.00     0.175 C 
ENDROOT
BRANCH   1   2
HETATM    2  C6  UNL     1      47.385  -2.379  10.647  1.00  0.00     0.241 C 
HETATM    3  N1  UNL     1      46.098  -2.857  10.892  1.00  0.00    -0.346 N 
ATOM      4  H1  UNL     1      45.972  -3.586  11.594  1.00  0.00     0.163 HD
HETATM    5  O1  UNL     1      47.539  -1.489   9.777  1.00  0.00    -0.271 OA
BRANCH   3   6
HETATM    6  C5  UNL     1      44.921  -2.351  10.179  1.00  0.00     0.176 C 
BRANCH   6   7
HETATM    7  C4  UNL     1      44.095  -1.478  11.057  1.00  0.00     0.035 C 
BRANCH   7   8
HETATM    8  C3  UNL     1      44.487  -0.003  10.932  1.00  0.00     0.002 C 
BRANCH   8   9
HETATM    9  C2  UNL     1      43.628   0.770  11.936  1.00  0.00    -0.004 C 
HETATM   10  C1  UNL     1      44.477   1.849  12.602  1.00  0.00     0.005 C 
ENDBRANCH   8   9
ENDBRANCH   7   8
ENDBRANCH   6   7
BRANCH   6  11
HETATM   11  C27 UNL     1      44.128  -3.500   9.647  1.00  0.00     0.243 C 
HETATM   12  O6  UNL     1      44.326  -3.797   8.419  1.00  0.00    -0.271 OA
HETATM   13  N4  UNL     1      43.195  -4.255  10.394  1.00  0.00    -0.334 N 
HETATM   14  C28 UNL     1      42.527  -5.364   9.737  1.00  0.00     0.134 C 
HETATM   15  C35 UNL     1      42.889  -3.925  11.765  1.00  0.00     0.256 C 
HETATM   16  C29 UNL     1      41.083  -5.492  10.140  1.00  0.00     0.022 C 
HETATM   17  C33 UNL     1      40.889  -5.391  11.622  1.00  0.00     0.135 C 
HETATM   18  N5  UNL     1      41.489  -4.137  12.045  1.00  0.00    -0.320 N 
HETATM   19  C34 UNL     1      40.739  -3.139  12.722  1.00  0.00     0.332 C 
HETATM   20  N6  UNL     1      39.365  -3.319  13.027  1.00  0.00    -0.040 NA
HETATM   21  O7  UNL     1      41.306  -2.068  13.062  1.00  0.00    -0.251 OA
BRANCH  16  22
HETATM   22  C30 UNL     1      40.453  -6.718   9.567  1.00  0.00     0.007 C 
BRANCH  22  23
HETATM   23  C31 UNL     1      40.833  -7.930  10.404  1.00  0.00    -0.004 C 
HETATM   24  C32 UNL     1      39.673  -8.855  10.650  1.00  0.00     0.005 C 
ENDBRANCH  22  23
ENDBRANCH  16  22
ENDBRANCH   6  11
ENDBRANCH   3   6
ENDBRANCH   1   2
BRANCH   1  25
HETATM   25  C8  UNL     1      49.809  -2.227  10.811  1.00  0.00     0.039 C 
BRANCH  25  26
HETATM   26  C9  UNL     1      50.758  -2.902   9.919  1.00  0.00    -0.012 C 
HETATM   27  C10 UNL     1      50.866  -2.434   8.522  1.00  0.00     0.005 C 
HETATM   28  C11 UNL     1      49.705  -3.017   7.701  1.00  0.00     0.000 C 
HETATM   29  C12 UNL     1      50.029  -4.477   7.414  1.00  0.00     0.000 C 
HETATM   30  C13 UNL     1      50.831  -4.997   8.590  1.00  0.00     0.000 C 
HETATM   31  C14 UNL     1      50.328  -4.390   9.853  1.00  0.00     0.005 C 
ENDBRANCH  25  26
ENDBRANCH   1  25
BRANCH   1  32
HETATM   32  N2  UNL     1      48.365  -2.884  12.778  1.00  0.00    -0.361 N 
ATOM     33  H2  UNL     1      48.378  -3.781  13.261  1.00  0.00     0.162 HD
BRANCH  32  34
HETATM   34  C15 UNL     1      48.083  -1.731  13.531  1.00  0.00     0.117 C 
BRANCH  34  35
HETATM   35  O2  UNL     1      47.170  -0.993  12.947  1.00  0.00    -0.349 OA
ATOM     36  H2  UNL     1      47.423  -0.077  12.937  1.00  0.00     0.219 HD
ENDBRANCH  34  35
BRANCH  34  37
HETATM   37  C16 UNL     1      48.630  -1.254  14.800  1.00  0.00     0.087 C 
HETATM   38  C17 UNL     1      49.695  -2.224  15.276  1.00  0.00     0.014 C 
HETATM   39  C18 UNL     1      50.523  -1.885  16.408  1.00  0.00     0.001 C 
HETATM   40  C19 UNL     1      50.586  -0.460  16.837  1.00  0.00     0.002 C 
HETATM   41  C20 UNL     1      49.437   0.357  16.395  1.00  0.00     0.030 C 
HETATM   42  C21 UNL     1      49.037   0.165  14.933  1.00  0.00     0.123 C 
BRANCH  42  43
HETATM   43  C22 UNL     1      47.803   1.023  14.776  1.00  0.00     0.191 C 
HETATM   44  O3  UNL     1      47.727   1.940  13.958  1.00  0.00    -0.647 OA
HETATM   45  O4  UNL     1      46.739   0.738  15.604  1.00  0.00    -0.647 OA
ENDBRANCH  42  43
BRANCH  42  46
HETATM   46  C23 UNL     1      50.123   0.592  14.066  1.00  0.00     0.133 C 
HETATM   47  N3  UNL     1      51.141   1.498  14.132  1.00  0.00    -0.369 N 
HETATM   48  C24 UNL     1      52.003   1.685  12.935  1.00  0.00     0.151 C 
BRANCH  46  49
HETATM   49  O5  UNL     1      50.125  -0.058  12.910  1.00  0.00    -0.348 OA
ATOM     50  H5  UNL     1      50.966  -0.458  12.726  1.00  0.00     0.219 HD
ENDBRANCH  46  49
BRANCH  47  51
HETATM   51  C25 UNL     1      51.562   2.299  15.232  1.00  0.00     0.119 C 
HETATM   52  C26 UNL     1      50.839   3.654  15.309  1.00  0.00     0.026 C 
ENDBRANCH  47  51
ENDBRANCH  42  46
ENDBRANCH  34  37
ENDBRANCH  32  34
ENDBRANCH   1  32
TORSDOF 18
ENDMDL
