MODEL 1
REMARK VINA RESULT: -9.985170337      0.000      0.000
REMARK  19 active torsions:
REMARK  status: ('A' for Active; 'I' for Inactive)
REMARK    1  A    between atoms: C2_2  and  C3_3 
REMARK    2  A    between atoms: C3_3  and  C4_4 
REMARK    3  A    between atoms: C4_4  and  C5_5 
REMARK    4  A    between atoms: C5_5  and  C6_6 
REMARK    5  A    between atoms: C6_6  and  C7_7 
REMARK    6  A    between atoms: C7_7  and  N1_8 
REMARK    7  A    between atoms: N1_8  and  C8_10 
REMARK    8  A    between atoms: C8_10  and  O1_11 
REMARK    9  A    between atoms: C8_10  and  C9_13 
REMARK   10  A    between atoms: C9_13  and  C10_14 
REMARK   11  A    between atoms: C10_14  and  C11_15 
REMARK   12  A    between atoms: C11_15  and  C12_16 
REMARK   13  A    between atoms: N2_28  and  C23_29 
REMARK   14  A    between atoms: C23_29  and  C24_30 
REMARK   15  A    between atoms: C24_30  and  N3_31 
REMARK       I    between atoms: N3_31  and  C25_33 
REMARK   16  A    between atoms: C25_33  and  C26_35 
REMARK   17  A    between atoms: C29_38  and  S1_39 
REMARK   18  A    between atoms: N5_44  and  C31_45 
REMARK   19  A    between atoms: C31_45  and  C32_46 
ROOT
HETATM    1  C3  UNL     1      39.441  -7.732  10.767  1.00  0.00     0.125 C 
HETATM    2  C22 UNL     1      39.362  -6.432  11.535  1.00  0.00     0.256 C 
HETATM    3  O2  UNL     1      40.284  -5.784  12.087  1.00  0.00    -0.270 OA
HETATM    4  N2  UNL     1      38.001  -6.025  11.541  1.00  0.00    -0.253 N 
HETATM    5  N5  UNL     1      37.339  -6.703  10.486  1.00  0.00    -0.245 N 
HETATM    6  C33 UNL     1      38.314  -7.535   9.832  1.00  0.00     0.257 C 
HETATM    7  O7  UNL     1      38.179  -7.988   8.666  1.00  0.00    -0.270 OA
ENDROOT
BRANCH   1   8
HETATM    8  C2  UNL     1      39.121  -8.805  11.776  1.00  0.00     0.025 C 
HETATM    9  C1  UNL     1      40.296  -9.169  12.642  1.00  0.00     0.007 C 
ENDBRANCH   1   8
BRANCH   1  10
HETATM   10  C4  UNL     1      40.779  -7.874  10.136  1.00  0.00     0.029 C 
BRANCH  10  11
HETATM   11  C5  UNL     1      41.036  -6.854   9.084  1.00  0.00     0.003 C 
BRANCH  11  12
HETATM   12  C6  UNL     1      42.401  -6.177   9.273  1.00  0.00     0.020 C 
BRANCH  12  13
HETATM   13  C7  UNL     1      42.175  -4.682   9.139  1.00  0.00     0.121 C 
BRANCH  13  14
HETATM   14  N1  UNL     1      43.478  -3.978   8.974  1.00  0.00    -0.371 N 
ATOM     15  H1  UNL     1      44.134  -4.228   8.234  1.00  0.00     0.161 HD
BRANCH  14  16
HETATM   16  C8  UNL     1      43.752  -2.955   9.889  1.00  0.00     0.135 C 
BRANCH  16  17
HETATM   17  O1  UNL     1      42.731  -2.409  10.487  1.00  0.00    -0.346 OA
ATOM     18  H1  UNL     1      42.895  -1.993  11.325  1.00  0.00     0.219 HD
ENDBRANCH  16  17
BRANCH  16  19
HETATM   19  C9  UNL     1      45.018  -2.421  10.262  1.00  0.00     0.051 C 
BRANCH  19  20
HETATM   20  C10 UNL     1      46.240  -2.795  10.126  1.00  0.00    -0.022 C 
BRANCH  20  21
HETATM   21  C11 UNL     1      47.406  -2.769  11.012  1.00  0.00     0.036 C 
BRANCH  21  22
HETATM   22  C12 UNL     1      48.648  -3.049  10.175  1.00  0.00    -0.036 C 
HETATM   23  C13 UNL     1      49.890  -2.702  10.940  1.00  0.00     0.014 C 
HETATM   24  C14 UNL     1      51.080  -2.975  10.042  1.00  0.00    -0.013 C 
HETATM   25  C15 UNL     1      51.051  -2.085   8.828  1.00  0.00     0.009 C 
HETATM   26  C19 UNL     1      51.095  -4.404   9.554  1.00  0.00     0.009 C 
HETATM   27  C16 UNL     1      49.779  -2.337   8.069  1.00  0.00    -0.013 C 
HETATM   28  C17 UNL     1      49.792  -3.768   7.574  1.00  0.00     0.009 C 
HETATM   29  C21 UNL     1      48.560  -2.155   8.943  1.00  0.00     0.014 C 
HETATM   30  C18 UNL     1      49.830  -4.685   8.762  1.00  0.00    -0.013 C 
HETATM   31  C20 UNL     1      48.663  -4.465   9.704  1.00  0.00     0.014 C 
ENDBRANCH  21  22
ENDBRANCH  20  21
ENDBRANCH  19  20
ENDBRANCH  16  19
ENDBRANCH  14  16
ENDBRANCH  13  14
ENDBRANCH  12  13
ENDBRANCH  11  12
ENDBRANCH  10  11
ENDBRANCH   1  10
BRANCH   4  32
HETATM   32  C23 UNL     1      37.350  -5.107  12.416  1.00  0.00     0.172 C 
BRANCH  32  33
HETATM   33  C24 UNL     1      38.204  -3.869  12.708  1.00  0.00     0.145 C 
BRANCH  33  34
HETATM   34  N3  UNL     1      37.770  -3.351  13.986  1.00  0.00    -0.354 N 
HETATM   35  C25 UNL     1      38.536  -2.382  14.708  1.00  0.00     0.268 C 
HETATM   36  O3  UNL     1      39.616  -1.968  14.213  1.00  0.00    -0.266 OA
ATOM     37  H3  UNL     1      36.893  -3.686  14.385  1.00  0.00     0.162 HD
BRANCH  35  38
HETATM   38  C26 UNL     1      38.092  -1.867  16.000  1.00  0.00     0.101 A 
HETATM   39  C27 UNL     1      38.806  -1.077  16.848  1.00  0.00     0.038 A 
HETATM   40  C28 UNL     1      38.010  -0.837  17.942  1.00  0.00     0.041 A 
HETATM   41  C29 UNL     1      36.812  -1.474  17.770  1.00  0.00     0.100 A 
HETATM   42  N4  UNL     1      36.882  -2.094  16.585  1.00  0.00    -0.344 N 
ATOM     43  H4  UNL     1      36.135  -2.655  16.178  1.00  0.00     0.167 HD
BRANCH  41  44
HETATM   44  S1  UNL     1      35.429  -1.500  18.876  1.00  0.00     0.062 S 
HETATM   45  C30 UNL     1      35.650  -0.214  20.110  1.00  0.00     0.134 C 
HETATM   46  O4  UNL     1      33.996  -1.256  18.033  1.00  0.00    -0.252 OA
ENDBRANCH  41  44
ENDBRANCH  35  38
ENDBRANCH  33  34
ENDBRANCH  32  33
ENDBRANCH   4  32
BRANCH   5  47
HETATM   47  C31 UNL     1      35.976  -6.628  10.078  1.00  0.00     0.265 C 
BRANCH  47  48
HETATM   48  C32 UNL     1      35.677  -5.553   9.140  1.00  0.00     0.193 C 
HETATM   49  O5  UNL     1      35.911  -5.691   7.919  1.00  0.00    -0.647 OA
HETATM   50  O6  UNL     1      35.131  -4.365   9.580  1.00  0.00    -0.647 OA
ENDBRANCH  47  48
ENDBRANCH   5  47
TORSDOF 19
ENDMDL
MODEL 2
REMARK VINA RESULT: -9.970528602      0.712      1.293
REMARK  19 active torsions:
REMARK  status: ('A' for Active; 'I' for Inactive)
REMARK    1  A    between atoms: C2_2  and  C3_3 
REMARK    2  A    between atoms: C3_3  and  C4_4 
REMARK    3  A    between atoms: C4_4  and  C5_5 
REMARK    4  A    between atoms: C5_5  and  C6_6 
REMARK    5  A    between atoms: C6_6  and  C7_7 
REMARK    6  A    between atoms: C7_7  and  N1_8 
REMARK    7  A    between atoms: N1_8  and  C8_10 
REMARK    8  A    between atoms: C8_10  and  O1_11 
REMARK    9  A    between atoms: C8_10  and  C9_13 
REMARK   10  A    between atoms: C9_13  and  C10_14 
REMARK   11  A    between atoms: C10_14  and  C11_15 
REMARK   12  A    between atoms: C11_15  and  C12_16 
REMARK   13  A    between atoms: N2_28  and  C23_29 
REMARK   14  A    between atoms: C23_29  and  C24_30 
REMARK   15  A    between atoms: C24_30  and  N3_31 
REMARK       I    between atoms: N3_31  and  C25_33 
REMARK   16  A    between atoms: C25_33  and  C26_35 
REMARK   17  A    between atoms: C29_38  and  S1_39 
REMARK   18  A    between atoms: N5_44  and  C31_45 
REMARK   19  A    between atoms: C31_45  and  C32_46 
ROOT
HETATM    1  C3  UNL     1      39.351  -7.800  10.861  1.00  0.00     0.125 C 
HETATM    2  C22 UNL     1      39.310  -6.486  11.607  1.00  0.00     0.256 C 
HETATM    3  O2  UNL     1      40.248  -5.861  12.157  1.00  0.00    -0.270 OA
HETATM    4  N2  UNL     1      37.964  -6.032  11.592  1.00  0.00    -0.253 N 
HETATM    5  N5  UNL     1      37.289  -6.704  10.542  1.00  0.00    -0.245 N 
HETATM    6  C33 UNL     1      38.240  -7.581   9.911  1.00  0.00     0.257 C 
HETATM    7  O7  UNL     1      38.101  -8.048   8.752  1.00  0.00    -0.270 OA
ENDROOT
BRANCH   1   8
HETATM    8  C2  UNL     1      38.984  -8.845  11.884  1.00  0.00     0.025 C 
HETATM    9  C1  UNL     1      40.119  -9.187  12.810  1.00  0.00     0.007 C 
ENDBRANCH   1   8
BRANCH   1  10
HETATM   10  C4  UNL     1      40.689  -7.999  10.246  1.00  0.00     0.029 C 
BRANCH  10  11
HETATM   11  C5  UNL     1      40.952  -7.070   9.114  1.00  0.00     0.003 C 
BRANCH  11  12
HETATM   12  C6  UNL     1      42.304  -6.360   9.268  1.00  0.00     0.020 C 
BRANCH  12  13
HETATM   13  C7  UNL     1      42.040  -4.872   9.126  1.00  0.00     0.121 C 
BRANCH  13  14
HETATM   14  N1  UNL     1      42.843  -4.110  10.124  1.00  0.00    -0.371 N 
ATOM     15  H1  UNL     1      42.726  -4.250  11.128  1.00  0.00     0.161 HD
BRANCH  14  16
HETATM   16  C8  UNL     1      43.767  -3.193   9.609  1.00  0.00     0.135 C 
BRANCH  16  17
HETATM   17  O1  UNL     1      43.566  -2.775   8.391  1.00  0.00    -0.346 OA
ATOM     18  H1  UNL     1      42.999  -2.019   8.284  1.00  0.00     0.219 HD
ENDBRANCH  16  17
BRANCH  16  19
HETATM   19  C9  UNL     1      44.915  -2.646  10.247  1.00  0.00     0.051 C 
BRANCH  19  20
HETATM   20  C10 UNL     1      46.176  -2.635   9.999  1.00  0.00    -0.022 C 
BRANCH  20  21
HETATM   21  C11 UNL     1      47.366  -2.462  10.836  1.00  0.00     0.036 C 
BRANCH  21  22
HETATM   22  C12 UNL     1      48.584  -2.898  10.031  1.00  0.00    -0.036 C 
HETATM   23  C13 UNL     1      48.536  -4.372   9.757  1.00  0.00     0.014 C 
HETATM   24  C14 UNL     1      49.786  -4.740   8.982  1.00  0.00    -0.013 C 
HETATM   25  C15 UNL     1      51.021  -4.490   9.806  1.00  0.00     0.009 C 
HETATM   26  C19 UNL     1      49.917  -3.931   7.714  1.00  0.00     0.009 C 
HETATM   27  C16 UNL     1      51.071  -3.035  10.179  1.00  0.00    -0.013 C 
HETATM   28  C17 UNL     1      51.206  -2.219   8.910  1.00  0.00     0.009 C 
HETATM   29  C21 UNL     1      49.810  -2.594  10.885  1.00  0.00     0.014 C 
HETATM   30  C18 UNL     1      49.992  -2.454   8.059  1.00  0.00    -0.013 C 
HETATM   31  C20 UNL     1      48.704  -2.103   8.774  1.00  0.00     0.014 C 
ENDBRANCH  21  22
ENDBRANCH  20  21
ENDBRANCH  19  20
ENDBRANCH  16  19
ENDBRANCH  14  16
ENDBRANCH  13  14
ENDBRANCH  12  13
ENDBRANCH  11  12
ENDBRANCH  10  11
ENDBRANCH   1  10
BRANCH   4  32
HETATM   32  C23 UNL     1      37.337  -5.077  12.444  1.00  0.00     0.172 C 
BRANCH  32  33
HETATM   33  C24 UNL     1      38.208  -3.839  12.680  1.00  0.00     0.145 C 
BRANCH  33  34
HETATM   34  N3  UNL     1      38.158  -3.553  14.096  1.00  0.00    -0.354 N 
HETATM   35  C25 UNL     1      37.390  -2.466  14.621  1.00  0.00     0.268 C 
HETATM   36  O3  UNL     1      36.739  -1.741  13.825  1.00  0.00    -0.266 OA
ATOM     37  H3  UNL     1      38.685  -4.143  14.740  1.00  0.00     0.162 HD
BRANCH  35  38
HETATM   38  C26 UNL     1      37.348  -2.183  16.052  1.00  0.00     0.101 A 
HETATM   39  C27 UNL     1      38.411  -2.139  16.902  1.00  0.00     0.038 A 
HETATM   40  C28 UNL     1      37.917  -1.845  18.150  1.00  0.00     0.041 A 
HETATM   41  C29 UNL     1      36.558  -1.708  18.071  1.00  0.00     0.100 A 
HETATM   42  N4  UNL     1      36.233  -1.917  16.789  1.00  0.00    -0.344 N 
ATOM     43  H4  UNL     1      35.284  -1.882  16.417  1.00  0.00     0.167 HD
BRANCH  41  44
HETATM   44  S1  UNL     1      35.428  -1.337  19.383  1.00  0.00     0.062 S 
HETATM   45  C30 UNL     1      36.159  -0.085  20.442  1.00  0.00     0.134 C 
HETATM   46  O4  UNL     1      33.964  -0.792  18.763  1.00  0.00    -0.252 OA
ENDBRANCH  41  44
ENDBRANCH  35  38
ENDBRANCH  33  34
ENDBRANCH  32  33
ENDBRANCH   4  32
BRANCH   5  47
HETATM   47  C31 UNL     1      35.933  -6.590  10.118  1.00  0.00     0.265 C 
BRANCH  47  48
HETATM   48  C32 UNL     1      35.680  -5.515   9.166  1.00  0.00     0.193 C 
HETATM   49  O5  UNL     1      35.956  -5.660   7.955  1.00  0.00    -0.647 OA
HETATM   50  O6  UNL     1      35.129  -4.319   9.582  1.00  0.00    -0.647 OA
ENDBRANCH  47  48
ENDBRANCH   5  47
TORSDOF 19
ENDMDL
MODEL 3
REMARK VINA RESULT: -9.931929793      1.234      1.707
REMARK  19 active torsions:
REMARK  status: ('A' for Active; 'I' for Inactive)
REMARK    1  A    between atoms: C2_2  and  C3_3 
REMARK    2  A    between atoms: C3_3  and  C4_4 
REMARK    3  A    between atoms: C4_4  and  C5_5 
REMARK    4  A    between atoms: C5_5  and  C6_6 
REMARK    5  A    between atoms: C6_6  and  C7_7 
REMARK    6  A    between atoms: C7_7  and  N1_8 
REMARK    7  A    between atoms: N1_8  and  C8_10 
REMARK    8  A    between atoms: C8_10  and  O1_11 
REMARK    9  A    between atoms: C8_10  and  C9_13 
REMARK   10  A    between atoms: C9_13  and  C10_14 
REMARK   11  A    between atoms: C10_14  and  C11_15 
REMARK   12  A    between atoms: C11_15  and  C12_16 
REMARK   13  A    between atoms: N2_28  and  C23_29 
REMARK   14  A    between atoms: C23_29  and  C24_30 
REMARK   15  A    between atoms: C24_30  and  N3_31 
REMARK       I    between atoms: N3_31  and  C25_33 
REMARK   16  A    between atoms: C25_33  and  C26_35 
REMARK   17  A    between atoms: C29_38  and  S1_39 
REMARK   18  A    between atoms: N5_44  and  C31_45 
REMARK   19  A    between atoms: C31_45  and  C32_46 
ROOT
HETATM    1  C3  UNL     1      39.613  -7.693  10.898  1.00  0.00     0.125 C 
HETATM    2  C22 UNL     1      39.343  -6.464  11.736  1.00  0.00     0.256 C 
HETATM    3  O2  UNL     1      40.149  -5.767  12.398  1.00  0.00    -0.270 OA
HETATM    4  N2  UNL     1      37.950  -6.196  11.659  1.00  0.00    -0.253 N 
HETATM    5  N5  UNL     1      37.440  -6.862  10.516  1.00  0.00    -0.245 N 
HETATM    6  C33 UNL     1      38.542  -7.545   9.891  1.00  0.00     0.257 C 
HETATM    7  O7  UNL     1      38.540  -7.927   8.692  1.00  0.00    -0.270 OA
ENDROOT
BRANCH   1   8
HETATM    8  C2  UNL     1      39.335  -8.860  11.811  1.00  0.00     0.025 C 
HETATM    9  C1  UNL     1      40.491  -9.190  12.715  1.00  0.00     0.007 C 
ENDBRANCH   1   8
BRANCH   1  10
HETATM   10  C4  UNL     1      41.000  -7.656  10.368  1.00  0.00     0.029 C 
BRANCH  10  11
HETATM   11  C5  UNL     1      41.174  -6.677   9.262  1.00  0.00     0.003 C 
BRANCH  11  12
HETATM   12  C6  UNL     1      42.523  -5.950   9.355  1.00  0.00     0.020 C 
BRANCH  12  13
HETATM   13  C7  UNL     1      42.252  -4.480   9.094  1.00  0.00     0.121 C 
BRANCH  13  14
HETATM   14  N1  UNL     1      43.534  -3.724   9.036  1.00  0.00    -0.371 N 
ATOM     15  H1  UNL     1      44.172  -3.807   8.244  1.00  0.00     0.161 HD
BRANCH  14  16
HETATM   16  C8  UNL     1      43.816  -2.892  10.126  1.00  0.00     0.135 C 
BRANCH  16  17
HETATM   17  O1  UNL     1      42.828  -2.185  10.599  1.00  0.00    -0.346 OA
ATOM     18  H1  UNL     1      42.689  -2.215  11.539  1.00  0.00     0.219 HD
ENDBRANCH  16  17
BRANCH  16  19
HETATM   19  C9  UNL     1      45.056  -2.710  10.800  1.00  0.00     0.051 C 
BRANCH  19  20
HETATM   20  C10 UNL     1      46.294  -2.799  10.467  1.00  0.00    -0.022 C 
BRANCH  20  21
HETATM   21  C11 UNL     1      47.546  -2.783  11.228  1.00  0.00     0.036 C 
BRANCH  21  22
HETATM   22  C12 UNL     1      48.701  -2.961  10.252  1.00  0.00    -0.036 C 
HETATM   23  C13 UNL     1      48.522  -2.076   9.054  1.00  0.00     0.014 C 
HETATM   24  C14 UNL     1      49.686  -2.324   8.115  1.00  0.00    -0.013 C 
HETATM   25  C15 UNL     1      49.676  -3.744   7.614  1.00  0.00     0.009 C 
HETATM   26  C19 UNL     1      51.013  -2.094   8.797  1.00  0.00     0.009 C 
HETATM   27  C16 UNL     1      49.770  -4.676   8.789  1.00  0.00    -0.013 C 
HETATM   28  C17 UNL     1      51.102  -4.452   9.473  1.00  0.00     0.009 C 
HETATM   29  C21 UNL     1      48.676  -4.416   9.798  1.00  0.00     0.014 C 
HETATM   30  C18 UNL     1      51.148  -3.039   9.978  1.00  0.00    -0.013 C 
HETATM   31  C20 UNL     1      50.010  -2.723  10.927  1.00  0.00     0.014 C 
ENDBRANCH  21  22
ENDBRANCH  20  21
ENDBRANCH  19  20
ENDBRANCH  16  19
ENDBRANCH  14  16
ENDBRANCH  13  14
ENDBRANCH  12  13
ENDBRANCH  11  12
ENDBRANCH  10  11
ENDBRANCH   1  10
BRANCH   4  32
HETATM   32  C23 UNL     1      37.145  -5.410  12.534  1.00  0.00     0.172 C 
BRANCH  32  33
HETATM   33  C24 UNL     1      37.481  -3.918  12.460  1.00  0.00     0.145 C 
BRANCH  33  34
HETATM   34  N3  UNL     1      38.074  -3.557  13.729  1.00  0.00    -0.354 N 
HETATM   35  C25 UNL     1      37.679  -2.380  14.440  1.00  0.00     0.268 C 
HETATM   36  O3  UNL     1      36.789  -1.641  13.947  1.00  0.00    -0.266 OA
ATOM     37  H3  UNL     1      38.795  -4.159  14.128  1.00  0.00     0.162 HD
BRANCH  35  38
HETATM   38  C26 UNL     1      38.286  -2.022  15.719  1.00  0.00     0.101 A 
HETATM   39  C27 UNL     1      39.413  -2.560  16.261  1.00  0.00     0.038 A 
HETATM   40  C28 UNL     1      39.615  -1.937  17.469  1.00  0.00     0.041 A 
HETATM   41  C29 UNL     1      38.621  -1.020  17.671  1.00  0.00     0.100 A 
HETATM   42  N4  UNL     1      37.824  -1.088  16.596  1.00  0.00    -0.344 N 
ATOM     43  H4  UNL     1      36.989  -0.520  16.455  1.00  0.00     0.167 HD
BRANCH  41  44
HETATM   44  S1  UNL     1      38.399   0.051  19.063  1.00  0.00     0.062 S 
HETATM   45  C30 UNL     1      39.762  -0.196  20.207  1.00  0.00     0.134 C 
HETATM   46  O4  UNL     1      38.339   1.655  18.569  1.00  0.00    -0.252 OA
ENDBRANCH  41  44
ENDBRANCH  35  38
ENDBRANCH  33  34
ENDBRANCH  32  33
ENDBRANCH   4  32
BRANCH   5  47
HETATM   47  C31 UNL     1      36.111  -6.896  10.006  1.00  0.00     0.265 C 
BRANCH  47  48
HETATM   48  C32 UNL     1      35.742  -5.749   9.184  1.00  0.00     0.193 C 
HETATM   49  O5  UNL     1      35.940  -5.761   7.950  1.00  0.00    -0.647 OA
HETATM   50  O6  UNL     1      35.167  -4.630   9.752  1.00  0.00    -0.647 OA
ENDBRANCH  47  48
ENDBRANCH   5  47
TORSDOF 19
ENDMDL
MODEL 4
REMARK VINA RESULT: -9.443864248      1.428      1.632
REMARK  19 active torsions:
REMARK  status: ('A' for Active; 'I' for Inactive)
REMARK    1  A    between atoms: C2_2  and  C3_3 
REMARK    2  A    between atoms: C3_3  and  C4_4 
REMARK    3  A    between atoms: C4_4  and  C5_5 
REMARK    4  A    between atoms: C5_5  and  C6_6 
REMARK    5  A    between atoms: C6_6  and  C7_7 
REMARK    6  A    between atoms: C7_7  and  N1_8 
REMARK    7  A    between atoms: N1_8  and  C8_10 
REMARK    8  A    between atoms: C8_10  and  O1_11 
REMARK    9  A    between atoms: C8_10  and  C9_13 
REMARK   10  A    between atoms: C9_13  and  C10_14 
REMARK   11  A    between atoms: C10_14  and  C11_15 
REMARK   12  A    between atoms: C11_15  and  C12_16 
REMARK   13  A    between atoms: N2_28  and  C23_29 
REMARK   14  A    between atoms: C23_29  and  C24_30 
REMARK   15  A    between atoms: C24_30  and  N3_31 
REMARK       I    between atoms: N3_31  and  C25_33 
REMARK   16  A    between atoms: C25_33  and  C26_35 
REMARK   17  A    between atoms: C29_38  and  S1_39 
REMARK   18  A    between atoms: N5_44  and  C31_45 
REMARK   19  A    between atoms: C31_45  and  C32_46 
ROOT
HETATM    1  C3  UNL     1      39.489  -7.556  10.893  1.00  0.00     0.125 C 
HETATM    2  C22 UNL     1      39.382  -6.254  11.653  1.00  0.00     0.256 C 
HETATM    3  O2  UNL     1      40.290  -5.577  12.191  1.00  0.00    -0.270 OA
HETATM    4  N2  UNL     1      38.010  -5.884  11.669  1.00  0.00    -0.253 N 
HETATM    5  N5  UNL     1      37.357  -6.588  10.625  1.00  0.00    -0.245 N 
HETATM    6  C33 UNL     1      38.348  -7.397   9.967  1.00  0.00     0.257 C 
HETATM    7  O7  UNL     1      38.215  -7.862   8.806  1.00  0.00    -0.270 OA
ENDROOT
BRANCH   1   8
HETATM    8  C2  UNL     1      39.208  -8.631  11.912  1.00  0.00     0.025 C 
HETATM    9  C1  UNL     1      40.455  -9.174  12.555  1.00  0.00     0.007 C 
ENDBRANCH   1   8
BRANCH   1  10
HETATM   10  C4  UNL     1      40.824  -7.666  10.250  1.00  0.00     0.029 C 
BRANCH  10  11
HETATM   11  C5  UNL     1      41.045  -6.644   9.192  1.00  0.00     0.003 C 
BRANCH  11  12
HETATM   12  C6  UNL     1      42.499  -6.151   9.176  1.00  0.00     0.020 C 
BRANCH  12  13
HETATM   13  C7  UNL     1      42.455  -4.638   9.295  1.00  0.00     0.121 C 
BRANCH  13  14
HETATM   14  N1  UNL     1      43.000  -4.210  10.613  1.00  0.00    -0.371 N 
ATOM     15  H1  UNL     1      42.993  -4.828  11.425  1.00  0.00     0.161 HD
BRANCH  14  16
HETATM   16  C8  UNL     1      43.524  -2.913  10.678  1.00  0.00     0.135 C 
BRANCH  16  17
HETATM   17  O1  UNL     1      42.737  -1.982  11.139  1.00  0.00    -0.346 OA
ATOM     18  H1  UNL     1      43.006  -1.550  11.942  1.00  0.00     0.219 HD
ENDBRANCH  16  17
BRANCH  16  19
HETATM   19  C9  UNL     1      44.822  -2.466  10.302  1.00  0.00     0.051 C 
BRANCH  19  20
HETATM   20  C10 UNL     1      46.019  -2.900  10.473  1.00  0.00    -0.022 C 
BRANCH  20  21
HETATM   21  C11 UNL     1      47.213  -2.338  11.108  1.00  0.00     0.036 C 
BRANCH  21  22
HETATM   22  C12 UNL     1      48.436  -2.823  10.341  1.00  0.00    -0.036 C 
HETATM   23  C13 UNL     1      49.696  -2.466  11.072  1.00  0.00     0.014 C 
HETATM   24  C14 UNL     1      50.868  -2.950  10.242  1.00  0.00    -0.013 C 
HETATM   25  C15 UNL     1      50.917  -2.237   8.917  1.00  0.00     0.009 C 
HETATM   26  C19 UNL     1      50.778  -4.430   9.958  1.00  0.00     0.009 C 
HETATM   27  C16 UNL     1      49.634  -2.498   8.177  1.00  0.00    -0.013 C 
HETATM   28  C17 UNL     1      49.542  -3.981   7.885  1.00  0.00     0.009 C 
HETATM   29  C21 UNL     1      48.427  -2.106   8.995  1.00  0.00     0.014 C 
HETATM   30  C18 UNL     1      49.501  -4.723   9.190  1.00  0.00    -0.013 C 
HETATM   31  C20 UNL     1      48.348  -4.288  10.070  1.00  0.00     0.014 C 
ENDBRANCH  21  22
ENDBRANCH  20  21
ENDBRANCH  19  20
ENDBRANCH  16  19
ENDBRANCH  14  16
ENDBRANCH  13  14
ENDBRANCH  12  13
ENDBRANCH  11  12
ENDBRANCH  10  11
ENDBRANCH   1  10
BRANCH   4  32
HETATM   32  C23 UNL     1      37.342  -4.978  12.543  1.00  0.00     0.172 C 
BRANCH  32  33
HETATM   33  C24 UNL     1      38.000  -3.595  12.570  1.00  0.00     0.145 C 
BRANCH  33  34
HETATM   34  N3  UNL     1      38.234  -3.268  13.958  1.00  0.00    -0.354 N 
HETATM   35  C25 UNL     1      37.440  -2.299  14.650  1.00  0.00     0.268 C 
HETATM   36  O3  UNL     1      36.512  -1.718  14.031  1.00  0.00    -0.266 OA
ATOM     37  H3  UNL     1      38.986  -3.741  14.459  1.00  0.00     0.162 HD
BRANCH  35  38
HETATM   38  C26 UNL     1      37.686  -1.972  16.051  1.00  0.00     0.101 A 
HETATM   39  C27 UNL     1      37.538  -0.752  16.638  1.00  0.00     0.038 A 
HETATM   40  C28 UNL     1      37.881  -0.897  17.961  1.00  0.00     0.041 A 
HETATM   41  C29 UNL     1      38.237  -2.198  18.190  1.00  0.00     0.100 A 
HETATM   42  N4  UNL     1      38.112  -2.834  17.017  1.00  0.00    -0.344 N 
ATOM     43  H4  UNL     1      38.308  -3.823  16.869  1.00  0.00     0.167 HD
BRANCH  41  44
HETATM   44  S1  UNL     1      38.769  -2.925  19.714  1.00  0.00     0.062 S 
HETATM   45  C30 UNL     1      39.867  -4.298  19.350  1.00  0.00     0.134 C 
HETATM   46  O4  UNL     1      39.558  -1.786  20.666  1.00  0.00    -0.252 OA
ENDBRANCH  41  44
ENDBRANCH  35  38
ENDBRANCH  33  34
ENDBRANCH  32  33
ENDBRANCH   4  32
BRANCH   5  47
HETATM   47  C31 UNL     1      35.989  -6.554  10.229  1.00  0.00     0.265 C 
BRANCH  47  48
HETATM   48  C32 UNL     1      35.659  -5.515   9.260  1.00  0.00     0.193 C 
HETATM   49  O5  UNL     1      35.157  -4.433   9.634  1.00  0.00    -0.647 OA
HETATM   50  O6  UNL     1      35.896  -5.706   7.914  1.00  0.00    -0.647 OA
ENDBRANCH  47  48
ENDBRANCH   5  47
TORSDOF 19
ENDMDL
MODEL 5
REMARK VINA RESULT: -9.246939179      1.240      1.721
REMARK  19 active torsions:
REMARK  status: ('A' for Active; 'I' for Inactive)
REMARK    1  A    between atoms: C2_2  and  C3_3 
REMARK    2  A    between atoms: C3_3  and  C4_4 
REMARK    3  A    between atoms: C4_4  and  C5_5 
REMARK    4  A    between atoms: C5_5  and  C6_6 
REMARK    5  A    between atoms: C6_6  and  C7_7 
REMARK    6  A    between atoms: C7_7  and  N1_8 
REMARK    7  A    between atoms: N1_8  and  C8_10 
REMARK    8  A    between atoms: C8_10  and  O1_11 
REMARK    9  A    between atoms: C8_10  and  C9_13 
REMARK   10  A    between atoms: C9_13  and  C10_14 
REMARK   11  A    between atoms: C10_14  and  C11_15 
REMARK   12  A    between atoms: C11_15  and  C12_16 
REMARK   13  A    between atoms: N2_28  and  C23_29 
REMARK   14  A    between atoms: C23_29  and  C24_30 
REMARK   15  A    between atoms: C24_30  and  N3_31 
REMARK       I    between atoms: N3_31  and  C25_33 
REMARK   16  A    between atoms: C25_33  and  C26_35 
REMARK   17  A    between atoms: C29_38  and  S1_39 
REMARK   18  A    between atoms: N5_44  and  C31_45 
REMARK   19  A    between atoms: C31_45  and  C32_46 
ROOT
HETATM    1  C3  UNL     1      39.944  -7.747  10.510  1.00  0.00     0.125 C 
HETATM    2  C22 UNL     1      39.414  -6.714  11.477  1.00  0.00     0.256 C 
HETATM    3  O2  UNL     1      40.040  -6.018  12.312  1.00  0.00    -0.270 OA
HETATM    4  N2  UNL     1      38.007  -6.641  11.291  1.00  0.00    -0.253 N 
HETATM    5  N5  UNL     1      37.707  -7.190  10.018  1.00  0.00    -0.245 N 
HETATM    6  C33 UNL     1      38.952  -7.603   9.425  1.00  0.00     0.257 C 
HETATM    7  O7  UNL     1      39.112  -7.792   8.191  1.00  0.00    -0.270 OA
ENDROOT
BRANCH   1   8
HETATM    8  C2  UNL     1      39.779  -9.069  11.216  1.00  0.00     0.025 C 
HETATM    9  C1  UNL     1      40.331  -9.062  12.616  1.00  0.00     0.007 C 
ENDBRANCH   1   8
BRANCH   1  10
HETATM   10  C4  UNL     1      41.348  -7.430  10.140  1.00  0.00     0.029 C 
BRANCH  10  11
HETATM   11  C5  UNL     1      41.456  -6.278   9.205  1.00  0.00     0.003 C 
BRANCH  11  12
HETATM   12  C6  UNL     1      42.613  -5.344   9.588  1.00  0.00     0.020 C 
BRANCH  12  13
HETATM   13  C7  UNL     1      42.256  -3.963   9.070  1.00  0.00     0.121 C 
BRANCH  13  14
HETATM   14  N1  UNL     1      42.346  -2.962  10.170  1.00  0.00    -0.371 N 
ATOM     15  H1  UNL     1      41.526  -2.457  10.505  1.00  0.00     0.161 HD
BRANCH  14  16
HETATM   16  C8  UNL     1      43.617  -2.754  10.719  1.00  0.00     0.135 C 
BRANCH  16  17
HETATM   17  O1  UNL     1      43.719  -2.832  12.016  1.00  0.00    -0.346 OA
ATOM     18  H1  UNL     1      44.579  -3.029  12.368  1.00  0.00     0.219 HD
ENDBRANCH  16  17
BRANCH  16  19
HETATM   19  C9  UNL     1      44.833  -2.463  10.040  1.00  0.00     0.051 C 
BRANCH  19  20
HETATM   20  C10 UNL     1      46.048  -2.872  10.133  1.00  0.00    -0.022 C 
BRANCH  20  21
HETATM   21  C11 UNL     1      47.234  -2.360  10.823  1.00  0.00     0.036 C 
BRANCH  21  22
HETATM   22  C12 UNL     1      48.469  -2.846  10.076  1.00  0.00    -0.036 C 
HETATM   23  C13 UNL     1      48.433  -4.335   9.906  1.00  0.00     0.014 C 
HETATM   24  C14 UNL     1      49.699  -4.752   9.185  1.00  0.00    -0.013 C 
HETATM   25  C15 UNL     1      50.916  -4.437  10.014  1.00  0.00     0.009 C 
HETATM   26  C19 UNL     1      49.852  -4.034   7.865  1.00  0.00     0.009 C 
HETATM   27  C16 UNL     1      50.953  -2.959  10.283  1.00  0.00    -0.013 C 
HETATM   28  C17 UNL     1      51.112  -2.235   8.962  1.00  0.00     0.009 C 
HETATM   29  C21 UNL     1      49.677  -2.476  10.931  1.00  0.00     0.014 C 
HETATM   30  C18 UNL     1      49.916  -2.535   8.106  1.00  0.00    -0.013 C 
HETATM   31  C20 UNL     1      48.612  -2.141   8.769  1.00  0.00     0.014 C 
ENDBRANCH  21  22
ENDBRANCH  20  21
ENDBRANCH  19  20
ENDBRANCH  16  19
ENDBRANCH  14  16
ENDBRANCH  13  14
ENDBRANCH  12  13
ENDBRANCH  11  12
ENDBRANCH  10  11
ENDBRANCH   1  10
BRANCH   4  32
HETATM   32  C23 UNL     1      37.017  -6.125  12.176  1.00  0.00     0.172 C 
BRANCH  32  33
HETATM   33  C24 UNL     1      37.141  -4.611  12.375  1.00  0.00     0.145 C 
BRANCH  33  34
HETATM   34  N3  UNL     1      36.582  -4.311  13.675  1.00  0.00    -0.354 N 
HETATM   35  C25 UNL     1      36.757  -3.034  14.296  1.00  0.00     0.268 C 
HETATM   36  O3  UNL     1      37.414  -2.148  13.691  1.00  0.00    -0.266 OA
ATOM     37  H3  UNL     1      36.048  -5.030  14.163  1.00  0.00     0.162 HD
BRANCH  35  38
HETATM   38  C26 UNL     1      36.192  -2.741  15.610  1.00  0.00     0.101 A 
HETATM   39  C27 UNL     1      34.920  -2.335  15.874  1.00  0.00     0.038 A 
HETATM   40  C28 UNL     1      34.823  -2.172  17.235  1.00  0.00     0.041 A 
HETATM   41  C29 UNL     1      36.028  -2.476  17.807  1.00  0.00     0.100 A 
HETATM   42  N4  UNL     1      36.845  -2.819  16.803  1.00  0.00    -0.344 N 
ATOM     43  H4  UNL     1      37.819  -3.099  16.917  1.00  0.00     0.167 HD
BRANCH  41  44
HETATM   44  S1  UNL     1      36.455  -2.429  19.525  1.00  0.00     0.062 S 
HETATM   45  C30 UNL     1      36.613  -0.715  20.036  1.00  0.00     0.134 C 
HETATM   46  O4  UNL     1      35.281  -3.203  20.445  1.00  0.00    -0.252 OA
ENDBRANCH  41  44
ENDBRANCH  35  38
ENDBRANCH  33  34
ENDBRANCH  32  33
ENDBRANCH   4  32
BRANCH   5  47
HETATM   47  C31 UNL     1      36.447  -7.337   9.370  1.00  0.00     0.265 C 
BRANCH  47  48
HETATM   48  C32 UNL     1      35.877  -6.097   8.856  1.00  0.00     0.193 C 
HETATM   49  O5  UNL     1      36.212  -5.659   7.735  1.00  0.00    -0.647 OA
HETATM   50  O6  UNL     1      34.955  -5.385   9.598  1.00  0.00    -0.647 OA
ENDBRANCH  47  48
ENDBRANCH   5  47
TORSDOF 19
ENDMDL
