MODEL 1
REMARK VINA RESULT: -7.567125804      0.000      0.000
REMARK  5 active torsions:
REMARK  status: ('A' for Active; 'I' for Inactive)
REMARK    1  A    between atoms: C2_2  and  C3_3 
REMARK    2  A    between atoms: C3_3  and  C4_4 
REMARK    3  A    between atoms: C8_12  and  N3_13 
REMARK    4  A    between atoms: N3_13  and  C9_15 
REMARK    5  A    between atoms: C12_19  and  O1_20 
ROOT
HETATM    1  C4  UNL     1      -8.988  -8.659 -14.691  1.00  0.00     0.095 A 
HETATM    2  N1  UNL     1      -9.141  -7.594 -14.002  1.00  0.00    -0.353 N 
ATOM      3  H1  UNL     1      -9.989  -7.517 -13.442  1.00  0.00     0.163 HD
HETATM    4  C5  UNL     1      -8.214  -6.490 -13.949  1.00  0.00     0.114 A 
HETATM    5  C6  UNL     1      -7.759  -6.377 -12.489  1.00  0.00     0.063 C 
HETATM    6  C7  UNL     1      -8.979  -5.236 -14.322  1.00  0.00     0.063 C 
HETATM    7  N2  UNL     1      -7.039  -6.679 -14.771  1.00  0.00    -0.200 N 
ATOM      8  H2  UNL     1      -6.340  -5.937 -14.782  1.00  0.00     0.180 HD
HETATM    9  C8  UNL     1      -6.822  -7.713 -15.482  1.00  0.00     0.682 A 
HETATM   10  N4  UNL     1      -7.792  -8.751 -15.472  1.00  0.00    -0.181 N 
ATOM     11  H4  UNL     1      -7.632  -9.585 -16.037  1.00  0.00     0.185 HD
ENDROOT
BRANCH   9  12
HETATM   12  N3  UNL     1      -5.633  -7.793 -16.252  1.00  0.00    -0.187 N 
ATOM     13  H3  UNL     1      -5.092  -8.655 -16.185  1.00  0.00     0.184 HD
BRANCH  12  14
HETATM   14  C9  UNL     1      -5.140  -6.790 -17.094  1.00  0.00     0.105 A 
HETATM   15  C10 UNL     1      -4.262  -5.819 -16.624  1.00  0.00     0.147 A 
HETATM   16  F1  UNL     1      -3.909  -5.889 -15.327  1.00  0.00    -0.204 F 
HETATM   17  C11 UNL     1      -3.786  -4.835 -17.465  1.00  0.00     0.081 A 
HETATM   18  C12 UNL     1      -4.165  -4.788 -18.789  1.00  0.00     0.072 A 
HETATM   19  C14 UNL     1      -5.032  -5.740 -19.275  1.00  0.00     0.058 A 
HETATM   20  C15 UNL     1      -5.511  -6.734 -18.415  1.00  0.00     0.044 A 
HETATM   21 BR1  UNL     1      -6.714  -8.038 -19.101  1.00  0.00    -0.049 Br
BRANCH  18  22
HETATM   22  O1  UNL     1      -3.655  -3.776 -19.589  1.00  0.00    -0.356 OA
HETATM   23  C13 UNL     1      -3.771  -3.788 -20.978  1.00  0.00     0.210 C 
ENDBRANCH  18  22
ENDBRANCH  12  14
ENDBRANCH   9  12
BRANCH   1  24
HETATM   24  C3  UNL     1      -9.993  -9.773 -14.702  1.00  0.00     0.076 C 
BRANCH  24  25
HETATM   25  C2  UNL     1     -10.420 -10.123 -16.088  1.00  0.00     0.003 C 
HETATM   26  C1  UNL     1      -9.877 -11.482 -16.429  1.00  0.00     0.005 C 
ENDBRANCH  24  25
ENDBRANCH   1  24
TORSDOF 5
ENDMDL
MODEL 2
REMARK VINA RESULT: -7.288432245      2.111      2.399
REMARK  5 active torsions:
REMARK  status: ('A' for Active; 'I' for Inactive)
REMARK    1  A    between atoms: C2_2  and  C3_3 
REMARK    2  A    between atoms: C3_3  and  C4_4 
REMARK    3  A    between atoms: C8_12  and  N3_13 
REMARK    4  A    between atoms: N3_13  and  C9_15 
REMARK    5  A    between atoms: C12_19  and  O1_20 
ROOT
HETATM    1  C4  UNL     1      -8.568  -8.435 -14.672  1.00  0.00     0.095 A 
HETATM    2  N1  UNL     1      -8.789  -7.900 -13.533  1.00  0.00    -0.353 N 
ATOM      3  H1  UNL     1      -9.095  -8.515 -12.780  1.00  0.00     0.163 HD
HETATM    4  C5  UNL     1      -8.643  -6.499 -13.224  1.00  0.00     0.114 A 
HETATM    5  C6  UNL     1      -7.572  -6.408 -12.130  1.00  0.00     0.063 C 
HETATM    6  C7  UNL     1      -9.964  -6.019 -12.656  1.00  0.00     0.063 C 
HETATM    7  N2  UNL     1      -8.207  -5.699 -14.346  1.00  0.00    -0.200 N 
ATOM      8  H2  UNL     1      -8.082  -4.697 -14.198  1.00  0.00     0.180 HD
HETATM    9  C8  UNL     1      -7.968  -6.164 -15.507  1.00  0.00     0.682 A 
HETATM   10  N4  UNL     1      -8.140  -7.559 -15.720  1.00  0.00    -0.181 N 
ATOM     11  H4  UNL     1      -7.952  -7.946 -16.644  1.00  0.00     0.185 HD
ENDROOT
BRANCH   9  12
HETATM   12  N3  UNL     1      -7.544  -5.286 -16.537  1.00  0.00    -0.187 N 
ATOM     13  H3  UNL     1      -8.168  -4.518 -16.780  1.00  0.00     0.184 HD
BRANCH  12  14
HETATM   14  C9  UNL     1      -6.341  -5.385 -17.247  1.00  0.00     0.105 A 
HETATM   15  C10 UNL     1      -6.236  -6.182 -18.382  1.00  0.00     0.147 A 
HETATM   16  F1  UNL     1      -7.340  -6.850 -18.765  1.00  0.00    -0.204 F 
HETATM   17  C11 UNL     1      -5.045  -6.273 -19.070  1.00  0.00     0.081 A 
HETATM   18  C12 UNL     1      -3.930  -5.577 -18.654  1.00  0.00     0.072 A 
HETATM   19  C14 UNL     1      -4.012  -4.781 -17.533  1.00  0.00     0.058 A 
HETATM   20  C15 UNL     1      -5.225  -4.696 -16.841  1.00  0.00     0.044 A 
HETATM   21 BR1  UNL     1      -5.319  -3.598 -15.290  1.00  0.00    -0.049 Br
BRANCH  18  22
HETATM   22  O1  UNL     1      -2.758  -5.705 -19.385  1.00  0.00    -0.356 OA
HETATM   23  C13 UNL     1      -2.709  -5.508 -20.763  1.00  0.00     0.210 C 
ENDBRANCH  18  22
ENDBRANCH  12  14
ENDBRANCH   9  12
BRANCH   1  24
HETATM   24  C3  UNL     1      -8.740  -9.903 -14.930  1.00  0.00     0.076 C 
BRANCH  24  25
HETATM   25  C2  UNL     1     -10.165 -10.259 -15.187  1.00  0.00     0.003 C 
HETATM   26  C1  UNL     1     -10.397 -10.269 -16.671  1.00  0.00     0.005 C 
ENDBRANCH  24  25
ENDBRANCH   1  24
TORSDOF 5
ENDMDL
MODEL 3
REMARK VINA RESULT: -7.066876324      1.776      2.025
REMARK  5 active torsions:
REMARK  status: ('A' for Active; 'I' for Inactive)
REMARK    1  A    between atoms: C2_2  and  C3_3 
REMARK    2  A    between atoms: C3_3  and  C4_4 
REMARK    3  A    between atoms: C8_12  and  N3_13 
REMARK    4  A    between atoms: N3_13  and  C9_15 
REMARK    5  A    between atoms: C12_19  and  O1_20 
ROOT
HETATM    1  C4  UNL     1      -8.302  -8.727 -14.744  1.00  0.00     0.095 A 
HETATM    2  N1  UNL     1      -8.805  -7.862 -13.950  1.00  0.00    -0.353 N 
ATOM      3  H1  UNL     1      -9.648  -8.128 -13.442  1.00  0.00     0.163 HD
HETATM    4  C5  UNL     1      -8.280  -6.541 -13.709  1.00  0.00     0.114 A 
HETATM    5  C6  UNL     1      -7.925  -6.481 -12.219  1.00  0.00     0.063 C 
HETATM    6  C7  UNL     1      -9.395  -5.552 -13.985  1.00  0.00     0.063 C 
HETATM    7  N2  UNL     1      -7.085  -6.244 -14.467  1.00  0.00    -0.200 N 
ATOM      8  H2  UNL     1      -6.659  -5.325 -14.346  1.00  0.00     0.180 HD
HETATM    9  C8  UNL     1      -6.530  -7.056 -15.276  1.00  0.00     0.682 A 
HETATM   10  N4  UNL     1      -7.119  -8.338 -15.449  1.00  0.00    -0.181 N 
ATOM     11  H4  UNL     1      -6.686  -8.999 -16.094  1.00  0.00     0.185 HD
ENDROOT
BRANCH   9  12
HETATM   12  N3  UNL     1      -5.358  -6.660 -15.968  1.00  0.00    -0.187 N 
ATOM     13  H3  UNL     1      -4.462  -6.908 -15.549  1.00  0.00     0.184 HD
BRANCH  12  14
HETATM   14  C9  UNL     1      -5.325  -5.956 -17.178  1.00  0.00     0.105 A 
HETATM   15  C10 UNL     1      -5.423  -6.615 -18.400  1.00  0.00     0.147 A 
HETATM   16  F1  UNL     1      -5.552  -7.955 -18.364  1.00  0.00    -0.204 F 
HETATM   17  C11 UNL     1      -5.386  -5.910 -19.584  1.00  0.00     0.081 A 
HETATM   18  C12 UNL     1      -5.253  -4.538 -19.590  1.00  0.00     0.072 A 
HETATM   19  C14 UNL     1      -5.156  -3.866 -18.392  1.00  0.00     0.058 A 
HETATM   20  C15 UNL     1      -5.193  -4.589 -17.195  1.00  0.00     0.044 A 
HETATM   21 BR1  UNL     1      -5.049  -3.646 -15.550  1.00  0.00    -0.049 Br
BRANCH  18  22
HETATM   22  O1  UNL     1      -5.223  -3.880 -20.810  1.00  0.00    -0.356 OA
HETATM   23  C13 UNL     1      -4.034  -3.468 -21.410  1.00  0.00     0.210 C 
ENDBRANCH  18  22
ENDBRANCH  12  14
ENDBRANCH   9  12
BRANCH   1  24
HETATM   24  C3  UNL     1      -8.898 -10.088 -14.950  1.00  0.00     0.076 C 
BRANCH  24  25
HETATM   25  C2  UNL     1     -10.341 -10.013 -15.322  1.00  0.00     0.003 C 
HETATM   26  C1  UNL     1     -10.453 -10.063 -16.820  1.00  0.00     0.005 C 
ENDBRANCH  24  25
ENDBRANCH   1  24
TORSDOF 5
ENDMDL
MODEL 4
REMARK VINA RESULT: -7.057456684      1.509      1.584
REMARK  5 active torsions:
REMARK  status: ('A' for Active; 'I' for Inactive)
REMARK    1  A    between atoms: C2_2  and  C3_3 
REMARK    2  A    between atoms: C3_3  and  C4_4 
REMARK    3  A    between atoms: C8_12  and  N3_13 
REMARK    4  A    between atoms: N3_13  and  C9_15 
REMARK    5  A    between atoms: C12_19  and  O1_20 
ROOT
HETATM    1  C4  UNL     1      -8.618  -8.612 -14.703  1.00  0.00     0.095 A 
HETATM    2  N1  UNL     1      -8.824  -8.007 -13.597  1.00  0.00    -0.353 N 
ATOM      3  H1  UNL     1      -9.162  -8.566 -12.814  1.00  0.00     0.163 HD
HETATM    4  C5  UNL     1      -8.618  -6.599 -13.361  1.00  0.00     0.114 A 
HETATM    5  C6  UNL     1      -7.552  -6.496 -12.264  1.00  0.00     0.063 C 
HETATM    6  C7  UNL     1      -9.920  -6.032 -12.833  1.00  0.00     0.063 C 
HETATM    7  N2  UNL     1      -8.138  -5.881 -14.521  1.00  0.00    -0.200 N 
ATOM      8  H2  UNL     1      -7.970  -4.879 -14.426  1.00  0.00     0.180 HD
HETATM    9  C8  UNL     1      -7.912  -6.419 -15.653  1.00  0.00     0.682 A 
HETATM   10  N4  UNL     1      -8.144  -7.814 -15.792  1.00  0.00    -0.181 N 
ATOM     11  H4  UNL     1      -7.967  -8.259 -16.693  1.00  0.00     0.185 HD
ENDROOT
BRANCH   9  12
HETATM   12  N3  UNL     1      -7.442  -5.617 -16.725  1.00  0.00    -0.187 N 
ATOM     13  H3  UNL     1      -8.138  -5.097 -17.257  1.00  0.00     0.184 HD
BRANCH  12  14
HETATM   14  C9  UNL     1      -6.104  -5.480 -17.113  1.00  0.00     0.105 A 
HETATM   15  C10 UNL     1      -5.252  -4.591 -16.465  1.00  0.00     0.147 A 
HETATM   16  F1  UNL     1      -5.771  -3.874 -15.451  1.00  0.00    -0.204 F 
HETATM   17  C11 UNL     1      -3.937  -4.463 -16.860  1.00  0.00     0.081 A 
HETATM   18  C12 UNL     1      -3.433  -5.211 -17.902  1.00  0.00     0.072 A 
HETATM   19  C14 UNL     1      -4.259  -6.097 -18.557  1.00  0.00     0.058 A 
HETATM   20  C15 UNL     1      -5.592  -6.219 -18.150  1.00  0.00     0.044 A 
HETATM   21 BR1  UNL     1      -6.721  -7.443 -19.069  1.00  0.00    -0.049 Br
BRANCH  18  22
HETATM   22  O1  UNL     1      -2.102  -5.042 -18.256  1.00  0.00    -0.356 OA
HETATM   23  C13 UNL     1      -1.592  -3.821 -18.694  1.00  0.00     0.210 C 
ENDBRANCH  18  22
ENDBRANCH  12  14
ENDBRANCH   9  12
BRANCH   1  24
HETATM   24  C3  UNL     1      -8.853 -10.083 -14.883  1.00  0.00     0.076 C 
BRANCH  24  25
HETATM   25  C2  UNL     1     -10.269 -10.380 -15.245  1.00  0.00     0.003 C 
HETATM   26  C1  UNL     1     -10.383 -10.420 -16.743  1.00  0.00     0.005 C 
ENDBRANCH  24  25
ENDBRANCH   1  24
TORSDOF 5
ENDMDL
MODEL 5
REMARK VINA RESULT: -7.055789279      3.146      4.987
REMARK  5 active torsions:
REMARK  status: ('A' for Active; 'I' for Inactive)
REMARK    1  A    between atoms: C2_2  and  C3_3 
REMARK    2  A    between atoms: C3_3  and  C4_4 
REMARK    3  A    between atoms: C8_12  and  N3_13 
REMARK    4  A    between atoms: N3_13  and  C9_15 
REMARK    5  A    between atoms: C12_19  and  O1_20 
ROOT
HETATM    1  C4  UNL     1      -7.897  -5.194 -15.060  1.00  0.00     0.095 A 
HETATM    2  N1  UNL     1      -8.307  -5.095 -13.854  1.00  0.00    -0.353 N 
ATOM      3  H1  UNL     1      -8.496  -4.157 -13.500  1.00  0.00     0.163 HD
HETATM    4  C5  UNL     1      -8.526  -6.197 -12.951  1.00  0.00     0.114 A 
HETATM    5  C6  UNL     1     -10.015  -6.165 -12.582  1.00  0.00     0.063 C 
HETATM    6  C7  UNL     1      -7.709  -5.931 -11.703  1.00  0.00     0.063 C 
HETATM    7  N2  UNL     1      -8.236  -7.489 -13.530  1.00  0.00    -0.200 N 
ATOM      8  H2  UNL     1      -8.369  -8.315 -12.947  1.00  0.00     0.180 HD
HETATM    9  C8  UNL     1      -7.824  -7.663 -14.723  1.00  0.00     0.682 A 
HETATM   10  N4  UNL     1      -7.637  -6.516 -15.542  1.00  0.00    -0.181 N 
ATOM     11  H4  UNL     1      -7.308  -6.639 -16.499  1.00  0.00     0.185 HD
ENDROOT
BRANCH   9  12
HETATM   12  N3  UNL     1      -7.570  -8.978 -15.189  1.00  0.00    -0.187 N 
ATOM     13  H3  UNL     1      -7.360  -9.688 -14.489  1.00  0.00     0.184 HD
BRANCH  12  14
HETATM   14  C9  UNL     1      -7.583  -9.384 -16.529  1.00  0.00     0.105 A 
HETATM   15  C10 UNL     1      -6.545  -9.053 -17.394  1.00  0.00     0.147 A 
HETATM   16  F1  UNL     1      -5.531  -8.330 -16.884  1.00  0.00    -0.204 F 
HETATM   17  C11 UNL     1      -6.573  -9.457 -18.712  1.00  0.00     0.081 A 
HETATM   18  C12 UNL     1      -7.625 -10.197 -19.207  1.00  0.00     0.072 A 
HETATM   19  C14 UNL     1      -8.663 -10.535 -18.367  1.00  0.00     0.058 A 
HETATM   20  C15 UNL     1      -8.628 -10.121 -17.032  1.00  0.00     0.044 A 
HETATM   21 BR1  UNL     1     -10.073 -10.591 -15.887  1.00  0.00    -0.049 Br
BRANCH  18  22
HETATM   22  O1  UNL     1      -7.600 -10.577 -20.540  1.00  0.00    -0.356 OA
HETATM   23  C13 UNL     1      -6.995  -9.803 -21.528  1.00  0.00     0.210 C 
ENDBRANCH  18  22
ENDBRANCH  12  14
ENDBRANCH   9  12
BRANCH   1  24
HETATM   24  C3  UNL     1      -7.689  -4.004 -15.950  1.00  0.00     0.076 C 
BRANCH  24  25
HETATM   25  C2  UNL     1      -6.252  -3.822 -16.306  1.00  0.00     0.003 C 
HETATM   26  C1  UNL     1      -5.519  -3.312 -15.098  1.00  0.00     0.005 C 
ENDBRANCH  24  25
ENDBRANCH   1  24
TORSDOF 5
ENDMDL
