MODEL 1
REMARK VINA RESULT: -8.281102209      0.000      0.000
REMARK  4 active torsions:
REMARK  status: ('A' for Active; 'I' for Inactive)
REMARK    1  A    between atoms: C2_2  and  C3_3 
REMARK    2  A    between atoms: C3_3  and  C4_4 
REMARK    3  A    between atoms: C4_4  and  C5_5 
REMARK    4  A    between atoms: C4_4  and  C7_7 
ROOT
HETATM    1  C7  UNL     1     -26.598 -30.102   7.769  1.00  0.00    -0.074 C 
HETATM    2  C8  UNL     1     -27.624 -30.847   7.404  1.00  0.00     0.018 C 
HETATM    3  C9  UNL     1     -27.789 -32.255   7.731  1.00  0.00     0.013 A 
HETATM    4  C10 UNL     1     -26.815 -32.825   8.479  1.00  0.00     0.023 A 
HETATM    5  N1  UNL     1     -26.884 -34.165   8.715  1.00  0.00    -0.344 N 
ATOM      6  H1  UNL     1     -26.152 -34.601   9.275  1.00  0.00     0.167 HD
HETATM    7  C11 UNL     1     -27.862 -34.921   8.246  1.00  0.00     0.122 A 
HETATM    8  N2  UNL     1     -27.950 -36.191   8.456  1.00  0.00    -0.384 N 
ATOM      9  H21 UNL     1     -28.704 -36.774   8.095  1.00  0.00     0.157 HD
ATOM     10  H22 UNL     1     -27.211 -36.613   9.019  1.00  0.00     0.157 HD
HETATM   11  C12 UNL     1     -28.859 -34.351   7.488  1.00  0.00     0.113 A 
HETATM   12  C13 UNL     1     -29.955 -35.099   6.945  1.00  0.00     0.105 C 
HETATM   13  N3  UNL     1     -30.849 -35.701   6.508  1.00  0.00    -0.191 NA
HETATM   14  C14 UNL     1     -28.820 -32.995   7.227  1.00  0.00     0.083 A 
HETATM   15  N4  UNL     1     -29.862 -32.391   6.432  1.00  0.00    -0.100 NA
HETATM   16  C15 UNL     1     -25.765 -32.008   9.112  1.00  0.00     0.062 C 
HETATM   17  C16 UNL     1     -25.486 -30.746   8.449  1.00  0.00     0.040 C 
ENDROOT
BRANCH   1  18
HETATM   18  C4  UNL     1     -26.630 -28.682   7.342  1.00  0.00     0.014 C 
BRANCH  18  19
HETATM   19  C3  UNL     1     -27.798 -27.894   7.853  1.00  0.00     0.009 C 
BRANCH  19  20
HETATM   20  C2  UNL     1     -27.390 -26.798   8.813  1.00  0.00    -0.004 C 
HETATM   21  C1  UNL     1     -26.050 -27.111   9.441  1.00  0.00     0.005 C 
ENDBRANCH  19  20
ENDBRANCH  18  19
BRANCH  18  22
HETATM   22  C5  UNL     1     -26.406 -28.440   5.877  1.00  0.00     0.005 C 
HETATM   23  C6  UNL     1     -27.334 -27.508   5.197  1.00  0.00     0.006 C 
ENDBRANCH  18  22
ENDBRANCH   1  18
TORSDOF 4
ENDMDL
MODEL 2
REMARK VINA RESULT: -8.220447856      0.710      1.995
REMARK  4 active torsions:
REMARK  status: ('A' for Active; 'I' for Inactive)
REMARK    1  A    between atoms: C2_2  and  C3_3 
REMARK    2  A    between atoms: C3_3  and  C4_4 
REMARK    3  A    between atoms: C4_4  and  C5_5 
REMARK    4  A    between atoms: C4_4  and  C7_7 
ROOT
HETATM    1  C7  UNL     1     -26.701 -29.984   7.678  1.00  0.00    -0.074 C 
HETATM    2  C8  UNL     1     -27.712 -30.764   7.346  1.00  0.00     0.018 C 
HETATM    3  C9  UNL     1     -27.830 -32.170   7.699  1.00  0.00     0.013 A 
HETATM    4  C10 UNL     1     -26.825 -32.699   8.436  1.00  0.00     0.023 A 
HETATM    5  N1  UNL     1     -26.850 -34.036   8.695  1.00  0.00    -0.344 N 
ATOM      6  H1  UNL     1     -26.095 -34.442   9.247  1.00  0.00     0.167 HD
HETATM    7  C11 UNL     1     -27.816 -34.828   8.259  1.00  0.00     0.122 A 
HETATM    8  N2  UNL     1     -27.862 -36.096   8.491  1.00  0.00    -0.384 N 
ATOM      9  H21 UNL     1     -28.607 -36.707   8.155  1.00  0.00     0.157 HD
ATOM     10  H22 UNL     1     -27.101 -36.488   9.045  1.00  0.00     0.157 HD
HETATM   11  C12 UNL     1     -28.843 -34.300   7.512  1.00  0.00     0.113 A 
HETATM   12  C13 UNL     1     -29.928 -35.088   7.003  1.00  0.00     0.105 C 
HETATM   13  N3  UNL     1     -30.812 -35.722   6.594  1.00  0.00    -0.191 NA
HETATM   14  C14 UNL     1     -28.849 -32.948   7.228  1.00  0.00     0.083 A 
HETATM   15  N4  UNL     1     -29.923 -32.387   6.445  1.00  0.00    -0.100 NA
HETATM   16  C15 UNL     1     -25.787 -31.843   9.034  1.00  0.00     0.062 C 
HETATM   17  C16 UNL     1     -25.557 -30.584   8.345  1.00  0.00     0.040 C 
ENDROOT
BRANCH   1  18
HETATM   18  C4  UNL     1     -26.782 -28.572   7.229  1.00  0.00     0.014 C 
BRANCH  18  19
HETATM   19  C3  UNL     1     -25.627 -28.106   6.395  1.00  0.00     0.009 C 
BRANCH  19  20
HETATM   20  C2  UNL     1     -26.037 -27.728   4.989  1.00  0.00    -0.004 C 
HETATM   21  C1  UNL     1     -24.825 -27.375   4.156  1.00  0.00     0.005 C 
ENDBRANCH  19  20
ENDBRANCH  18  19
BRANCH  18  22
HETATM   22  C5  UNL     1     -27.125 -27.572   8.296  1.00  0.00     0.005 C 
HETATM   23  C6  UNL     1     -26.082 -27.276   9.304  1.00  0.00     0.006 C 
ENDBRANCH  18  22
ENDBRANCH   1  18
TORSDOF 4
ENDMDL
MODEL 3
REMARK VINA RESULT: -8.101177961      1.203      1.624
REMARK  4 active torsions:
REMARK  status: ('A' for Active; 'I' for Inactive)
REMARK    1  A    between atoms: C2_2  and  C3_3 
REMARK    2  A    between atoms: C3_3  and  C4_4 
REMARK    3  A    between atoms: C4_4  and  C5_5 
REMARK    4  A    between atoms: C4_4  and  C7_7 
ROOT
HETATM    1  C7  UNL     1     -26.320 -29.094   7.412  1.00  0.00    -0.074 C 
HETATM    2  C8  UNL     1     -27.184 -30.083   7.283  1.00  0.00     0.018 C 
HETATM    3  C9  UNL     1     -27.057 -31.388   7.915  1.00  0.00     0.013 A 
HETATM    4  C10 UNL     1     -25.974 -31.579   8.704  1.00  0.00     0.023 A 
HETATM    5  N1  UNL     1     -25.768 -32.820   9.227  1.00  0.00    -0.344 N 
ATOM      6  H1  UNL     1     -24.953 -32.972   9.820  1.00  0.00     0.167 HD
HETATM    7  C11 UNL     1     -26.585 -33.834   8.996  1.00  0.00     0.122 A 
HETATM    8  N2  UNL     1     -26.412 -35.018   9.479  1.00  0.00    -0.384 N 
ATOM      9  H21 UNL     1     -27.042 -35.800   9.301  1.00  0.00     0.157 HD
ATOM     10  H22 UNL     1     -25.593 -35.155  10.071  1.00  0.00     0.157 HD
HETATM   11  C12 UNL     1     -27.690 -33.649   8.198  1.00  0.00     0.113 A 
HETATM   12  C13 UNL     1     -28.626 -34.695   7.899  1.00  0.00     0.105 C 
HETATM   13  N3  UNL     1     -29.389 -35.538   7.660  1.00  0.00    -0.191 NA
HETATM   14  C14 UNL     1     -27.929 -32.404   7.649  1.00  0.00     0.083 A 
HETATM   15  N4  UNL     1     -29.087 -32.203   6.811  1.00  0.00    -0.100 NA
HETATM   16  C15 UNL     1     -25.096 -30.457   9.078  1.00  0.00     0.062 C 
HETATM   17  C16 UNL     1     -25.088 -29.345   8.142  1.00  0.00     0.040 C 
ENDROOT
BRANCH   1  18
HETATM   18  C4  UNL     1     -26.644 -27.838   6.693  1.00  0.00     0.014 C 
BRANCH  18  19
HETATM   19  C3  UNL     1     -28.046 -27.342   6.885  1.00  0.00     0.009 C 
BRANCH  19  20
HETATM   20  C2  UNL     1     -28.262 -26.715   8.244  1.00  0.00    -0.004 C 
HETATM   21  C1  UNL     1     -29.729 -26.724   8.609  1.00  0.00     0.005 C 
ENDBRANCH  19  20
ENDBRANCH  18  19
BRANCH  18  22
HETATM   22  C5  UNL     1     -26.244 -27.798   5.246  1.00  0.00     0.005 C 
HETATM   23  C6  UNL     1     -27.137 -27.068   4.318  1.00  0.00     0.006 C 
ENDBRANCH  18  22
ENDBRANCH   1  18
TORSDOF 4
ENDMDL
MODEL 4
REMARK VINA RESULT: -8.070644503      1.228      2.310
REMARK  4 active torsions:
REMARK  status: ('A' for Active; 'I' for Inactive)
REMARK    1  A    between atoms: C2_2  and  C3_3 
REMARK    2  A    between atoms: C3_3  and  C4_4 
REMARK    3  A    between atoms: C4_4  and  C5_5 
REMARK    4  A    between atoms: C4_4  and  C7_7 
ROOT
HETATM    1  C7  UNL     1     -26.474 -29.540   7.436  1.00  0.00    -0.074 C 
HETATM    2  C8  UNL     1     -27.313 -30.552   7.316  1.00  0.00     0.018 C 
HETATM    3  C9  UNL     1     -27.162 -31.842   7.971  1.00  0.00     0.013 A 
HETATM    4  C10 UNL     1     -26.081 -31.994   8.773  1.00  0.00     0.023 A 
HETATM    5  N1  UNL     1     -25.851 -33.221   9.319  1.00  0.00    -0.344 N 
ATOM      6  H1  UNL     1     -25.038 -33.344   9.921  1.00  0.00     0.167 HD
HETATM    7  C11 UNL     1     -26.642 -34.258   9.098  1.00  0.00     0.122 A 
HETATM    8  N2  UNL     1     -26.446 -35.429   9.603  1.00  0.00    -0.384 N 
ATOM      9  H21 UNL     1     -27.055 -36.229   9.433  1.00  0.00     0.157 HD
ATOM     10  H22 UNL     1     -25.629 -35.537  10.204  1.00  0.00     0.157 HD
HETATM   11  C12 UNL     1     -27.744 -34.113   8.287  1.00  0.00     0.113 A 
HETATM   12  C13 UNL     1     -28.652 -35.185   7.999  1.00  0.00     0.105 C 
HETATM   13  N3  UNL     1     -29.393 -36.050   7.768  1.00  0.00    -0.191 NA
HETATM   14  C14 UNL     1     -28.007 -32.883   7.715  1.00  0.00     0.083 A 
HETATM   15  N4  UNL     1     -29.161 -32.724   6.864  1.00  0.00    -0.100 NA
HETATM   16  C15 UNL     1     -25.233 -30.846   9.135  1.00  0.00     0.062 C 
HETATM   17  C16 UNL     1     -25.243 -29.750   8.181  1.00  0.00     0.040 C 
ENDROOT
BRANCH   1  18
HETATM   18  C4  UNL     1     -26.821 -28.305   6.692  1.00  0.00     0.014 C 
BRANCH  18  19
HETATM   19  C3  UNL     1     -25.663 -27.616   6.034  1.00  0.00     0.009 C 
BRANCH  19  20
HETATM   20  C2  UNL     1     -25.765 -27.618   4.525  1.00  0.00    -0.004 C 
HETATM   21  C1  UNL     1     -24.423 -27.310   3.900  1.00  0.00     0.005 C 
ENDBRANCH  19  20
ENDBRANCH  18  19
BRANCH  18  22
HETATM   22  C5  UNL     1     -27.690 -27.327   7.431  1.00  0.00     0.005 C 
HETATM   23  C6  UNL     1     -27.212 -26.864   8.753  1.00  0.00     0.006 C 
ENDBRANCH  18  22
ENDBRANCH   1  18
TORSDOF 4
ENDMDL
MODEL 5
REMARK VINA RESULT: -7.985196395      2.408      6.257
REMARK  4 active torsions:
REMARK  status: ('A' for Active; 'I' for Inactive)
REMARK    1  A    between atoms: C2_2  and  C3_3 
REMARK    2  A    between atoms: C3_3  and  C4_4 
REMARK    3  A    between atoms: C4_4  and  C5_5 
REMARK    4  A    between atoms: C4_4  and  C7_7 
ROOT
HETATM    1  C7  UNL     1     -26.981 -33.328   8.516  1.00  0.00    -0.074 C 
HETATM    2  C8  UNL     1     -27.834 -32.492   7.954  1.00  0.00     0.018 C 
HETATM    3  C9  UNL     1     -27.598 -31.070   7.756  1.00  0.00     0.013 A 
HETATM    4  C10 UNL     1     -26.403 -30.588   8.171  1.00  0.00     0.023 A 
HETATM    5  N1  UNL     1     -26.190 -29.244   8.097  1.00  0.00    -0.344 N 
ATOM      6  H1  UNL     1     -25.293 -28.873   8.411  1.00  0.00     0.167 HD
HETATM    7  C11 UNL     1     -27.100 -28.403   7.635  1.00  0.00     0.122 A 
HETATM    8  N2  UNL     1     -26.921 -27.128   7.555  1.00  0.00    -0.384 N 
ATOM      9  H21 UNL     1     -27.623 -26.479   7.198  1.00  0.00     0.157 HD
ATOM     10  H22 UNL     1     -26.019 -26.771   7.871  1.00  0.00     0.157 HD
HETATM   11  C12 UNL     1     -28.315 -28.884   7.207  1.00  0.00     0.113 A 
HETATM   12  C13 UNL     1     -29.355 -28.041   6.691  1.00  0.00     0.105 C 
HETATM   13  N3  UNL     1     -30.196 -27.362   6.266  1.00  0.00    -0.191 NA
HETATM   14  C14 UNL     1     -28.567 -30.241   7.270  1.00  0.00     0.083 A 
HETATM   15  N4  UNL     1     -29.840 -30.752   6.823  1.00  0.00    -0.100 NA
HETATM   16  C15 UNL     1     -25.320 -31.493   8.593  1.00  0.00     0.062 C 
HETATM   17  C16 UNL     1     -25.760 -32.786   9.090  1.00  0.00     0.040 C 
ENDROOT
BRANCH   1  18
HETATM   18  C4  UNL     1     -27.411 -34.745   8.610  1.00  0.00     0.014 C 
BRANCH  18  19
HETATM   19  C3  UNL     1     -28.885 -34.969   8.457  1.00  0.00     0.009 C 
BRANCH  19  20
HETATM   20  C2  UNL     1     -29.216 -35.932   7.338  1.00  0.00    -0.004 C 
HETATM   21  C1  UNL     1     -29.752 -35.189   6.136  1.00  0.00     0.005 C 
ENDBRANCH  19  20
ENDBRANCH  18  19
BRANCH  18  22
HETATM   22  C5  UNL     1     -26.859 -35.513   9.777  1.00  0.00     0.005 C 
HETATM   23  C6  UNL     1     -26.497 -36.930   9.541  1.00  0.00     0.006 C 
ENDBRANCH  18  22
ENDBRANCH   1  18
TORSDOF 4
ENDMDL
