MODEL 1
REMARK VINA RESULT: -7.960356150      0.000      0.000
REMARK  2 active torsions:
REMARK  status: ('A' for Active; 'I' for Inactive)
REMARK    1  A    between atoms: C3_8  and  C4_9 
REMARK    2  A    between atoms: C7_12  and  O1_13 
ROOT
HETATM    1  N1  UNL     1      16.023  14.870  40.505  1.00  0.00    -0.080 NA
HETATM    2  C1  UNL     1      14.965  15.303  39.614  1.00  0.00     0.143 A 
HETATM    3  N2  UNL     1      15.027  14.959  38.345  1.00  0.00    -0.326 N 
ATOM      4  H2  UNL     1      15.760  14.404  37.903  1.00  0.00     0.165 HD
HETATM    5  C2  UNL     1      13.890  15.500  37.707  1.00  0.00     0.289 A 
HETATM    6  N3  UNL     1      13.161  16.184  38.691  1.00  0.00    -0.336 N 
ATOM      7  H3  UNL     1      12.285  16.684  38.538  1.00  0.00     0.164 HD
HETATM    8  C3  UNL     1      13.799  16.075  39.860  1.00  0.00     0.085 A 
HETATM    9  N5  UNL     1      13.166  14.402  37.090  1.00  0.00    -0.027 N 
ATOM     10  H51 UNL     1      13.047  13.629  37.744  1.00  0.00     0.282 HD
ATOM     11  H52 UNL     1      13.740  13.937  36.386  1.00  0.00     0.282 HD
HETATM   12  C10 UNL     1      11.909  14.805  36.540  1.00  0.00     0.253 C 
HETATM   13  C11 UNL     1      11.957  16.035  35.699  1.00  0.00     0.085 C 
HETATM   14  S1  UNL     1      10.262  16.718  35.604  1.00  0.00    -0.091 SA
HETATM   15  C12 UNL     1      12.877  17.097  36.202  1.00  0.00     0.040 C 
HETATM   16  C13 UNL     1      14.223  16.482  36.598  1.00  0.00     0.138 C 
HETATM   17  S2  UNL     1      14.924  15.671  35.157  1.00  0.00    -0.086 SA
ENDROOT
BRANCH   8  18
HETATM   18  C4  UNL     1      13.248  16.703  41.065  1.00  0.00     0.018 A 
HETATM   19  C5  UNL     1      13.101  18.107  40.971  1.00  0.00     0.018 A 
HETATM   20  C6  UNL     1      12.601  18.864  42.001  1.00  0.00     0.037 A 
HETATM   21  C7  UNL     1      12.217  18.291  43.185  1.00  0.00     0.067 A 
HETATM   22  C8  UNL     1      12.348  16.954  43.300  1.00  0.00     0.064 A 
HETATM   23  C9  UNL     1      12.860  16.184  42.239  1.00  0.00     0.061 A 
HETATM   24  N4  UNL     1      12.920  14.823  42.547  1.00  0.00    -0.101 NA
BRANCH  21  25
HETATM   25  O1  UNL     1      11.708  19.082  44.227  1.00  0.00    -0.361 OA
ATOM     26  H1  UNL     1      11.044  18.739  44.813  1.00  0.00     0.217 HD
ENDBRANCH  21  25
ENDBRANCH   8  18
TORSDOF 2
ENDMDL
MODEL 2
REMARK VINA RESULT: -7.728206868      1.884      2.328
REMARK  2 active torsions:
REMARK  status: ('A' for Active; 'I' for Inactive)
REMARK    1  A    between atoms: C3_8  and  C4_9 
REMARK    2  A    between atoms: C7_12  and  O1_13 
ROOT
HETATM    1  N1  UNL     1      13.552  14.969  42.772  1.00  0.00    -0.080 NA
HETATM    2  C1  UNL     1      13.237  15.426  41.433  1.00  0.00     0.143 A 
HETATM    3  N2  UNL     1      13.789  14.810  40.408  1.00  0.00    -0.326 N 
ATOM      4  H2  UNL     1      14.436  14.022  40.453  1.00  0.00     0.165 HD
HETATM    5  C2  UNL     1      13.321  15.443  39.237  1.00  0.00     0.289 A 
HETATM    6  N3  UNL     1      12.458  16.469  39.648  1.00  0.00    -0.336 N 
ATOM      7  H3  UNL     1      11.961  17.108  39.028  1.00  0.00     0.164 HD
HETATM    8  C3  UNL     1      12.393  16.475  40.983  1.00  0.00     0.085 A 
HETATM    9  N5  UNL     1      12.685  14.429  38.413  1.00  0.00    -0.027 N 
ATOM     10  H51 UNL     1      12.039  13.863  38.963  1.00  0.00     0.282 HD
ATOM     11  H52 UNL     1      13.352  13.706  38.145  1.00  0.00     0.282 HD
HETATM   12  C10 UNL     1      12.033  14.976  37.264  1.00  0.00     0.253 C 
HETATM   13  C11 UNL     1      12.848  15.952  36.486  1.00  0.00     0.085 C 
HETATM   14  S1  UNL     1      11.704  16.961  35.476  1.00  0.00    -0.091 SA
HETATM   15  C12 UNL     1      13.689  16.862  37.316  1.00  0.00     0.040 C 
HETATM   16  C13 UNL     1      14.424  16.060  38.396  1.00  0.00     0.138 C 
HETATM   17  S2  UNL     1      15.442  14.821  37.590  1.00  0.00    -0.086 SA
ENDROOT
BRANCH   8  18
HETATM   18  C4  UNL     1      11.554  17.455  41.678  1.00  0.00     0.018 A 
HETATM   19  C5  UNL     1      12.240  18.214  42.656  1.00  0.00     0.018 A 
HETATM   20  C6  UNL     1      11.618  19.179  43.408  1.00  0.00     0.037 A 
HETATM   21  C7  UNL     1      10.286  19.458  43.248  1.00  0.00     0.067 A 
HETATM   22  C8  UNL     1       9.609  18.749  42.322  1.00  0.00     0.064 A 
HETATM   23  C9  UNL     1      10.255  17.761  41.554  1.00  0.00     0.061 A 
HETATM   24  N4  UNL     1       9.391  17.136  40.652  1.00  0.00    -0.101 NA
BRANCH  21  25
HETATM   25  O1  UNL     1       9.667  20.449  44.026  1.00  0.00    -0.361 OA
ATOM     26  H1  UNL     1       9.408  21.276  43.637  1.00  0.00     0.217 HD
ENDBRANCH  21  25
ENDBRANCH   8  18
TORSDOF 2
ENDMDL
MODEL 3
REMARK VINA RESULT: -7.433331817      3.885      5.961
REMARK  2 active torsions:
REMARK  status: ('A' for Active; 'I' for Inactive)
REMARK    1  A    between atoms: C3_8  and  C4_9 
REMARK    2  A    between atoms: C7_12  and  O1_13 
ROOT
HETATM    1  N1  UNL     1      13.181  14.972  43.618  1.00  0.00    -0.080 NA
HETATM    2  C1  UNL     1      12.089  15.352  42.744  1.00  0.00     0.143 A 
HETATM    3  N2  UNL     1      10.932  15.678  43.282  1.00  0.00    -0.326 N 
ATOM      4  H2  UNL     1      10.712  15.693  44.278  1.00  0.00     0.165 HD
HETATM    5  C2  UNL     1      10.055  16.003  42.226  1.00  0.00     0.289 A 
HETATM    6  N3  UNL     1      10.778  15.844  41.035  1.00  0.00    -0.336 N 
ATOM      7  H3  UNL     1      10.414  16.005  40.096  1.00  0.00     0.164 HD
HETATM    8  C3  UNL     1      12.020  15.448  41.329  1.00  0.00     0.085 A 
HETATM    9  N5  UNL     1       9.576  17.357  42.452  1.00  0.00    -0.027 N 
ATOM     10  H51 UNL     1      10.349  17.986  42.667  1.00  0.00     0.282 HD
ATOM     11  H52 UNL     1       9.061  17.420  43.330  1.00  0.00     0.282 HD
HETATM   12  C10 UNL     1       8.795  17.858  41.364  1.00  0.00     0.253 C 
HETATM   13  C11 UNL     1       7.742  16.928  40.867  1.00  0.00     0.085 C 
HETATM   14  S1  UNL     1       7.288  17.446  39.172  1.00  0.00    -0.091 SA
HETATM   15  C12 UNL     1       8.142  15.491  40.840  1.00  0.00     0.040 C 
HETATM   16  C13 UNL     1       8.827  15.112  42.157  1.00  0.00     0.138 C 
HETATM   17  S2  UNL     1       7.682  15.422  43.505  1.00  0.00    -0.086 SA
ENDROOT
BRANCH   8  18
HETATM   18  C4  UNL     1      12.992  15.207  40.259  1.00  0.00     0.018 A 
HETATM   19  C5  UNL     1      14.294  15.685  40.542  1.00  0.00     0.018 A 
HETATM   20  C6  UNL     1      15.335  15.548  39.658  1.00  0.00     0.037 A 
HETATM   21  C7  UNL     1      15.163  14.936  38.444  1.00  0.00     0.067 A 
HETATM   22  C8  UNL     1      13.932  14.473  38.150  1.00  0.00     0.064 A 
HETATM   23  C9  UNL     1      12.869  14.615  39.063  1.00  0.00     0.061 A 
HETATM   24  N4  UNL     1      11.675  14.074  38.581  1.00  0.00    -0.101 NA
BRANCH  21  25
HETATM   25  O1  UNL     1      16.241  14.806  37.553  1.00  0.00    -0.361 OA
ATOM     26  H1  UNL     1      16.674  13.968  37.440  1.00  0.00     0.217 HD
ENDBRANCH  21  25
ENDBRANCH   8  18
TORSDOF 2
ENDMDL
MODEL 4
REMARK VINA RESULT: -6.998448883      3.971      6.104
REMARK  2 active torsions:
REMARK  status: ('A' for Active; 'I' for Inactive)
REMARK    1  A    between atoms: C3_8  and  C4_9 
REMARK    2  A    between atoms: C7_12  and  O1_13 
ROOT
HETATM    1  N1  UNL     1      13.195  15.321  43.793  1.00  0.00    -0.080 NA
HETATM    2  C1  UNL     1      12.052  15.655  42.966  1.00  0.00     0.143 A 
HETATM    3  N2  UNL     1      10.880  15.819  43.544  1.00  0.00    -0.326 N 
ATOM      4  H2  UNL     1      10.680  15.733  44.540  1.00  0.00     0.165 HD
HETATM    5  C2  UNL     1       9.953  16.134  42.528  1.00  0.00     0.289 A 
HETATM    6  N3  UNL     1      10.663  16.143  41.319  1.00  0.00    -0.336 N 
ATOM      7  H3  UNL     1      10.265  16.339  40.401  1.00  0.00     0.164 HD
HETATM    8  C3  UNL     1      11.944  15.854  41.564  1.00  0.00     0.085 A 
HETATM    9  N5  UNL     1       9.344  17.409  42.867  1.00  0.00    -0.027 N 
ATOM     10  H51 UNL     1      10.054  18.096  43.122  1.00  0.00     0.282 HD
ATOM     11  H52 UNL     1       8.844  17.351  43.755  1.00  0.00     0.282 HD
HETATM   12  C10 UNL     1       8.494  17.912  41.833  1.00  0.00     0.253 C 
HETATM   13  C11 UNL     1       7.530  16.921  41.277  1.00  0.00     0.085 C 
HETATM   14  S1  UNL     1       6.991  17.521  39.635  1.00  0.00    -0.091 SA
HETATM   15  C12 UNL     1       8.073  15.539  41.130  1.00  0.00     0.040 C 
HETATM   16  C13 UNL     1       8.820  15.130  42.404  1.00  0.00     0.138 C 
HETATM   17  S2  UNL     1       7.678  15.215  43.787  1.00  0.00    -0.086 SA
ENDROOT
BRANCH   8  18
HETATM   18  C4  UNL     1      12.914  15.798  40.467  1.00  0.00     0.018 A 
HETATM   19  C5  UNL     1      12.884  14.590  39.730  1.00  0.00     0.018 A 
HETATM   20  C6  UNL     1      13.720  14.358  38.666  1.00  0.00     0.037 A 
HETATM   21  C7  UNL     1      14.635  15.294  38.262  1.00  0.00     0.067 A 
HETATM   22  C8  UNL     1      14.684  16.453  38.948  1.00  0.00     0.064 A 
HETATM   23  C9  UNL     1      13.822  16.685  40.037  1.00  0.00     0.061 A 
HETATM   24  N4  UNL     1      14.022  17.939  40.619  1.00  0.00    -0.101 NA
BRANCH  21  25
HETATM   25  O1  UNL     1      15.481  15.038  37.171  1.00  0.00    -0.361 OA
ATOM     26  H1  UNL     1      16.206  15.620  36.976  1.00  0.00     0.217 HD
ENDBRANCH  21  25
ENDBRANCH   8  18
TORSDOF 2
ENDMDL
MODEL 5
REMARK VINA RESULT: -6.872832598      1.544      1.878
REMARK  2 active torsions:
REMARK  status: ('A' for Active; 'I' for Inactive)
REMARK    1  A    between atoms: C3_8  and  C4_9 
REMARK    2  A    between atoms: C7_12  and  O1_13 
ROOT
HETATM    1  N1  UNL     1      15.710  14.948  40.446  1.00  0.00    -0.080 NA
HETATM    2  C1  UNL     1      14.615  15.178  39.525  1.00  0.00     0.143 A 
HETATM    3  N2  UNL     1      14.841  15.067  38.233  1.00  0.00    -0.326 N 
ATOM      4  H2  UNL     1      15.730  14.830  37.793  1.00  0.00     0.165 HD
HETATM    5  C2  UNL     1      13.625  15.337  37.570  1.00  0.00     0.289 A 
HETATM    6  N3  UNL     1      12.674  15.613  38.563  1.00  0.00    -0.336 N 
ATOM      7  H3  UNL     1      11.695  15.846  38.397  1.00  0.00     0.164 HD
HETATM    8  C3  UNL     1      13.257  15.522  39.761  1.00  0.00     0.085 A 
HETATM    9  N5  UNL     1      13.304  14.181  36.749  1.00  0.00    -0.027 N 
ATOM     10  H51 UNL     1      13.398  13.317  37.283  1.00  0.00     0.282 HD
ATOM     11  H52 UNL     1      14.027  14.021  36.047  1.00  0.00     0.282 HD
HETATM   12  C10 UNL     1      12.012  14.271  36.143  1.00  0.00     0.253 C 
HETATM   13  C11 UNL     1      11.720  15.573  35.479  1.00  0.00     0.085 C 
HETATM   14  S1  UNL     1       9.904  15.727  35.317  1.00  0.00    -0.091 SA
HETATM   15  C12 UNL     1      12.243  16.769  36.200  1.00  0.00     0.040 C 
HETATM   16  C13 UNL     1      13.693  16.531  36.634  1.00  0.00     0.138 C 
HETATM   17  S2  UNL     1      14.678  16.196  35.171  1.00  0.00    -0.086 SA
ENDROOT
BRANCH   8  18
HETATM   18  C4  UNL     1      12.483  15.764  40.982  1.00  0.00     0.018 A 
HETATM   19  C5  UNL     1      12.847  14.939  42.072  1.00  0.00     0.018 A 
HETATM   20  C6  UNL     1      12.232  15.024  43.296  1.00  0.00     0.037 A 
HETATM   21  C7  UNL     1      11.221  15.921  43.524  1.00  0.00     0.067 A 
HETATM   22  C8  UNL     1      10.855  16.718  42.502  1.00  0.00     0.064 A 
HETATM   23  C9  UNL     1      11.492  16.626  41.249  1.00  0.00     0.061 A 
HETATM   24  N4  UNL     1      10.975  17.531  40.320  1.00  0.00    -0.101 NA
BRANCH  21  25
HETATM   25  O1  UNL     1      10.604  15.992  44.784  1.00  0.00    -0.361 OA
ATOM     26  H1  UNL     1      10.673  16.780  45.310  1.00  0.00     0.217 HD
ENDBRANCH  21  25
ENDBRANCH   8  18
TORSDOF 2
ENDMDL
