MODEL 1
REMARK VINA RESULT: -7.697439883      0.000      0.000
REMARK  6 active torsions:
REMARK  status: ('A' for Active; 'I' for Inactive)
REMARK    1  A    between atoms: O1_2  and  C2_3 
REMARK    2  A    between atoms: C4_5  and  C5_6 
REMARK    3  A    between atoms: N1_8  and  N2_10 
REMARK       I    between atoms: N2_10  and  C7_11 
REMARK       I    between atoms: C7_11  and  N3_13 
REMARK    4  A    between atoms: N3_13  and  N4_15 
REMARK    5  A    between atoms: C20_28  and  O3_29 
REMARK    6  A    between atoms: C22_31  and  O4_32 
ROOT
HETATM    1  N2  UNL     1      17.438  -6.127 -45.577  1.00  0.00    -0.264 NA
HETATM    2  C7  UNL     1      16.647  -6.296 -46.666  1.00  0.00     0.430 C 
HETATM    3  O2  UNL     1      15.622  -5.551 -46.914  1.00  0.00    -0.227 OA
HETATM    4  N3  UNL     1      16.950  -7.351 -47.582  1.00  0.00    -0.240 N 
ATOM      5  H3  UNL     1      17.773  -7.909 -47.352  1.00  0.00     0.192 HD
ENDROOT
BRANCH   1   6
HETATM    6  N1  UNL     1      18.188  -5.965 -44.543  1.00  0.00    -0.234 N 
HETATM    7  C5  UNL     1      18.060  -5.844 -43.299  1.00  0.00     0.045 C 
HETATM    8  C6  UNL     1      16.741  -5.866 -42.664  1.00  0.00     0.071 C 
ATOM      9  H1  UNL     1      19.170  -5.924 -44.811  1.00  0.00     0.201 HD
BRANCH   7  10
HETATM   10  C4  UNL     1      19.260  -5.671 -42.486  1.00  0.00    -0.006 A 
HETATM   11  C3  UNL     1      20.480  -6.179 -42.876  1.00  0.00     0.053 A 
HETATM   12  C2  UNL     1      21.642  -6.028 -42.142  1.00  0.00     0.105 A 
HETATM   13  C22 UNL     1      21.562  -5.331 -40.959  1.00  0.00     0.135 A 
HETATM   14  C20 UNL     1      20.341  -4.798 -40.527  1.00  0.00     0.105 A 
HETATM   15  C19 UNL     1      19.208  -4.974 -41.293  1.00  0.00     0.053 A 
BRANCH  12  16
HETATM   16  O1  UNL     1      22.875  -6.532 -42.516  1.00  0.00    -0.353 OA
HETATM   17  C1  UNL     1      22.988  -7.930 -42.711  1.00  0.00     0.210 C 
ENDBRANCH  12  16
BRANCH  13  18
HETATM   18  O4  UNL     1      22.702  -5.160 -40.196  1.00  0.00    -0.351 OA
HETATM   19  C23 UNL     1      23.151  -6.208 -39.338  1.00  0.00     0.210 C 
ENDBRANCH  13  18
BRANCH  14  20
HETATM   20  O3  UNL     1      20.353  -4.113 -39.330  1.00  0.00    -0.353 OA
HETATM   21  C21 UNL     1      20.990  -2.855 -39.273  1.00  0.00     0.210 C 
ENDBRANCH  14  20
ENDBRANCH   7  10
ENDBRANCH   1   6
BRANCH   4  22
HETATM   22  N4  UNL     1      16.313  -7.704 -48.685  1.00  0.00    -0.318 N 
HETATM   23  C8  UNL     1      15.076  -8.426 -48.495  1.00  0.00     0.144 C 
HETATM   24  C9  UNL     1      15.158  -9.696 -49.272  1.00  0.00     0.030 C 
HETATM   25  C10 UNL     1      15.327  -9.368 -50.738  1.00  0.00    -0.041 C 
HETATM   26  C11 UNL     1      13.979  -9.009 -51.272  1.00  0.00     0.015 C 
HETATM   27  C12 UNL     1      15.706 -10.706 -51.400  1.00  0.00     0.015 C 
HETATM   28  C13 UNL     1      16.433  -8.428 -51.017  1.00  0.00     0.018 C 
HETATM   29  C14 UNL     1      16.424  -7.811 -52.364  1.00  0.00     0.007 C 
HETATM   30  C18 UNL     1      16.616  -7.319 -49.977  1.00  0.00     0.107 C 
HETATM   31  C15 UNL     1      17.316  -6.574 -52.352  1.00  0.00     0.001 C 
HETATM   32  C16 UNL     1      16.637  -5.471 -51.584  1.00  0.00     0.002 C 
HETATM   33  C17 UNL     1      15.840  -6.071 -50.446  1.00  0.00     0.027 C 
ENDBRANCH   4  22
TORSDOF 6
ENDMDL
MODEL 2
REMARK VINA RESULT: -7.636730496      0.047      2.203
REMARK  6 active torsions:
REMARK  status: ('A' for Active; 'I' for Inactive)
REMARK    1  A    between atoms: O1_2  and  C2_3 
REMARK    2  A    between atoms: C4_5  and  C5_6 
REMARK    3  A    between atoms: N1_8  and  N2_10 
REMARK       I    between atoms: N2_10  and  C7_11 
REMARK       I    between atoms: C7_11  and  N3_13 
REMARK    4  A    between atoms: N3_13  and  N4_15 
REMARK    5  A    between atoms: C20_28  and  O3_29 
REMARK    6  A    between atoms: C22_31  and  O4_32 
ROOT
HETATM    1  N2  UNL     1      17.444  -6.107 -45.628  1.00  0.00    -0.264 NA
HETATM    2  C7  UNL     1      16.651  -6.276 -46.717  1.00  0.00     0.430 C 
HETATM    3  O2  UNL     1      15.629  -5.529 -46.966  1.00  0.00    -0.227 OA
HETATM    4  N3  UNL     1      16.951  -7.334 -47.630  1.00  0.00    -0.240 N 
ATOM      5  H3  UNL     1      17.772  -7.894 -47.399  1.00  0.00     0.192 HD
ENDROOT
BRANCH   1   6
HETATM    6  N1  UNL     1      18.195  -5.945 -44.596  1.00  0.00    -0.234 N 
HETATM    7  C5  UNL     1      18.069  -5.831 -43.351  1.00  0.00     0.045 C 
HETATM    8  C6  UNL     1      16.752  -5.868 -42.713  1.00  0.00     0.071 C 
ATOM      9  H1  UNL     1      19.176  -5.894 -44.866  1.00  0.00     0.201 HD
BRANCH   7  10
HETATM   10  C4  UNL     1      19.270  -5.653 -42.540  1.00  0.00    -0.006 A 
HETATM   11  C3  UNL     1      19.240  -4.977 -41.339  1.00  0.00     0.053 A 
HETATM   12  C2  UNL     1      20.351  -4.796 -40.535  1.00  0.00     0.105 A 
HETATM   13  C22 UNL     1      21.544  -5.323 -40.970  1.00  0.00     0.135 A 
HETATM   14  C20 UNL     1      21.617  -6.017 -42.185  1.00  0.00     0.105 A 
HETATM   15  C19 UNL     1      20.483  -6.173 -42.953  1.00  0.00     0.053 A 
BRANCH  12  16
HETATM   16  O1  UNL     1      20.341  -4.121 -39.328  1.00  0.00    -0.353 OA
HETATM   17  C1  UNL     1      21.001  -2.871 -39.263  1.00  0.00     0.210 C 
ENDBRANCH  12  16
BRANCH  13  18
HETATM   18  O4  UNL     1      22.678  -5.162 -40.195  1.00  0.00    -0.351 OA
HETATM   19  C23 UNL     1      23.122  -6.223 -39.349  1.00  0.00     0.210 C 
ENDBRANCH  13  18
BRANCH  14  20
HETATM   20  O3  UNL     1      22.854  -6.512 -42.542  1.00  0.00    -0.353 OA
HETATM   21  C21 UNL     1      23.003  -7.903 -42.721  1.00  0.00     0.210 C 
ENDBRANCH  14  20
ENDBRANCH   7  10
ENDBRANCH   1   6
BRANCH   4  22
HETATM   22  N4  UNL     1      16.312  -7.688 -48.732  1.00  0.00    -0.318 N 
HETATM   23  C8  UNL     1      15.072  -8.405 -48.539  1.00  0.00     0.144 C 
HETATM   24  C9  UNL     1      15.149  -9.678 -49.312  1.00  0.00     0.030 C 
HETATM   25  C10 UNL     1      15.319  -9.355 -50.779  1.00  0.00    -0.041 C 
HETATM   26  C11 UNL     1      13.972  -8.992 -51.314  1.00  0.00     0.015 C 
HETATM   27  C12 UNL     1      15.691 -10.697 -51.436  1.00  0.00     0.015 C 
HETATM   28  C13 UNL     1      16.429  -8.421 -51.061  1.00  0.00     0.018 C 
HETATM   29  C14 UNL     1      16.421  -7.808 -52.410  1.00  0.00     0.007 C 
HETATM   30  C18 UNL     1      16.616  -7.309 -50.025  1.00  0.00     0.107 C 
HETATM   31  C15 UNL     1      17.318  -6.575 -52.403  1.00  0.00     0.001 C 
HETATM   32  C16 UNL     1      16.645  -5.466 -51.638  1.00  0.00     0.002 C 
HETATM   33  C17 UNL     1      15.846  -6.060 -50.498  1.00  0.00     0.027 C 
ENDBRANCH   4  22
TORSDOF 6
ENDMDL
MODEL 3
REMARK VINA RESULT: -7.513042359      5.222      8.141
REMARK  6 active torsions:
REMARK  status: ('A' for Active; 'I' for Inactive)
REMARK    1  A    between atoms: O1_2  and  C2_3 
REMARK    2  A    between atoms: C4_5  and  C5_6 
REMARK    3  A    between atoms: N1_8  and  N2_10 
REMARK       I    between atoms: N2_10  and  C7_11 
REMARK       I    between atoms: C7_11  and  N3_13 
REMARK    4  A    between atoms: N3_13  and  N4_15 
REMARK    5  A    between atoms: C20_28  and  O3_29 
REMARK    6  A    between atoms: C22_31  and  O4_32 
ROOT
HETATM    1  N2  UNL     1      22.823  -8.326 -44.583  1.00  0.00    -0.264 NA
HETATM    2  C7  UNL     1      23.859  -9.080 -45.033  1.00  0.00     0.430 C 
HETATM    3  O2  UNL     1      25.000  -9.139 -44.432  1.00  0.00    -0.227 OA
HETATM    4  N3  UNL     1      23.687  -9.842 -46.230  1.00  0.00    -0.240 N 
ATOM      5  H3  UNL     1      22.768  -9.774 -46.666  1.00  0.00     0.192 HD
ENDROOT
BRANCH   1   6
HETATM    6  N1  UNL     1      21.844  -7.611 -44.156  1.00  0.00    -0.234 N 
HETATM    7  C5  UNL     1      21.273  -6.529 -44.445  1.00  0.00     0.045 C 
HETATM    8  C6  UNL     1      21.725  -5.707 -45.569  1.00  0.00     0.071 C 
ATOM      9  H1  UNL     1      21.402  -8.048 -43.348  1.00  0.00     0.201 HD
BRANCH   7  10
HETATM   10  C4  UNL     1      20.142  -6.095 -43.630  1.00  0.00    -0.006 A 
HETATM   11  C3  UNL     1      18.851  -6.117 -44.111  1.00  0.00     0.053 A 
HETATM   12  C2  UNL     1      17.751  -5.725 -43.369  1.00  0.00     0.105 A 
HETATM   13  C22 UNL     1      17.972  -5.293 -42.083  1.00  0.00     0.135 A 
HETATM   14  C20 UNL     1      19.269  -5.256 -41.556  1.00  0.00     0.105 A 
HETATM   15  C19 UNL     1      20.336  -5.656 -42.333  1.00  0.00     0.053 A 
BRANCH  12  16
HETATM   16  O1  UNL     1      16.449  -5.739 -43.835  1.00  0.00    -0.353 OA
HETATM   17  C1  UNL     1      16.243  -5.622 -45.231  1.00  0.00     0.210 C 
ENDBRANCH  12  16
BRANCH  13  18
HETATM   18  O4  UNL     1      16.898  -4.892 -41.310  1.00  0.00    -0.351 OA
HETATM   19  C23 UNL     1      15.927  -5.848 -40.885  1.00  0.00     0.210 C 
ENDBRANCH  13  18
BRANCH  14  20
HETATM   20  O3  UNL     1      19.397  -4.809 -40.257  1.00  0.00    -0.353 OA
HETATM   21  C21 UNL     1      20.589  -4.155 -39.878  1.00  0.00     0.210 C 
ENDBRANCH  14  20
ENDBRANCH   7  10
ENDBRANCH   1   6
BRANCH   4  22
HETATM   22  N4  UNL     1      24.556 -10.623 -46.850  1.00  0.00    -0.318 N 
HETATM   23  C8  UNL     1      24.555 -12.011 -46.448  1.00  0.00     0.144 C 
HETATM   24  C9  UNL     1      25.946 -12.380 -46.056  1.00  0.00     0.030 C 
HETATM   25  C10 UNL     1      26.857 -12.204 -47.250  1.00  0.00    -0.041 C 
HETATM   26  C11 UNL     1      26.677 -13.400 -48.128  1.00  0.00     0.015 C 
HETATM   27  C12 UNL     1      28.282 -12.307 -46.675  1.00  0.00     0.015 C 
HETATM   28  C13 UNL     1      26.753 -10.877 -47.892  1.00  0.00     0.018 C 
HETATM   29  C14 UNL     1      27.349 -10.772 -49.244  1.00  0.00     0.007 C 
HETATM   30  C18 UNL     1      25.338 -10.292 -47.939  1.00  0.00     0.107 C 
HETATM   31  C15 UNL     1      26.790  -9.537 -49.942  1.00  0.00     0.001 C 
HETATM   32  C16 UNL     1      25.357  -9.786 -50.336  1.00  0.00     0.002 C 
HETATM   33  C17 UNL     1      24.698 -10.662 -49.293  1.00  0.00     0.027 C 
ENDBRANCH   4  22
TORSDOF 6
ENDMDL
MODEL 4
REMARK VINA RESULT: -7.491474365      5.234      8.243
REMARK  6 active torsions:
REMARK  status: ('A' for Active; 'I' for Inactive)
REMARK    1  A    between atoms: O1_2  and  C2_3 
REMARK    2  A    between atoms: C4_5  and  C5_6 
REMARK    3  A    between atoms: N1_8  and  N2_10 
REMARK       I    between atoms: N2_10  and  C7_11 
REMARK       I    between atoms: C7_11  and  N3_13 
REMARK    4  A    between atoms: N3_13  and  N4_15 
REMARK    5  A    between atoms: C20_28  and  O3_29 
REMARK    6  A    between atoms: C22_31  and  O4_32 
ROOT
HETATM    1  N2  UNL     1      22.774  -8.354 -44.609  1.00  0.00    -0.264 NA
HETATM    2  C7  UNL     1      23.816  -9.100 -45.056  1.00  0.00     0.430 C 
HETATM    3  O2  UNL     1      24.957  -9.149 -44.454  1.00  0.00    -0.227 OA
HETATM    4  N3  UNL     1      23.653  -9.865 -46.253  1.00  0.00    -0.240 N 
ATOM      5  H3  UNL     1      22.734  -9.804 -46.691  1.00  0.00     0.192 HD
ENDROOT
BRANCH   1   6
HETATM    6  N1  UNL     1      21.788  -7.646 -44.184  1.00  0.00    -0.234 N 
HETATM    7  C5  UNL     1      21.231  -6.552 -44.453  1.00  0.00     0.045 C 
HETATM    8  C6  UNL     1      21.718  -5.697 -45.537  1.00  0.00     0.071 C 
ATOM      9  H1  UNL     1      21.322  -8.106 -43.402  1.00  0.00     0.201 HD
BRANCH   7  10
HETATM   10  C4  UNL     1      20.082  -6.136 -43.654  1.00  0.00    -0.006 A 
HETATM   11  C3  UNL     1      20.226  -5.666 -42.366  1.00  0.00     0.053 A 
HETATM   12  C2  UNL     1      19.165  -5.252 -41.580  1.00  0.00     0.105 A 
HETATM   13  C22 UNL     1      17.905  -5.319 -42.125  1.00  0.00     0.135 A 
HETATM   14  C20 UNL     1      17.716  -5.791 -43.430  1.00  0.00     0.105 A 
HETATM   15  C19 UNL     1      18.803  -6.194 -44.177  1.00  0.00     0.053 A 
BRANCH  12  16
HETATM   16  O1  UNL     1      19.290  -4.778 -40.287  1.00  0.00    -0.353 OA
HETATM   17  C1  UNL     1      20.539  -4.238 -39.897  1.00  0.00     0.210 C 
ENDBRANCH  12  16
BRANCH  13  18
HETATM   18  O4  UNL     1      16.819  -4.916 -41.370  1.00  0.00    -0.351 OA
HETATM   19  C23 UNL     1      15.906  -5.885 -40.857  1.00  0.00     0.210 C 
ENDBRANCH  13  18
BRANCH  14  20
HETATM   20  O3  UNL     1      16.418  -5.824 -43.895  1.00  0.00    -0.353 OA
HETATM   21  C21 UNL     1      15.912  -7.035 -44.414  1.00  0.00     0.210 C 
ENDBRANCH  14  20
ENDBRANCH   7  10
ENDBRANCH   1   6
BRANCH   4  22
HETATM   22  N4  UNL     1      24.529 -10.639 -46.871  1.00  0.00    -0.318 N 
HETATM   23  C8  UNL     1      24.556 -12.021 -46.448  1.00  0.00     0.144 C 
HETATM   24  C9  UNL     1      25.957 -12.360 -46.066  1.00  0.00     0.030 C 
HETATM   25  C10 UNL     1      26.853 -12.186 -47.271  1.00  0.00    -0.041 C 
HETATM   26  C11 UNL     1      26.686 -13.397 -48.130  1.00  0.00     0.015 C 
HETATM   27  C12 UNL     1      28.286 -12.256 -46.710  1.00  0.00     0.015 C 
HETATM   28  C13 UNL     1      26.719 -10.870 -47.931  1.00  0.00     0.018 C 
HETATM   29  C14 UNL     1      27.300 -10.774 -49.291  1.00  0.00     0.007 C 
HETATM   30  C18 UNL     1      25.294 -10.310 -47.972  1.00  0.00     0.107 C 
HETATM   31  C15 UNL     1      26.712  -9.559 -50.000  1.00  0.00     0.001 C 
HETATM   32  C16 UNL     1      25.281  -9.838 -50.376  1.00  0.00     0.002 C 
HETATM   33  C17 UNL     1      24.647 -10.710 -49.314  1.00  0.00     0.027 C 
ENDBRANCH   4  22
TORSDOF 6
ENDMDL
MODEL 5
REMARK VINA RESULT: -7.489294706      4.666      8.363
REMARK  6 active torsions:
REMARK  status: ('A' for Active; 'I' for Inactive)
REMARK    1  A    between atoms: O1_2  and  C2_3 
REMARK    2  A    between atoms: C4_5  and  C5_6 
REMARK    3  A    between atoms: N1_8  and  N2_10 
REMARK       I    between atoms: N2_10  and  C7_11 
REMARK       I    between atoms: C7_11  and  N3_13 
REMARK    4  A    between atoms: N3_13  and  N4_15 
REMARK    5  A    between atoms: C20_28  and  O3_29 
REMARK    6  A    between atoms: C22_31  and  O4_32 
ROOT
HETATM    1  N2  UNL     1      22.597  -8.094 -44.835  1.00  0.00    -0.264 NA
HETATM    2  C7  UNL     1      21.449  -7.376 -44.931  1.00  0.00     0.430 C 
HETATM    3  O2  UNL     1      21.415  -6.153 -45.342  1.00  0.00    -0.227 OA
HETATM    4  N3  UNL     1      20.216  -7.994 -44.555  1.00  0.00    -0.240 N 
ATOM      5  H3  UNL     1      20.288  -8.963 -44.245  1.00  0.00     0.192 HD
ENDROOT
BRANCH   1   6
HETATM    6  N1  UNL     1      23.686  -8.773 -44.744  1.00  0.00    -0.234 N 
HETATM    7  C5  UNL     1      24.508  -9.117 -43.859  1.00  0.00     0.045 C 
HETATM    8  C6  UNL     1      24.335  -8.715 -42.462  1.00  0.00     0.071 C 
ATOM      9  H1  UNL     1      23.963  -9.136 -45.656  1.00  0.00     0.201 HD
BRANCH   7  10
HETATM   10  C4  UNL     1      25.657  -9.929 -44.249  1.00  0.00    -0.006 A 
HETATM   11  C3  UNL     1      26.637 -10.280 -43.345  1.00  0.00     0.053 A 
HETATM   12  C2  UNL     1      27.734 -11.057 -43.670  1.00  0.00     0.105 A 
HETATM   13  C22 UNL     1      27.842 -11.496 -44.969  1.00  0.00     0.135 A 
HETATM   14  C20 UNL     1      26.867 -11.161 -45.918  1.00  0.00     0.105 A 
HETATM   15  C19 UNL     1      25.790 -10.384 -45.548  1.00  0.00     0.053 A 
BRANCH  12  16
HETATM   16  O1  UNL     1      28.727 -11.419 -42.778  1.00  0.00    -0.353 OA
HETATM   17  C1  UNL     1      29.650 -10.423 -42.375  1.00  0.00     0.210 C 
ENDBRANCH  12  16
BRANCH  13  18
HETATM   18  O4  UNL     1      28.925 -12.273 -45.333  1.00  0.00    -0.351 OA
HETATM   19  C23 UNL     1      30.096 -11.660 -45.872  1.00  0.00     0.210 C 
ENDBRANCH  13  18
BRANCH  14  20
HETATM   20  O3  UNL     1      27.055 -11.645 -47.196  1.00  0.00    -0.353 OA
HETATM   21  C21 UNL     1      27.282 -10.727 -48.243  1.00  0.00     0.210 C 
ENDBRANCH  14  20
ENDBRANCH   7  10
ENDBRANCH   1   6
BRANCH   4  22
HETATM   22  N4  UNL     1      18.996  -7.484 -44.552  1.00  0.00    -0.318 N 
HETATM   23  C8  UNL     1      18.183  -7.788 -45.707  1.00  0.00     0.144 C 
HETATM   24  C9  UNL     1      17.694  -6.501 -46.280  1.00  0.00     0.030 C 
HETATM   25  C10 UNL     1      16.850  -5.790 -45.246  1.00  0.00    -0.041 C 
HETATM   26  C11 UNL     1      15.499  -6.428 -45.258  1.00  0.00     0.015 C 
HETATM   27  C12 UNL     1      16.656  -4.369 -45.807  1.00  0.00     0.015 C 
HETATM   28  C13 UNL     1      17.512  -5.642 -43.933  1.00  0.00     0.018 C 
HETATM   29  C14 UNL     1      16.623  -5.276 -42.806  1.00  0.00     0.007 C 
HETATM   30  C18 UNL     1      18.371  -6.836 -43.505  1.00  0.00     0.107 C 
HETATM   31  C15 UNL     1      17.327  -5.593 -41.491  1.00  0.00     0.001 C 
HETATM   32  C16 UNL     1      17.363  -7.085 -41.286  1.00  0.00     0.002 C 
HETATM   33  C17 UNL     1      17.513  -7.770 -42.627  1.00  0.00     0.027 C 
ENDBRANCH   4  22
TORSDOF 6
ENDMDL
