MODEL 1
REMARK VINA RESULT: -9.138087542      0.000      0.000
REMARK  7 active torsions:
REMARK  status: ('A' for Active; 'I' for Inactive)
REMARK    1  A    between atoms: C2_2  and  C3_3 
REMARK    2  A    between atoms: C2_2  and  C5_7 
REMARK    3  A    between atoms: C3_3  and  O2_5 
REMARK    4  A    between atoms: C9_11  and  O3_12 
REMARK    5  A    between atoms: C14_18  and  O4_19 
REMARK    6  A    between atoms: C15_21  and  O5_22 
REMARK    7  A    between atoms: O5_22  and  C16_23 
ROOT
HETATM    1  C5  UNL     1      20.198  11.605  20.639  1.00  0.00     0.024 C 
HETATM    2  C6  UNL     1      21.304  10.821  20.035  1.00  0.00     0.010 C 
HETATM    3  C7  UNL     1      22.580  11.657  20.212  1.00  0.00     0.008 C 
HETATM    4  C8  UNL     1      22.900  11.608  21.662  1.00  0.00     0.020 C 
HETATM    5  C9  UNL     1      24.095  12.513  22.025  1.00  0.00     0.127 C 
HETATM    6  C10 UNL     1      23.757  12.787  23.428  1.00  0.00     0.026 C 
HETATM    7  C11 UNL     1      24.302  13.915  24.150  1.00  0.00     0.015 C 
HETATM    8  C12 UNL     1      23.137  14.363  25.050  1.00  0.00     0.018 C 
HETATM    9  C13 UNL     1      23.462  14.314  26.486  1.00  0.00     0.041 C 
HETATM   10  C14 UNL     1      22.456  13.865  27.442  1.00  0.00     0.151 C 
HETATM   11  C15 UNL     1      21.032  13.841  27.095  1.00  0.00     0.194 C 
HETATM   12  C18 UNL     1      20.538  14.716  26.014  1.00  0.00     0.083 C 
HETATM   13  C19 UNL     1      18.998  14.619  26.063  1.00  0.00     0.048 C 
HETATM   14  C20 UNL     1      20.840  16.178  26.223  1.00  0.00     0.048 C 
HETATM   15  O7  UNL     1      20.841  14.279  24.726  1.00  0.00    -0.372 OA
HETATM   16  C21 UNL     1      21.948  13.476  24.646  1.00  0.00     0.135 C 
HETATM   17  C22 UNL     1      22.291  13.233  23.217  1.00  0.00    -0.007 C 
HETATM   18  C23 UNL     1      22.184  14.470  22.419  1.00  0.00     0.019 C 
HETATM   19  C24 UNL     1      21.777  11.994  22.578  1.00  0.00     0.004 C 
HETATM   20  C25 UNL     1      20.459  12.205  21.971  1.00  0.00     0.015 C 
ENDROOT
BRANCH   1  21
HETATM   21  C2  UNL     1      18.954  10.796  20.607  1.00  0.00     0.012 C 
HETATM   22  C1  UNL     1      18.063  10.794  21.572  1.00  0.00     0.025 C 
BRANCH  21  23
HETATM   23  C3  UNL     1      18.714   9.957  19.443  1.00  0.00     0.288 C 
HETATM   24  O1  UNL     1      18.446  10.446  18.305  1.00  0.00    -0.260 OA
BRANCH  23  25
HETATM   25  O2  UNL     1      18.771   8.562  19.544  1.00  0.00    -0.323 OA
HETATM   26  C4  UNL     1      18.395   7.711  18.487  1.00  0.00     0.213 C 
ENDBRANCH  23  25
ENDBRANCH  21  23
ENDBRANCH   1  21
BRANCH   5  27
HETATM   27  O3  UNL     1      25.291  11.818  21.847  1.00  0.00    -0.395 OA
ATOM     28  H3  UNL     1      25.579  11.451  22.674  1.00  0.00     0.210 HD
ENDBRANCH   5  27
BRANCH  10  29
HETATM   29  O4  UNL     1      22.787  12.557  27.892  1.00  0.00    -0.393 OA
ATOM     30  H4  UNL     1      23.704  12.535  28.141  1.00  0.00     0.210 HD
ENDBRANCH  10  29
BRANCH  11  31
HETATM   31  O5  UNL     1      20.260  14.187  28.252  1.00  0.00    -0.311 OA
BRANCH  31  32
HETATM   32  C16 UNL     1      19.916  13.317  29.247  1.00  0.00     0.255 C 
HETATM   33  C17 UNL     1      19.239  12.046  28.863  1.00  0.00     0.126 C 
HETATM   34  O6  UNL     1      20.177  13.612  30.429  1.00  0.00    -0.266 OA
ENDBRANCH  31  32
ENDBRANCH  11  31
TORSDOF 7
ENDMDL
MODEL 2
REMARK VINA RESULT: -8.905510412      1.551      1.946
REMARK  7 active torsions:
REMARK  status: ('A' for Active; 'I' for Inactive)
REMARK    1  A    between atoms: C2_2  and  C3_3 
REMARK    2  A    between atoms: C2_2  and  C5_7 
REMARK    3  A    between atoms: C3_3  and  O2_5 
REMARK    4  A    between atoms: C9_11  and  O3_12 
REMARK    5  A    between atoms: C14_18  and  O4_19 
REMARK    6  A    between atoms: C15_21  and  O5_22 
REMARK    7  A    between atoms: O5_22  and  C16_23 
ROOT
HETATM    1  C5  UNL     1      19.174  11.679  21.208  1.00  0.00     0.024 C 
HETATM    2  C6  UNL     1      20.125  10.777  20.512  1.00  0.00     0.010 C 
HETATM    3  C7  UNL     1      21.499  11.462  20.569  1.00  0.00     0.008 C 
HETATM    4  C8  UNL     1      21.940  11.369  21.985  1.00  0.00     0.020 C 
HETATM    5  C9  UNL     1      23.258  12.130  22.234  1.00  0.00     0.127 C 
HETATM    6  C10 UNL     1      23.080  12.435  23.660  1.00  0.00     0.026 C 
HETATM    7  C11 UNL     1      23.812  13.490  24.325  1.00  0.00     0.015 C 
HETATM    8  C12 UNL     1      22.792  14.063  25.323  1.00  0.00     0.018 C 
HETATM    9  C13 UNL     1      23.236  13.970  26.724  1.00  0.00     0.041 C 
HETATM   10  C14 UNL     1      22.276  13.634  27.769  1.00  0.00     0.151 C 
HETATM   11  C15 UNL     1      20.833  13.774  27.551  1.00  0.00     0.194 C 
HETATM   12  C18 UNL     1      20.347  14.705  26.514  1.00  0.00     0.083 C 
HETATM   13  C19 UNL     1      18.817  14.784  26.701  1.00  0.00     0.048 C 
HETATM   14  C20 UNL     1      20.831  16.122  26.687  1.00  0.00     0.048 C 
HETATM   15  O7  UNL     1      20.481  14.243  25.207  1.00  0.00    -0.372 OA
HETATM   16  C21 UNL     1      21.478  13.319  25.032  1.00  0.00     0.135 C 
HETATM   17  C22 UNL     1      21.662  13.046  23.579  1.00  0.00    -0.007 C 
HETATM   18  C23 UNL     1      21.625  14.290  22.788  1.00  0.00     0.019 C 
HETATM   19  C24 UNL     1      20.954  11.876  22.996  1.00  0.00     0.004 C 
HETATM   20  C25 UNL     1      19.620  12.239  22.508  1.00  0.00     0.015 C 
ENDROOT
BRANCH   1  21
HETATM   21  C2  UNL     1      17.849  11.017  21.292  1.00  0.00     0.012 C 
HETATM   22  C1  UNL     1      17.501   9.991  20.548  1.00  0.00     0.025 C 
BRANCH  21  23
HETATM   23  C3  UNL     1      16.883  11.537  22.247  1.00  0.00     0.288 C 
HETATM   24  O1  UNL     1      16.027  12.415  21.928  1.00  0.00    -0.260 OA
BRANCH  23  25
HETATM   25  O2  UNL     1      16.866  11.077  23.570  1.00  0.00    -0.323 OA
HETATM   26  C4  UNL     1      16.249   9.868  23.943  1.00  0.00     0.213 C 
ENDBRANCH  23  25
ENDBRANCH  21  23
ENDBRANCH   1  21
BRANCH   5  27
HETATM   27  O3  UNL     1      24.346  11.305  21.954  1.00  0.00    -0.395 OA
ATOM     28  H3  UNL     1      25.034  11.806  21.531  1.00  0.00     0.210 HD
ENDBRANCH   5  27
BRANCH  10  29
HETATM   29  O4  UNL     1      22.495  12.294  28.194  1.00  0.00    -0.393 OA
ATOM     30  H4  UNL     1      21.896  12.089  28.903  1.00  0.00     0.210 HD
ENDBRANCH  10  29
BRANCH  11  31
HETATM   31  O5  UNL     1      20.212  14.200  28.771  1.00  0.00    -0.311 OA
BRANCH  31  32
HETATM   32  C16 UNL     1      19.767  13.361  29.752  1.00  0.00     0.255 C 
HETATM   33  C17 UNL     1      18.843  12.258  29.365  1.00  0.00     0.126 C 
HETATM   34  O6  UNL     1      20.145  13.544  30.925  1.00  0.00    -0.266 OA
ENDBRANCH  31  32
ENDBRANCH  11  31
TORSDOF 7
ENDMDL
MODEL 3
REMARK VINA RESULT: -8.855218323      2.757      5.973
REMARK  7 active torsions:
REMARK  status: ('A' for Active; 'I' for Inactive)
REMARK    1  A    between atoms: C2_2  and  C3_3 
REMARK    2  A    between atoms: C2_2  and  C5_7 
REMARK    3  A    between atoms: C3_3  and  O2_5 
REMARK    4  A    between atoms: C9_11  and  O3_12 
REMARK    5  A    between atoms: C14_18  and  O4_19 
REMARK    6  A    between atoms: C15_21  and  O5_22 
REMARK    7  A    between atoms: O5_22  and  C16_23 
ROOT
HETATM    1  C5  UNL     1      25.778  11.196  19.303  1.00  0.00     0.024 C 
HETATM    2  C6  UNL     1      25.072  10.908  18.030  1.00  0.00     0.010 C 
HETATM    3  C7  UNL     1      23.736  10.252  18.409  1.00  0.00     0.008 C 
HETATM    4  C8  UNL     1      22.907  11.334  19.003  1.00  0.00     0.020 C 
HETATM    5  C9  UNL     1      21.570  10.804  19.557  1.00  0.00     0.127 C 
HETATM    6  C10 UNL     1      21.329  11.823  20.588  1.00  0.00     0.026 C 
HETATM    7  C11 UNL     1      20.431  11.603  21.700  1.00  0.00     0.015 C 
HETATM    8  C12 UNL     1      21.119  12.331  22.867  1.00  0.00     0.018 C 
HETATM    9  C13 UNL     1      20.292  13.400  23.452  1.00  0.00     0.041 C 
HETATM   10  C14 UNL     1      20.915  14.650  23.875  1.00  0.00     0.151 C 
HETATM   11  C15 UNL     1      22.359  14.740  24.112  1.00  0.00     0.194 C 
HETATM   12  C18 UNL     1      23.116  13.512  24.424  1.00  0.00     0.083 C 
HETATM   13  C19 UNL     1      24.528  13.982  24.836  1.00  0.00     0.048 C 
HETATM   14  C20 UNL     1      22.595  12.759  25.622  1.00  0.00     0.048 C 
HETATM   15  O7  UNL     1      23.365  12.686  23.331  1.00  0.00    -0.372 OA
HETATM   16  C21 UNL     1      22.466  12.817  22.306  1.00  0.00     0.135 C 
HETATM   17  C22 UNL     1      22.708  11.759  21.286  1.00  0.00    -0.007 C 
HETATM   18  C23 UNL     1      22.963  10.450  21.917  1.00  0.00     0.019 C 
HETATM   19  C24 UNL     1      23.559  12.100  20.116  1.00  0.00     0.004 C 
HETATM   20  C25 UNL     1      24.975  11.826  20.380  1.00  0.00     0.015 C 
ENDROOT
BRANCH   1  21
HETATM   21  C2  UNL     1      27.028  11.940  19.008  1.00  0.00     0.012 C 
HETATM   22  C1  UNL     1      27.051  13.138  18.467  1.00  0.00     0.025 C 
BRANCH  21  23
HETATM   23  C3  UNL     1      28.296  11.305  19.331  1.00  0.00     0.288 C 
HETATM   24  O1  UNL     1      29.399  11.922  19.245  1.00  0.00    -0.260 OA
BRANCH  23  25
HETATM   25  O2  UNL     1      28.339   9.971  19.755  1.00  0.00    -0.323 OA
HETATM   26  C4  UNL     1      28.365   9.609  21.115  1.00  0.00     0.213 C 
ENDBRANCH  23  25
ENDBRANCH  21  23
ENDBRANCH   1  21
BRANCH   5  27
HETATM   27  O3  UNL     1      20.612  10.775  18.544  1.00  0.00    -0.395 OA
ATOM     28  H3  UNL     1      19.740  10.775  18.921  1.00  0.00     0.210 HD
ENDBRANCH   5  27
BRANCH  10  29
HETATM   29  O4  UNL     1      20.591  15.674  22.942  1.00  0.00    -0.393 OA
ATOM     30  H4  UNL     1      21.233  16.371  23.008  1.00  0.00     0.210 HD
ENDBRANCH  10  29
BRANCH  11  31
HETATM   31  O5  UNL     1      22.602  15.631  25.207  1.00  0.00    -0.311 OA
BRANCH  31  32
HETATM   32  C16 UNL     1      22.856  16.967  25.083  1.00  0.00     0.255 C 
HETATM   33  C17 UNL     1      23.501  17.442  23.827  1.00  0.00     0.126 C 
HETATM   34  O6  UNL     1      22.545  17.735  26.013  1.00  0.00    -0.266 OA
ENDBRANCH  31  32
ENDBRANCH  11  31
TORSDOF 7
ENDMDL
MODEL 4
REMARK VINA RESULT: -8.755132657      2.135      4.826
REMARK  7 active torsions:
REMARK  status: ('A' for Active; 'I' for Inactive)
REMARK    1  A    between atoms: C2_2  and  C3_3 
REMARK    2  A    between atoms: C2_2  and  C5_7 
REMARK    3  A    between atoms: C3_3  and  O2_5 
REMARK    4  A    between atoms: C9_11  and  O3_12 
REMARK    5  A    between atoms: C14_18  and  O4_19 
REMARK    6  A    between atoms: C15_21  and  O5_22 
REMARK    7  A    between atoms: O5_22  and  C16_23 
ROOT
HETATM    1  C5  UNL     1      22.467  11.223  20.183  1.00  0.00     0.024 C 
HETATM    2  C6  UNL     1      21.490  11.078  19.075  1.00  0.00     0.010 C 
HETATM    3  C7  UNL     1      20.284  10.322  19.652  1.00  0.00     0.008 C 
HETATM    4  C8  UNL     1      19.603  11.279  20.562  1.00  0.00     0.020 C 
HETATM    5  C9  UNL     1      18.433  10.624  21.325  1.00  0.00     0.127 C 
HETATM    6  C10 UNL     1      18.426  11.485  22.515  1.00  0.00     0.026 C 
HETATM    7  C11 UNL     1      17.810  11.081  23.760  1.00  0.00     0.015 C 
HETATM    8  C12 UNL     1      18.740  11.675  24.831  1.00  0.00     0.018 C 
HETATM    9  C13 UNL     1      18.059  12.620  25.731  1.00  0.00     0.041 C 
HETATM   10  C14 UNL     1      18.749  13.827  26.173  1.00  0.00     0.151 C 
HETATM   11  C15 UNL     1      20.207  13.946  26.087  1.00  0.00     0.194 C 
HETATM   12  C18 UNL     1      21.029  12.720  26.046  1.00  0.00     0.083 C 
HETATM   13  C19 UNL     1      22.493  13.189  26.189  1.00  0.00     0.048 C 
HETATM   14  C20 UNL     1      20.805  11.792  27.213  1.00  0.00     0.048 C 
HETATM   15  O7  UNL     1      21.028  12.058  24.820  1.00  0.00    -0.372 OA
HETATM   16  C21 UNL     1      19.916  12.287  24.053  1.00  0.00     0.135 C 
HETATM   17  C22 UNL     1      19.928  11.386  22.867  1.00  0.00    -0.007 C 
HETATM   18  C23 UNL     1      20.335  10.016  23.235  1.00  0.00     0.019 C 
HETATM   19  C24 UNL     1      20.485  11.916  21.595  1.00  0.00     0.004 C 
HETATM   20  C25 UNL     1      21.926  11.668  21.491  1.00  0.00     0.015 C 
ENDROOT
BRANCH   1  21
HETATM   21  C2  UNL     1      23.607  12.052  19.720  1.00  0.00     0.012 C 
HETATM   22  C1  UNL     1      24.123  13.036  20.421  1.00  0.00     0.025 C 
BRANCH  21  23
HETATM   23  C3  UNL     1      24.181  11.759  18.416  1.00  0.00     0.288 C 
HETATM   24  O1  UNL     1      24.679  10.627  18.138  1.00  0.00    -0.260 OA
BRANCH  23  25
HETATM   25  O2  UNL     1      24.203  12.732  17.409  1.00  0.00    -0.323 OA
HETATM   26  C4  UNL     1      25.335  13.529  17.151  1.00  0.00     0.213 C 
ENDBRANCH  23  25
ENDBRANCH  21  23
ENDBRANCH   1  21
BRANCH   5  27
HETATM   27  O3  UNL     1      17.269  10.690  20.561  1.00  0.00    -0.395 OA
ATOM     28  H3  UNL     1      17.459  11.072  19.712  1.00  0.00     0.210 HD
ENDBRANCH   5  27
BRANCH  10  29
HETATM   29  O4  UNL     1      18.208  14.952  25.490  1.00  0.00    -0.393 OA
ATOM     30  H4  UNL     1      18.733  15.719  25.688  1.00  0.00     0.210 HD
ENDBRANCH  10  29
BRANCH  11  31
HETATM   31  O5  UNL     1      20.686  14.692  27.213  1.00  0.00    -0.311 OA
BRANCH  31  32
HETATM   32  C16 UNL     1      20.869  16.045  27.229  1.00  0.00     0.255 C 
HETATM   33  C17 UNL     1      21.246  16.715  25.953  1.00  0.00     0.126 C 
HETATM   34  O6  UNL     1      20.718  16.666  28.298  1.00  0.00    -0.266 OA
ENDBRANCH  31  32
ENDBRANCH  11  31
TORSDOF 7
ENDMDL
MODEL 5
REMARK VINA RESULT: -8.725792594      2.633      5.810
REMARK  7 active torsions:
REMARK  status: ('A' for Active; 'I' for Inactive)
REMARK    1  A    between atoms: C2_2  and  C3_3 
REMARK    2  A    between atoms: C2_2  and  C5_7 
REMARK    3  A    between atoms: C3_3  and  O2_5 
REMARK    4  A    between atoms: C9_11  and  O3_12 
REMARK    5  A    between atoms: C14_18  and  O4_19 
REMARK    6  A    between atoms: C15_21  and  O5_22 
REMARK    7  A    between atoms: O5_22  and  C16_23 
ROOT
HETATM    1  C5  UNL     1      25.672  11.139  19.327  1.00  0.00     0.024 C 
HETATM    2  C6  UNL     1      24.967  10.848  18.054  1.00  0.00     0.010 C 
HETATM    3  C7  UNL     1      23.630  10.194  18.434  1.00  0.00     0.008 C 
HETATM    4  C8  UNL     1      22.802  11.278  19.025  1.00  0.00     0.020 C 
HETATM    5  C9  UNL     1      21.463  10.750  19.579  1.00  0.00     0.127 C 
HETATM    6  C10 UNL     1      21.223  11.771  20.608  1.00  0.00     0.026 C 
HETATM    7  C11 UNL     1      20.324  11.555  21.719  1.00  0.00     0.015 C 
HETATM    8  C12 UNL     1      21.012  12.285  22.886  1.00  0.00     0.018 C 
HETATM    9  C13 UNL     1      20.185  13.356  23.468  1.00  0.00     0.041 C 
HETATM   10  C14 UNL     1      20.809  14.606  23.888  1.00  0.00     0.151 C 
HETATM   11  C15 UNL     1      22.252  14.696  24.125  1.00  0.00     0.194 C 
HETATM   12  C18 UNL     1      23.009  13.468  24.441  1.00  0.00     0.083 C 
HETATM   13  C19 UNL     1      24.421  13.937  24.853  1.00  0.00     0.048 C 
HETATM   14  C20 UNL     1      22.486  12.718  25.640  1.00  0.00     0.048 C 
HETATM   15  O7  UNL     1      23.258  12.639  23.350  1.00  0.00    -0.372 OA
HETATM   16  C21 UNL     1      22.359  12.769  22.324  1.00  0.00     0.135 C 
HETATM   17  C22 UNL     1      22.601  11.708  21.306  1.00  0.00    -0.007 C 
HETATM   18  C23 UNL     1      22.854  10.400  21.941  1.00  0.00     0.019 C 
HETATM   19  C24 UNL     1      23.453  12.046  20.137  1.00  0.00     0.004 C 
HETATM   20  C25 UNL     1      24.869  11.771  20.402  1.00  0.00     0.015 C 
ENDROOT
BRANCH   1  21
HETATM   21  C2  UNL     1      26.923  11.881  19.031  1.00  0.00     0.012 C 
HETATM   22  C1  UNL     1      28.083  11.299  18.827  1.00  0.00     0.025 C 
BRANCH  21  23
HETATM   23  C3  UNL     1      26.858  13.333  18.967  1.00  0.00     0.288 C 
HETATM   24  O1  UNL     1      27.381  14.069  19.856  1.00  0.00    -0.260 OA
BRANCH  23  25
HETATM   25  O2  UNL     1      26.207  13.974  17.906  1.00  0.00    -0.323 OA
HETATM   26  C4  UNL     1      25.009  14.693  18.078  1.00  0.00     0.213 C 
ENDBRANCH  23  25
ENDBRANCH  21  23
ENDBRANCH   1  21
BRANCH   5  27
HETATM   27  O3  UNL     1      20.506  10.720  18.565  1.00  0.00    -0.395 OA
ATOM     28  H3  UNL     1      20.803  10.162  17.855  1.00  0.00     0.210 HD
ENDBRANCH   5  27
BRANCH  10  29
HETATM   29  O4  UNL     1      20.486  15.628  22.953  1.00  0.00    -0.393 OA
ATOM     30  H4  UNL     1      20.598  16.476  23.366  1.00  0.00     0.210 HD
ENDBRANCH  10  29
BRANCH  11  31
HETATM   31  O5  UNL     1      22.495  15.589  25.219  1.00  0.00    -0.311 OA
BRANCH  31  32
HETATM   32  C16 UNL     1      22.792  16.916  25.090  1.00  0.00     0.255 C 
HETATM   33  C17 UNL     1      23.482  17.360  23.847  1.00  0.00     0.126 C 
HETATM   34  O6  UNL     1      22.480  17.700  26.006  1.00  0.00    -0.266 OA
ENDBRANCH  31  32
ENDBRANCH  11  31
TORSDOF 7
ENDMDL
