MODEL 1
REMARK VINA RESULT: -8.282643448      0.000      0.000
REMARK  5 active torsions:
REMARK  status: ('A' for Active; 'I' for Inactive)
REMARK    1  A    between atoms: C2_2  and  O2_4 
REMARK    2  A    between atoms: O2_4  and  C3_5 
REMARK    3  A    between atoms: C3_5  and  C4_6 
REMARK    4  A    between atoms: C15_17  and  O3_18 
REMARK    5  A    between atoms: C20_27  and  C22_29 
ROOT
HETATM    1  C4  UNL     1      19.537  10.815  21.918  1.00  0.00     0.009 C 
HETATM    2  C5  UNL     1      20.536   9.779  21.413  1.00  0.00     0.020 C 
HETATM    3  C6  UNL     1      20.365  11.956  22.501  1.00  0.00     0.052 C 
HETATM    4  C7  UNL     1      20.694  11.408  23.857  1.00  0.00     0.067 C 
HETATM    5  C8  UNL     1      22.221  11.220  23.880  1.00  0.00     0.039 C 
HETATM    6  C9  UNL     1      22.626  12.538  24.510  1.00  0.00     0.010 C 
HETATM    7  C10 UNL     1      21.654  12.539  25.704  1.00  0.00     0.018 C 
HETATM    8  C11 UNL     1      20.348  12.281  25.005  1.00  0.00     0.042 C 
HETATM    9  C12 UNL     1      19.393  11.694  25.999  1.00  0.00     0.030 C 
HETATM   10  C13 UNL     1      20.100  10.895  27.099  1.00  0.00     0.024 C 
HETATM   11  C14 UNL     1      18.325  10.813  25.451  1.00  0.00     0.052 C 
HETATM   12  C15 UNL     1      18.038  11.057  23.978  1.00  0.00     0.149 C 
HETATM   13  C16 UNL     1      18.966  10.241  23.185  1.00  0.00     0.161 C 
HETATM   14  O4  UNL     1      20.159  10.124  23.953  1.00  0.00    -0.371 OA
HETATM   15  C17 UNL     1      18.751  12.847  26.702  1.00  0.00     0.159 C 
HETATM   16  O5  UNL     1      17.505  12.805  26.877  1.00  0.00    -0.292 OA
HETATM   17  C18 UNL     1      19.396  14.031  27.219  1.00  0.00     0.071 C 
HETATM   18  C19 UNL     1      20.636  14.395  27.055  1.00  0.00     0.034 C 
HETATM   19 CL1  UNL     1      20.999  15.929  27.872  1.00  0.00    -0.087 Cl
HETATM   20  C20 UNL     1      21.801  13.846  26.363  1.00  0.00     0.087 C 
HETATM   21  C21 UNL     1      22.266  14.905  25.366  1.00  0.00     0.033 C 
ENDROOT
BRANCH   1  22
HETATM   22  C3  UNL     1      18.576  11.247  20.902  1.00  0.00     0.190 C 
BRANCH  22  23
HETATM   23  O2  UNL     1      17.539  10.449  20.539  1.00  0.00    -0.321 OA
BRANCH  23  24
HETATM   24  C2  UNL     1      17.297   9.481  19.658  1.00  0.00     0.254 C 
HETATM   25  C1  UNL     1      16.034   8.644  19.642  1.00  0.00     0.126 C 
HETATM   26  O1  UNL     1      18.118   9.203  18.773  1.00  0.00    -0.266 OA
ENDBRANCH  23  24
ENDBRANCH  22  23
ENDBRANCH   1  22
BRANCH  12  27
HETATM   27  O3  UNL     1      17.906  12.386  23.701  1.00  0.00    -0.393 OA
ATOM     28  H3  UNL     1      17.228  12.545  23.054  1.00  0.00     0.210 HD
ENDBRANCH  12  27
BRANCH  20  29
HETATM   29  C22 UNL     1      22.899  13.741  27.368  1.00  0.00     0.187 C 
HETATM   30  O6  UNL     1      22.797  12.986  28.370  1.00  0.00    -0.647 OA
HETATM   31  O7  UNL     1      24.087  14.459  27.259  1.00  0.00    -0.647 OA
ENDBRANCH  20  29
TORSDOF 5
ENDMDL
MODEL 2
REMARK VINA RESULT: -8.257787105      1.085      1.239
REMARK  5 active torsions:
REMARK  status: ('A' for Active; 'I' for Inactive)
REMARK    1  A    between atoms: C2_2  and  O2_4 
REMARK    2  A    between atoms: O2_4  and  C3_5 
REMARK    3  A    between atoms: C3_5  and  C4_6 
REMARK    4  A    between atoms: C15_17  and  O3_18 
REMARK    5  A    between atoms: C20_27  and  C22_29 
ROOT
HETATM    1  C4  UNL     1      20.851  10.932  21.272  1.00  0.00     0.009 C 
HETATM    2  C5  UNL     1      22.028  10.046  20.881  1.00  0.00     0.020 C 
HETATM    3  C6  UNL     1      21.436  12.083  22.086  1.00  0.00     0.052 C 
HETATM    4  C7  UNL     1      21.578  11.438  23.432  1.00  0.00     0.067 C 
HETATM    5  C8  UNL     1      23.089  11.389  23.722  1.00  0.00     0.039 C 
HETATM    6  C9  UNL     1      23.233  12.672  24.517  1.00  0.00     0.010 C 
HETATM    7  C10 UNL     1      22.072  12.468  25.507  1.00  0.00     0.018 C 
HETATM    8  C11 UNL     1      20.945  12.160  24.562  1.00  0.00     0.042 C 
HETATM    9  C12 UNL     1      19.898  11.396  25.313  1.00  0.00     0.030 C 
HETATM   10  C13 UNL     1      20.483  10.562  26.458  1.00  0.00     0.024 C 
HETATM   11  C14 UNL     1      19.043  10.479  24.509  1.00  0.00     0.052 C 
HETATM   12  C15 UNL     1      18.995  10.836  23.033  1.00  0.00     0.149 C 
HETATM   13  C16 UNL     1      20.131  10.188  22.363  1.00  0.00     0.161 C 
HETATM   14  O4  UNL     1      21.176  10.107  23.327  1.00  0.00    -0.371 OA
HETATM   15  C17 UNL     1      19.022  12.412  25.974  1.00  0.00     0.159 C 
HETATM   16  O5  UNL     1      17.777  12.240  25.912  1.00  0.00    -0.292 OA
HETATM   17  C18 UNL     1      19.436  13.594  26.693  1.00  0.00     0.071 C 
HETATM   18  C19 UNL     1      20.640  14.084  26.789  1.00  0.00     0.034 C 
HETATM   19 CL1  UNL     1      20.687  15.559  27.777  1.00  0.00    -0.087 Cl
HETATM   20  C20 UNL     1      21.959  13.713  26.283  1.00  0.00     0.087 C 
HETATM   21  C21 UNL     1      22.477  14.901  25.476  1.00  0.00     0.033 C 
ENDROOT
BRANCH   1  22
HETATM   22  C3  UNL     1      20.042  11.371  20.133  1.00  0.00     0.190 C 
BRANCH  22  23
HETATM   23  O2  UNL     1      19.647  10.490  19.179  1.00  0.00    -0.321 OA
BRANCH  23  24
HETATM   24  C2  UNL     1      18.846   9.431  19.081  1.00  0.00     0.254 C 
HETATM   25  C1  UNL     1      19.335   7.998  19.039  1.00  0.00     0.126 C 
HETATM   26  O1  UNL     1      17.616   9.565  19.015  1.00  0.00    -0.266 OA
ENDBRANCH  23  24
ENDBRANCH  22  23
ENDBRANCH   1  22
BRANCH  12  27
HETATM   27  O3  UNL     1      18.773  12.168  22.841  1.00  0.00    -0.393 OA
ATOM     28  H3  UNL     1      19.468  12.573  22.336  1.00  0.00     0.210 HD
ENDBRANCH  12  27
BRANCH  20  29
HETATM   29  C22 UNL     1      22.869  13.612  27.462  1.00  0.00     0.187 C 
HETATM   30  O6  UNL     1      22.631  12.812  28.403  1.00  0.00    -0.647 OA
HETATM   31  O7  UNL     1      24.021  14.385  27.590  1.00  0.00    -0.647 OA
ENDBRANCH  20  29
TORSDOF 5
ENDMDL
MODEL 3
REMARK VINA RESULT: -8.107349480      2.627      4.730
REMARK  5 active torsions:
REMARK  status: ('A' for Active; 'I' for Inactive)
REMARK    1  A    between atoms: C2_2  and  O2_4 
REMARK    2  A    between atoms: O2_4  and  C3_5 
REMARK    3  A    between atoms: C3_5  and  C4_6 
REMARK    4  A    between atoms: C15_17  and  O3_18 
REMARK    5  A    between atoms: C20_27  and  C22_29 
ROOT
HETATM    1  C4  UNL     1      21.842  10.910  23.365  1.00  0.00     0.009 C 
HETATM    2  C5  UNL     1      20.786  10.988  22.268  1.00  0.00     0.020 C 
HETATM    3  C6  UNL     1      21.082  10.713  24.674  1.00  0.00     0.052 C 
HETATM    4  C7  UNL     1      20.669  12.121  24.979  1.00  0.00     0.067 C 
HETATM    5  C8  UNL     1      19.131  12.138  24.903  1.00  0.00     0.039 C 
HETATM    6  C9  UNL     1      18.806  11.912  26.366  1.00  0.00     0.010 C 
HETATM    7  C10 UNL     1      19.735  12.974  26.982  1.00  0.00     0.018 C 
HETATM    8  C11 UNL     1      21.039  12.623  26.324  1.00  0.00     0.042 C 
HETATM    9  C12 UNL     1      21.915  13.839  26.342  1.00  0.00     0.030 C 
HETATM   10  C13 UNL     1      21.113  15.145  26.314  1.00  0.00     0.024 C 
HETATM   11  C14 UNL     1      22.932  13.939  25.259  1.00  0.00     0.052 C 
HETATM   12  C15 UNL     1      23.285  12.598  24.637  1.00  0.00     0.149 C 
HETATM   13  C16 UNL     1      22.326  12.321  23.561  1.00  0.00     0.161 C 
HETATM   14  O4  UNL     1      21.102  12.942  23.939  1.00  0.00    -0.371 OA
HETATM   15  C17 UNL     1      22.617  13.838  27.662  1.00  0.00     0.159 C 
HETATM   16  O5  UNL     1      23.849  14.093  27.669  1.00  0.00    -0.292 OA
HETATM   17  C18 UNL     1      22.046  13.575  28.962  1.00  0.00     0.071 C 
HETATM   18  C19 UNL     1      20.842  13.153  29.229  1.00  0.00     0.034 C 
HETATM   19 CL1  UNL     1      20.567  12.967  30.973  1.00  0.00    -0.087 Cl
HETATM   20  C20 UNL     1      19.664  12.796  28.441  1.00  0.00     0.087 C 
HETATM   21  C21 UNL     1      19.312  11.353  28.794  1.00  0.00     0.033 C 
ENDROOT
BRANCH   1  22
HETATM   22  C3  UNL     1      22.867   9.893  23.122  1.00  0.00     0.190 C 
BRANCH  22  23
HETATM   23  O2  UNL     1      23.384   9.707  21.881  1.00  0.00    -0.321 OA
BRANCH  23  24
HETATM   24  C2  UNL     1      24.070  10.406  20.980  1.00  0.00     0.254 C 
HETATM   25  C1  UNL     1      23.443  11.125  19.804  1.00  0.00     0.126 C 
HETATM   26  O1  UNL     1      25.302  10.511  21.058  1.00  0.00    -0.266 OA
ENDBRANCH  23  24
ENDBRANCH  22  23
ENDBRANCH   1  22
BRANCH  12  27
HETATM   27  O3  UNL     1      23.525  11.648  25.585  1.00  0.00    -0.393 OA
ATOM     28  H3  UNL     1      24.174  11.017  25.295  1.00  0.00     0.210 HD
ENDBRANCH  12  27
BRANCH  20  29
HETATM   29  C22 UNL     1      18.527  13.616  28.956  1.00  0.00     0.187 C 
HETATM   30  O6  UNL     1      18.532  14.870  28.862  1.00  0.00    -0.647 OA
HETATM   31  O7  UNL     1      17.409  13.050  29.563  1.00  0.00    -0.647 OA
ENDBRANCH  20  29
TORSDOF 5
ENDMDL
MODEL 4
REMARK VINA RESULT: -7.999103797      7.640      9.722
REMARK  5 active torsions:
REMARK  status: ('A' for Active; 'I' for Inactive)
REMARK    1  A    between atoms: C2_2  and  O2_4 
REMARK    2  A    between atoms: O2_4  and  C3_5 
REMARK    3  A    between atoms: C3_5  and  C4_6 
REMARK    4  A    between atoms: C15_17  and  O3_18 
REMARK    5  A    between atoms: C20_27  and  C22_29 
ROOT
HETATM    1  C4  UNL     1      25.243  10.772  19.350  1.00  0.00     0.009 C 
HETATM    2  C5  UNL     1      24.620  10.670  17.961  1.00  0.00     0.020 C 
HETATM    3  C6  UNL     1      25.541  12.252  19.575  1.00  0.00     0.052 C 
HETATM    4  C7  UNL     1      26.833  12.401  18.831  1.00  0.00     0.067 C 
HETATM    5  C8  UNL     1      26.542  13.356  17.660  1.00  0.00     0.039 C 
HETATM    6  C9  UNL     1      26.961  14.667  18.296  1.00  0.00     0.010 C 
HETATM    7  C10 UNL     1      28.333  14.235  18.847  1.00  0.00     0.018 C 
HETATM    8  C11 UNL     1      27.955  12.991  19.601  1.00  0.00     0.042 C 
HETATM    9  C12 UNL     1      29.175  12.130  19.729  1.00  0.00     0.030 C 
HETATM   10  C13 UNL     1      30.157  12.323  18.568  1.00  0.00     0.024 C 
HETATM   11  C14 UNL     1      28.942  10.665  19.853  1.00  0.00     0.052 C 
HETATM   12  C15 UNL     1      27.552  10.315  20.356  1.00  0.00     0.149 C 
HETATM   13  C16 UNL     1      26.646  10.250  19.202  1.00  0.00     0.161 C 
HETATM   14  O4  UNL     1      27.145  11.176  18.242  1.00  0.00    -0.371 OA
HETATM   15  C17 UNL     1      29.905  12.606  20.944  1.00  0.00     0.159 C 
HETATM   16  O5  UNL     1      30.347  11.736  21.738  1.00  0.00    -0.292 OA
HETATM   17  C18 UNL     1      30.174  13.972  21.330  1.00  0.00     0.071 C 
HETATM   18  C19 UNL     1      29.718  15.058  20.773  1.00  0.00     0.034 C 
HETATM   19 CL1  UNL     1      30.310  16.525  21.580  1.00  0.00    -0.087 Cl
HETATM   20  C20 UNL     1      28.838  15.362  19.647  1.00  0.00     0.087 C 
HETATM   21  C21 UNL     1      27.682  16.195  20.196  1.00  0.00     0.033 C 
ENDROOT
BRANCH   1  22
HETATM   22  C3  UNL     1      24.427  10.171  20.406  1.00  0.00     0.190 C 
BRANCH  22  23
HETATM   23  O2  UNL     1      24.271  10.790  21.603  1.00  0.00    -0.321 OA
BRANCH  23  24
HETATM   24  C2  UNL     1      23.290  11.041  22.468  1.00  0.00     0.254 C 
HETATM   25  C1  UNL     1      22.790  10.048  23.496  1.00  0.00     0.126 C 
HETATM   26  O1  UNL     1      22.714  12.137  22.479  1.00  0.00    -0.266 OA
ENDBRANCH  23  24
ENDBRANCH  22  23
ENDBRANCH   1  22
BRANCH  12  27
HETATM   27  O3  UNL     1      27.203  11.062  21.443  1.00  0.00    -0.393 OA
ATOM     28  H3  UNL     1      27.862  11.715  21.648  1.00  0.00     0.210 HD
ENDBRANCH  12  27
BRANCH  20  29
HETATM   29  C22 UNL     1      29.587  16.279  18.739  1.00  0.00     0.187 C 
HETATM   30  O6  UNL     1      30.639  15.906  18.158  1.00  0.00    -0.647 OA
HETATM   31  O7  UNL     1      29.174  17.584  18.483  1.00  0.00    -0.647 OA
ENDBRANCH  20  29
TORSDOF 5
ENDMDL
MODEL 5
REMARK VINA RESULT: -7.850517924      2.734      7.338
REMARK  5 active torsions:
REMARK  status: ('A' for Active; 'I' for Inactive)
REMARK    1  A    between atoms: C2_2  and  O2_4 
REMARK    2  A    between atoms: O2_4  and  C3_5 
REMARK    3  A    between atoms: C3_5  and  C4_6 
REMARK    4  A    between atoms: C15_17  and  O3_18 
REMARK    5  A    between atoms: C20_27  and  C22_29 
ROOT
HETATM    1  C4  UNL     1      21.281  11.686  25.639  1.00  0.00     0.009 C 
HETATM    2  C5  UNL     1      20.722  10.590  26.541  1.00  0.00     0.020 C 
HETATM    3  C6  UNL     1      20.231  11.926  24.559  1.00  0.00     0.052 C 
HETATM    4  C7  UNL     1      20.529  10.803  23.613  1.00  0.00     0.067 C 
HETATM    5  C8  UNL     1      19.289   9.891  23.632  1.00  0.00     0.039 C 
HETATM    6  C9  UNL     1      18.543  10.461  22.441  1.00  0.00     0.010 C 
HETATM    7  C10 UNL     1      19.697  10.470  21.421  1.00  0.00     0.018 C 
HETATM    8  C11 UNL     1      20.758  11.193  22.201  1.00  0.00     0.042 C 
HETATM    9  C12 UNL     1      22.094  10.820  21.634  1.00  0.00     0.030 C 
HETATM   10  C13 UNL     1      22.103   9.415  21.020  1.00  0.00     0.024 C 
HETATM   11  C14 UNL     1      23.251  10.885  22.568  1.00  0.00     0.052 C 
HETATM   12  C15 UNL     1      23.015  11.799  23.760  1.00  0.00     0.149 C 
HETATM   13  C16 UNL     1      22.349  11.022  24.813  1.00  0.00     0.161 C 
HETATM   14  O4  UNL     1      21.562  10.036  24.153  1.00  0.00    -0.371 OA
HETATM   15  C17 UNL     1      22.345  11.750  20.491  1.00  0.00     0.159 C 
HETATM   16  O5  UNL     1      23.490  12.265  20.398  1.00  0.00    -0.292 OA
HETATM   17  C18 UNL     1      21.418  12.141  19.455  1.00  0.00     0.071 C 
HETATM   18  C19 UNL     1      20.145  11.873  19.387  1.00  0.00     0.034 C 
HETATM   19 CL1  UNL     1      19.392  12.556  17.931  1.00  0.00    -0.087 Cl
HETATM   20  C20 UNL     1      19.187  11.146  20.218  1.00  0.00     0.087 C 
HETATM   21  C21 UNL     1      18.076  12.128  20.580  1.00  0.00     0.033 C 
ENDROOT
BRANCH   1  22
HETATM   22  C3  UNL     1      21.670  12.899  26.362  1.00  0.00     0.190 C 
BRANCH  22  23
HETATM   23  O2  UNL     1      22.971  13.277  26.438  1.00  0.00    -0.321 OA
BRANCH  23  24
HETATM   24  C2  UNL     1      23.672  14.408  26.483  1.00  0.00     0.254 C 
HETATM   25  C1  UNL     1      23.321  15.657  25.701  1.00  0.00     0.126 C 
HETATM   26  O1  UNL     1      24.683  14.504  27.192  1.00  0.00    -0.266 OA
ENDBRANCH  23  24
ENDBRANCH  22  23
ENDBRANCH   1  22
BRANCH  12  27
HETATM   27  O3  UNL     1      22.495  13.001  23.380  1.00  0.00    -0.393 OA
ATOM     28  H3  UNL     1      21.549  12.967  23.302  1.00  0.00     0.210 HD
ENDBRANCH  12  27
BRANCH  20  29
HETATM   29  C22 UNL     1      18.539  10.122  19.347  1.00  0.00     0.187 C 
HETATM   30  O6  UNL     1      17.287  10.038  19.259  1.00  0.00    -0.647 OA
HETATM   31  O7  UNL     1      19.269   9.211  18.588  1.00  0.00    -0.647 OA
ENDBRANCH  20  29
TORSDOF 5
ENDMDL
