MODEL 1
REMARK VINA RESULT: -5.783594075      0.000      0.000
REMARK  3 active torsions:
REMARK  status: ('A' for Active; 'I' for Inactive)
REMARK    1  A    between atoms: C2_2  and  C3_3 
REMARK    2  A    between atoms: C5_5  and  N1_6 
REMARK    3  A    between atoms: N1_6  and  C6_8 
ROOT
HETATM    1  N1  UNL     1      -7.886 -32.056  18.219  1.00  0.00    -0.411 N 
ATOM      2  H1  UNL     1      -7.209 -31.572  18.808  1.00  0.00     0.154 HD
ENDROOT
BRANCH   1   3
HETATM    3  C5  UNL     1      -7.804 -32.025  16.809  1.00  0.00     0.085 A 
HETATM    4  C3  UNL     1      -8.888 -31.430  16.002  1.00  0.00     0.032 A 
HETATM    5  C4  UNL     1      -8.653 -32.939  16.010  1.00  0.00     0.036 A 
BRANCH   4   6
HETATM    6  C2  UNL     1      -8.643 -30.811  14.681  1.00  0.00    -0.030 C 
HETATM    7  C1  UNL     1      -8.222 -29.583  14.507  1.00  0.00     0.007 C 
ENDBRANCH   4   6
ENDBRANCH   1   3
BRANCH   1   8
HETATM    8  C6  UNL     1      -8.954 -32.793  18.767  1.00  0.00     0.097 A 
HETATM    9  C7  UNL     1      -9.201 -32.769  20.244  1.00  0.00     0.048 A 
HETATM   10  C8  UNL     1     -10.171 -32.059  19.333  1.00  0.00     0.106 A 
HETATM   11 CL1  UNL     1     -10.188 -30.286  19.345  1.00  0.00    -0.123 Cl
ENDBRANCH   1   8
TORSDOF 3
ENDMDL
MODEL 2
REMARK VINA RESULT: -5.571284607      2.284      4.687
REMARK  3 active torsions:
REMARK  status: ('A' for Active; 'I' for Inactive)
REMARK    1  A    between atoms: C2_2  and  C3_3 
REMARK    2  A    between atoms: C5_5  and  N1_6 
REMARK    3  A    between atoms: N1_6  and  C6_8 
ROOT
HETATM    1  N1  UNL     1      -9.569 -31.401  15.817  1.00  0.00    -0.411 N 
ATOM      2  H1  UNL     1     -10.284 -31.414  15.089  1.00  0.00     0.154 HD
ENDROOT
BRANCH   1   3
HETATM    3  C5  UNL     1      -9.894 -31.185  17.175  1.00  0.00     0.085 A 
HETATM    4  C3  UNL     1      -9.942 -32.313  18.128  1.00  0.00     0.032 A 
HETATM    5  C4  UNL     1     -11.221 -31.607  17.681  1.00  0.00     0.036 A 
BRANCH   4   6
HETATM    6  C2  UNL     1      -9.659 -32.143  19.570  1.00  0.00    -0.030 C 
HETATM    7  C1  UNL     1      -9.161 -33.079  20.340  1.00  0.00     0.007 C 
ENDBRANCH   4   6
ENDBRANCH   1   3
BRANCH   1   8
HETATM    8  C6  UNL     1      -8.206 -31.596  15.523  1.00  0.00     0.097 A 
HETATM    9  C7  UNL     1      -7.762 -31.759  14.102  1.00  0.00     0.048 A 
HETATM   10  C8  UNL     1      -7.411 -30.486  14.833  1.00  0.00     0.106 A 
HETATM   11 CL1  UNL     1      -8.240 -28.992  14.357  1.00  0.00    -0.123 Cl
ENDBRANCH   1   8
TORSDOF 3
ENDMDL
MODEL 3
REMARK VINA RESULT: -5.484413991      1.624      1.880
REMARK  3 active torsions:
REMARK  status: ('A' for Active; 'I' for Inactive)
REMARK    1  A    between atoms: C2_2  and  C3_3 
REMARK    2  A    between atoms: C5_5  and  N1_6 
REMARK    3  A    between atoms: N1_6  and  C6_8 
ROOT
HETATM    1  N1  UNL     1     -10.051 -32.665  17.793  1.00  0.00    -0.411 N 
ATOM      2  H1  UNL     1     -10.926 -32.736  18.312  1.00  0.00     0.154 HD
ENDROOT
BRANCH   1   3
HETATM    3  C5  UNL     1     -10.017 -32.245  16.444  1.00  0.00     0.085 A 
HETATM    4  C3  UNL     1      -9.461 -30.926  16.077  1.00  0.00     0.032 A 
HETATM    5  C4  UNL     1     -10.961 -31.201  15.984  1.00  0.00     0.036 A 
BRANCH   4   6
HETATM    6  C2  UNL     1      -8.835 -30.670  14.762  1.00  0.00    -0.030 C 
HETATM    7  C1  UNL     1      -8.135 -29.600  14.474  1.00  0.00     0.007 C 
ENDBRANCH   4   6
ENDBRANCH   1   3
BRANCH   1   8
HETATM    8  C6  UNL     1      -8.810 -32.979  18.381  1.00  0.00     0.097 A 
HETATM    9  C7  UNL     1      -8.097 -31.960  19.216  1.00  0.00     0.048 A 
HETATM   10  C8  UNL     1      -8.713 -33.157  19.898  1.00  0.00     0.106 A 
HETATM   11 CL1  UNL     1     -10.156 -32.901  20.897  1.00  0.00    -0.123 Cl
ENDBRANCH   1   8
TORSDOF 3
ENDMDL
MODEL 4
REMARK VINA RESULT: -5.460294787      1.507      1.692
REMARK  3 active torsions:
REMARK  status: ('A' for Active; 'I' for Inactive)
REMARK    1  A    between atoms: C2_2  and  C3_3 
REMARK    2  A    between atoms: C5_5  and  N1_6 
REMARK    3  A    between atoms: N1_6  and  C6_8 
ROOT
HETATM    1  N1  UNL     1      -8.987 -33.216  17.425  1.00  0.00    -0.411 N 
ATOM      2  H1  UNL     1      -8.386 -34.040  17.410  1.00  0.00     0.154 HD
ENDROOT
BRANCH   1   3
HETATM    3  C5  UNL     1      -9.387 -32.565  16.236  1.00  0.00     0.085 A 
HETATM    4  C3  UNL     1      -9.160 -31.117  16.056  1.00  0.00     0.032 A 
HETATM    5  C4  UNL     1     -10.568 -31.673  16.259  1.00  0.00     0.036 A 
BRANCH   4   6
HETATM    6  C2  UNL     1      -8.963 -30.507  14.722  1.00  0.00    -0.030 C 
HETATM    7  C1  UNL     1      -8.193 -29.473  14.490  1.00  0.00     0.007 C 
ENDBRANCH   4   6
ENDBRANCH   1   3
BRANCH   1   8
HETATM    8  C6  UNL     1      -9.463 -32.666  18.630  1.00  0.00     0.097 A 
HETATM    9  C7  UNL     1      -8.983 -33.206  19.942  1.00  0.00     0.048 A 
HETATM   10  C8  UNL     1      -8.526 -31.836  19.508  1.00  0.00     0.106 A 
HETATM   11 CL1  UNL     1      -6.832 -31.632  19.022  1.00  0.00    -0.123 Cl
ENDBRANCH   1   8
TORSDOF 3
ENDMDL
MODEL 5
REMARK VINA RESULT: -5.388919634      1.304      1.475
REMARK  3 active torsions:
REMARK  status: ('A' for Active; 'I' for Inactive)
REMARK    1  A    between atoms: C2_2  and  C3_3 
REMARK    2  A    between atoms: C5_5  and  N1_6 
REMARK    3  A    between atoms: N1_6  and  C6_8 
ROOT
HETATM    1  N1  UNL     1      -8.600 -32.172  17.926  1.00  0.00    -0.411 N 
ATOM      2  H1  UNL     1      -8.386 -33.010  18.468  1.00  0.00     0.154 HD
ENDROOT
BRANCH   1   3
HETATM    3  C5  UNL     1      -7.971 -31.904  16.690  1.00  0.00     0.085 A 
HETATM    4  C3  UNL     1      -8.763 -31.491  15.513  1.00  0.00     0.032 A 
HETATM    5  C4  UNL     1      -8.113 -32.871  15.577  1.00  0.00     0.036 A 
BRANCH   4   6
HETATM    6  C2  UNL     1      -8.204 -30.634  14.445  1.00  0.00    -0.030 C 
HETATM    7  C1  UNL     1      -8.190 -29.325  14.479  1.00  0.00     0.007 C 
ENDBRANCH   4   6
ENDBRANCH   1   3
BRANCH   1   8
HETATM    8  C6  UNL     1      -9.538 -31.220  18.370  1.00  0.00     0.097 A 
HETATM    9  C7  UNL     1     -10.993 -31.571  18.424  1.00  0.00     0.048 A 
HETATM   10  C8  UNL     1     -10.235 -31.413  19.718  1.00  0.00     0.106 A 
HETATM   11 CL1  UNL     1      -9.894 -32.868  20.673  1.00  0.00    -0.123 Cl
ENDBRANCH   1   8
TORSDOF 3
ENDMDL
