MODEL 1
REMARK VINA RESULT: -6.300114027      0.000      0.000
REMARK  3 active torsions:
REMARK  status: ('A' for Active; 'I' for Inactive)
REMARK    1  A    between atoms: C2_3  and  C3_4 
REMARK    2  A    between atoms: C3_4  and  C4_5 
REMARK    3  A    between atoms: C4_5  and  C5_6 
ROOT
HETATM    1  N1  UNL     1      -8.403 -31.359  12.947  1.00  0.00    -0.197 NA
HETATM    2  C1  UNL     1      -8.420 -31.141  14.085  1.00  0.00     0.059 C 
HETATM    3  C2  UNL     1      -8.434 -30.843  15.516  1.00  0.00     0.124 C 
ENDROOT
BRANCH   3   4
HETATM    4  C3  UNL     1      -7.828 -32.031  16.264  1.00  0.00     0.019 C 
BRANCH   4   5
HETATM    5  C4  UNL     1      -8.912 -33.001  16.686  1.00  0.00     0.044 C 
BRANCH   5   6
HETATM    6  C5  UNL     1      -9.305 -32.714  18.087  1.00  0.00    -0.001 A 
HETATM    7  C6  UNL     1      -8.717 -33.272  19.196  1.00  0.00     0.029 A 
HETATM    8  C7  UNL     1      -9.382 -32.732  20.294  1.00  0.00     0.091 A 
HETATM    9  N2  UNL     1     -10.330 -31.888  19.892  1.00  0.00    -0.343 N 
HETATM   10  C8  UNL     1     -10.278 -31.880  18.530  1.00  0.00     0.194 A 
ATOM     11  H2  UNL     1     -10.967 -31.355  20.483  1.00  0.00     0.167 HD
HETATM   12  F1  UNL     1     -11.090 -31.138  17.741  1.00  0.00    -0.186 F 
ENDBRANCH   5   6
ENDBRANCH   4   5
ENDBRANCH   3   4
TORSDOF 3
ENDMDL
MODEL 2
REMARK VINA RESULT: -6.137655569      1.422      1.811
REMARK  3 active torsions:
REMARK  status: ('A' for Active; 'I' for Inactive)
REMARK    1  A    between atoms: C2_3  and  C3_4 
REMARK    2  A    between atoms: C3_4  and  C4_5 
REMARK    3  A    between atoms: C4_5  and  C5_6 
ROOT
HETATM    1  N1  UNL     1      -8.551 -31.122  13.249  1.00  0.00    -0.197 NA
HETATM    2  C1  UNL     1      -8.230 -31.347  14.340  1.00  0.00     0.059 C 
HETATM    3  C2  UNL     1      -7.802 -31.621  15.711  1.00  0.00     0.124 C 
ENDROOT
BRANCH   3   4
HETATM    4  C3  UNL     1      -8.306 -33.010  16.106  1.00  0.00     0.019 C 
BRANCH   4   5
HETATM    5  C4  UNL     1      -9.758 -32.948  16.528  1.00  0.00     0.044 C 
BRANCH   5   6
HETATM    6  C5  UNL     1      -9.856 -32.260  17.838  1.00  0.00    -0.001 A 
HETATM    7  C6  UNL     1     -10.466 -31.046  18.043  1.00  0.00     0.029 A 
HETATM    8  C7  UNL     1     -10.333 -30.775  19.402  1.00  0.00     0.091 A 
HETATM    9  N2  UNL     1      -9.677 -31.762  20.009  1.00  0.00    -0.343 N 
HETATM   10  C8  UNL     1      -9.387 -32.675  19.040  1.00  0.00     0.194 A 
ATOM     11  H2  UNL     1      -9.441 -31.823  20.999  1.00  0.00     0.167 HD
HETATM   12  F1  UNL     1      -8.720 -33.833  19.261  1.00  0.00    -0.186 F 
ENDBRANCH   5   6
ENDBRANCH   4   5
ENDBRANCH   3   4
TORSDOF 3
ENDMDL
MODEL 3
REMARK VINA RESULT: -6.134180402      1.767      4.767
REMARK  3 active torsions:
REMARK  status: ('A' for Active; 'I' for Inactive)
REMARK    1  A    between atoms: C2_3  and  C3_4 
REMARK    2  A    between atoms: C3_4  and  C4_5 
REMARK    3  A    between atoms: C4_5  and  C5_6 
ROOT
HETATM    1  N1  UNL     1      -8.582 -33.347  19.865  1.00  0.00    -0.197 NA
HETATM    2  C1  UNL     1      -9.403 -32.535  19.767  1.00  0.00     0.059 C 
HETATM    3  C2  UNL     1     -10.456 -31.527  19.653  1.00  0.00     0.124 C 
ENDROOT
BRANCH   3   4
HETATM    4  C3  UNL     1     -10.292 -30.806  18.315  1.00  0.00     0.019 C 
BRANCH   4   5
HETATM    5  C4  UNL     1     -10.688 -31.714  17.170  1.00  0.00     0.044 C 
BRANCH   5   6
HETATM    6  C5  UNL     1      -9.649 -31.650  16.114  1.00  0.00    -0.001 A 
HETATM    7  C6  UNL     1      -9.557 -30.662  15.164  1.00  0.00     0.029 A 
HETATM    8  C7  UNL     1      -8.451 -30.983  14.382  1.00  0.00     0.091 A 
HETATM    9  N2  UNL     1      -7.887 -32.107  14.820  1.00  0.00    -0.343 N 
HETATM   10  C8  UNL     1      -8.629 -32.514  15.887  1.00  0.00     0.194 A 
ATOM     11  H2  UNL     1      -7.064 -32.571  14.433  1.00  0.00     0.167 HD
HETATM   12  F1  UNL     1      -8.373 -33.628  16.613  1.00  0.00    -0.186 F 
ENDBRANCH   5   6
ENDBRANCH   4   5
ENDBRANCH   3   4
TORSDOF 3
ENDMDL
MODEL 4
REMARK VINA RESULT: -6.125026794      1.060      1.125
REMARK  3 active torsions:
REMARK  status: ('A' for Active; 'I' for Inactive)
REMARK    1  A    between atoms: C2_3  and  C3_4 
REMARK    2  A    between atoms: C3_4  and  C4_5 
REMARK    3  A    between atoms: C4_5  and  C5_6 
ROOT
HETATM    1  N1  UNL     1      -8.464 -31.418  12.859  1.00  0.00    -0.197 NA
HETATM    2  C1  UNL     1      -8.187 -31.237  13.969  1.00  0.00     0.059 C 
HETATM    3  C2  UNL     1      -7.823 -30.989  15.363  1.00  0.00     0.124 C 
ENDROOT
BRANCH   3   4
HETATM    4  C3  UNL     1      -7.598 -32.336  16.051  1.00  0.00     0.019 C 
BRANCH   4   5
HETATM    5  C4  UNL     1      -8.917 -33.044  16.278  1.00  0.00     0.044 C 
BRANCH   5   6
HETATM    6  C5  UNL     1      -9.658 -32.359  17.364  1.00  0.00    -0.001 A 
HETATM    7  C6  UNL     1      -9.268 -32.330  18.681  1.00  0.00     0.029 A 
HETATM    8  C7  UNL     1     -10.236 -31.587  19.351  1.00  0.00     0.091 A 
HETATM    9  N2  UNL     1     -11.176 -31.178  18.501  1.00  0.00    -0.343 N 
HETATM   10  C8  UNL     1     -10.814 -31.657  17.278  1.00  0.00     0.194 A 
ATOM     11  H2  UNL     1     -12.000 -30.619  18.721  1.00  0.00     0.167 HD
HETATM   12  F1  UNL     1     -11.521 -31.452  16.140  1.00  0.00    -0.186 F 
ENDBRANCH   5   6
ENDBRANCH   4   5
ENDBRANCH   3   4
TORSDOF 3
ENDMDL
MODEL 5
REMARK VINA RESULT: -6.086273925      0.974      1.056
REMARK  3 active torsions:
REMARK  status: ('A' for Active; 'I' for Inactive)
REMARK    1  A    between atoms: C2_3  and  C3_4 
REMARK    2  A    between atoms: C3_4  and  C4_5 
REMARK    3  A    between atoms: C4_5  and  C5_6 
ROOT
HETATM    1  N1  UNL     1      -7.394 -32.210  13.570  1.00  0.00    -0.197 NA
HETATM    2  C1  UNL     1      -7.924 -31.466  14.283  1.00  0.00     0.059 C 
HETATM    3  C2  UNL     1      -8.570 -30.524  15.195  1.00  0.00     0.124 C 
ENDROOT
BRANCH   3   4
HETATM    4  C3  UNL     1      -9.926 -31.101  15.605  1.00  0.00     0.019 C 
BRANCH   4   5
HETATM    5  C4  UNL     1      -9.750 -32.449  16.270  1.00  0.00     0.044 C 
BRANCH   5   6
HETATM    6  C5  UNL     1      -9.699 -32.266  17.740  1.00  0.00    -0.001 A 
HETATM    7  C6  UNL     1      -8.661 -32.669  18.545  1.00  0.00     0.029 A 
HETATM    8  C7  UNL     1      -9.017 -32.305  19.841  1.00  0.00     0.091 A 
HETATM    9  N2  UNL     1     -10.208 -31.710  19.843  1.00  0.00    -0.343 N 
HETATM   10  C8  UNL     1     -10.623 -31.688  18.546  1.00  0.00     0.194 A 
ATOM     11  H2  UNL     1     -10.708 -31.344  20.653  1.00  0.00     0.167 HD
HETATM   12  F1  UNL     1     -11.799 -31.159  18.131  1.00  0.00    -0.186 F 
ENDBRANCH   5   6
ENDBRANCH   4   5
ENDBRANCH   3   4
TORSDOF 3
ENDMDL
