MODEL 1
REMARK VINA RESULT: -6.896547853      0.000      0.000
REMARK  5 active torsions:
REMARK  status: ('A' for Active; 'I' for Inactive)
REMARK    1  A    between atoms: C3_4  and  O1_5 
REMARK    2  A    between atoms: O1_5  and  C4_6 
REMARK    3  A    between atoms: C7_10  and  C8_11 
REMARK    4  A    between atoms: C12_15  and  O3_16 
REMARK    5  A    between atoms: C17_22  and  O4_24 
ROOT
HETATM    1  C1  UNL     1      27.584  14.282  20.367  1.00  0.00     0.221 C 
HETATM    2  N1  UNL     1      26.491  13.896  20.357  1.00  0.00    -0.461 NA
HETATM    3  C2  UNL     1      25.136  13.425  20.368  1.00  0.00     0.225 C 
HETATM    4  C3  UNL     1      25.219  11.926  20.380  1.00  0.00     0.176 C 
HETATM    5  C6  UNL     1      23.971  11.198  20.707  1.00  0.00     0.037 C 
HETATM    6  C7  UNL     1      22.982  11.804  21.589  1.00  0.00     0.023 C 
HETATM    7  C11 UNL     1      21.611  11.251  21.165  1.00  0.00     0.042 C 
HETATM    8  C12 UNL     1      21.872  10.347  19.994  1.00  0.00     0.127 C 
HETATM    9  C13 UNL     1      23.140  10.965  19.431  1.00  0.00    -0.011 C 
HETATM   10  C14 UNL     1      23.765   9.985  18.513  1.00  0.00     0.018 C 
HETATM   11  C15 UNL     1      22.725  12.253  18.818  1.00  0.00     0.015 C 
HETATM   12  C16 UNL     1      23.815  13.079  18.239  1.00  0.00     0.041 C 
HETATM   13  C17 UNL     1      24.467  14.026  19.184  1.00  0.00     0.089 C 
HETATM   14  C18 UNL     1      25.444  14.831  18.305  1.00  0.00     0.049 C 
ENDROOT
BRANCH   4  15
HETATM   15  O1  UNL     1      26.395  11.416  20.932  1.00  0.00    -0.313 OA
BRANCH  15  16
HETATM   16  C4  UNL     1      27.259  10.498  20.442  1.00  0.00     0.255 C 
HETATM   17  C5  UNL     1      27.582  10.434  18.994  1.00  0.00     0.126 C 
HETATM   18  O2  UNL     1      27.756   9.719  21.293  1.00  0.00    -0.266 OA
ENDBRANCH  15  16
ENDBRANCH   4  15
BRANCH  13  19
HETATM   19  O4  UNL     1      23.485  14.974  19.561  1.00  0.00    -0.387 OA
ATOM     20  H4  UNL     1      22.848  15.114  18.871  1.00  0.00     0.210 HD
ENDBRANCH  13  19
BRANCH   6  21
HETATM   21  C8  UNL     1      23.066  11.527  23.040  1.00  0.00    -0.088 C 
HETATM   22  C9  UNL     1      23.445  12.389  23.968  1.00  0.00     0.014 C 
HETATM   23  C10 UNL     1      22.695  10.151  23.548  1.00  0.00     0.043 C 
ENDBRANCH   6  21
BRANCH   8  24
HETATM   24  O3  UNL     1      21.987   9.028  20.298  1.00  0.00    -0.395 OA
ATOM     25  H3  UNL     1      22.007   8.443  19.550  1.00  0.00     0.210 HD
ENDBRANCH   8  24
TORSDOF 5
ENDMDL
MODEL 2
REMARK VINA RESULT: -6.871326528      1.888      2.348
REMARK  5 active torsions:
REMARK  status: ('A' for Active; 'I' for Inactive)
REMARK    1  A    between atoms: C3_4  and  O1_5 
REMARK    2  A    between atoms: O1_5  and  C4_6 
REMARK    3  A    between atoms: C7_10  and  C8_11 
REMARK    4  A    between atoms: C12_15  and  O3_16 
REMARK    5  A    between atoms: C17_22  and  O4_24 
ROOT
HETATM    1  C1  UNL     1      25.798  16.637  20.420  1.00  0.00     0.221 C 
HETATM    2  N1  UNL     1      25.200  15.718  20.043  1.00  0.00    -0.461 NA
HETATM    3  C2  UNL     1      24.440  14.590  19.587  1.00  0.00     0.225 C 
HETATM    4  C3  UNL     1      24.889  13.425  20.420  1.00  0.00     0.176 C 
HETATM    5  C6  UNL     1      24.043  12.210  20.367  1.00  0.00     0.037 C 
HETATM    6  C7  UNL     1      22.611  12.328  20.128  1.00  0.00     0.023 C 
HETATM    7  C11 UNL     1      22.171  11.039  19.413  1.00  0.00     0.042 C 
HETATM    8  C12 UNL     1      23.418  10.221  19.232  1.00  0.00     0.127 C 
HETATM    9  C13 UNL     1      24.475  11.310  19.194  1.00  0.00    -0.011 C 
HETATM   10  C14 UNL     1      25.797  10.681  19.414  1.00  0.00     0.018 C 
HETATM   11  C15 UNL     1      24.295  12.002  17.892  1.00  0.00     0.015 C 
HETATM   12  C16 UNL     1      25.193  13.160  17.642  1.00  0.00     0.041 C 
HETATM   13  C17 UNL     1      24.688  14.473  18.125  1.00  0.00     0.089 C 
HETATM   14  C18 UNL     1      25.731  15.492  17.625  1.00  0.00     0.049 C 
ENDROOT
BRANCH   4  15
HETATM   15  O1  UNL     1      25.395  13.770  21.675  1.00  0.00    -0.313 OA
BRANCH  15  16
HETATM   16  C4  UNL     1      26.568  13.439  22.260  1.00  0.00     0.255 C 
HETATM   17  C5  UNL     1      27.764  13.086  21.453  1.00  0.00     0.126 C 
HETATM   18  O2  UNL     1      26.565  13.452  23.516  1.00  0.00    -0.266 OA
ENDBRANCH  15  16
ENDBRANCH   4  15
BRANCH  13  19
HETATM   19  O4  UNL     1      23.528  14.773  17.371  1.00  0.00    -0.387 OA
ATOM     20  H4  UNL     1      23.327  14.086  16.747  1.00  0.00     0.210 HD
ENDBRANCH  13  19
BRANCH   6  21
HETATM   21  C8  UNL     1      21.706  12.437  21.293  1.00  0.00    -0.088 C 
HETATM   22  C9  UNL     1      21.494  13.532  22.005  1.00  0.00     0.014 C 
HETATM   23  C10 UNL     1      20.937  11.213  21.743  1.00  0.00     0.043 C 
ENDBRANCH   6  21
BRANCH   8  24
HETATM   24  O3  UNL     1      23.630   9.276  20.185  1.00  0.00    -0.395 OA
ATOM     25  H3  UNL     1      22.844   8.910  20.572  1.00  0.00     0.210 HD
ENDBRANCH   8  24
TORSDOF 5
ENDMDL
MODEL 3
REMARK VINA RESULT: -6.821729435      2.015      4.523
REMARK  5 active torsions:
REMARK  status: ('A' for Active; 'I' for Inactive)
REMARK    1  A    between atoms: C3_4  and  O1_5 
REMARK    2  A    between atoms: O1_5  and  C4_6 
REMARK    3  A    between atoms: C7_10  and  C8_11 
REMARK    4  A    between atoms: C12_15  and  O3_16 
REMARK    5  A    between atoms: C17_22  and  O4_24 
ROOT
HETATM    1  C1  UNL     1      23.063  12.272  24.546  1.00  0.00     0.221 C 
HETATM    2  N1  UNL     1      23.262  11.904  23.465  1.00  0.00    -0.461 NA
HETATM    3  C2  UNL     1      23.530  11.437  22.136  1.00  0.00     0.225 C 
HETATM    4  C3  UNL     1      24.029  12.628  21.371  1.00  0.00     0.176 C 
HETATM    5  C6  UNL     1      24.670  12.353  20.064  1.00  0.00     0.037 C 
HETATM    6  C7  UNL     1      25.374  11.097  19.847  1.00  0.00     0.023 C 
HETATM    7  C11 UNL     1      25.261  10.777  18.347  1.00  0.00     0.042 C 
HETATM    8  C12 UNL     1      24.437  11.881  17.749  1.00  0.00     0.127 C 
HETATM    9  C13 UNL     1      23.608  12.304  18.949  1.00  0.00    -0.011 C 
HETATM   10  C14 UNL     1      23.020  13.632  18.662  1.00  0.00     0.018 C 
HETATM   11  C15 UNL     1      22.638  11.202  19.179  1.00  0.00     0.015 C 
HETATM   12  C16 UNL     1      21.739  11.362  20.352  1.00  0.00     0.041 C 
HETATM   13  C17 UNL     1      22.268  10.829  21.637  1.00  0.00     0.089 C 
HETATM   14  C18 UNL     1      21.102  11.001  22.630  1.00  0.00     0.049 C 
ENDROOT
BRANCH   4  15
HETATM   15  O1  UNL     1      24.628  13.612  22.158  1.00  0.00    -0.313 OA
BRANCH  15  16
HETATM   16  C4  UNL     1      25.921  14.001  22.230  1.00  0.00     0.255 C 
HETATM   17  C5  UNL     1      26.403  15.222  21.535  1.00  0.00     0.126 C 
HETATM   18  O2  UNL     1      26.668  13.261  22.918  1.00  0.00    -0.266 OA
ENDBRANCH  15  16
ENDBRANCH   4  15
BRANCH  13  19
HETATM   19  O4  UNL     1      22.384   9.427  21.485  1.00  0.00    -0.387 OA
ATOM     20  H4  UNL     1      22.729   9.192  20.632  1.00  0.00     0.210 HD
ENDBRANCH  13  19
BRANCH   6  21
HETATM   21  C8  UNL     1      26.825  11.042  20.133  1.00  0.00    -0.088 C 
HETATM   22  C9  UNL     1      27.424  10.157  20.912  1.00  0.00     0.014 C 
HETATM   23  C10 UNL     1      27.738  12.069  19.500  1.00  0.00     0.043 C 
ENDBRANCH   6  21
BRANCH   8  24
HETATM   24  O3  UNL     1      25.148  12.891  17.185  1.00  0.00    -0.395 OA
ATOM     25  H3  UNL     1      24.882  13.128  16.304  1.00  0.00     0.210 HD
ENDBRANCH   8  24
TORSDOF 5
ENDMDL
MODEL 4
REMARK VINA RESULT: -6.816081071      2.166      4.775
REMARK  5 active torsions:
REMARK  status: ('A' for Active; 'I' for Inactive)
REMARK    1  A    between atoms: C3_4  and  O1_5 
REMARK    2  A    between atoms: O1_5  and  C4_6 
REMARK    3  A    between atoms: C7_10  and  C8_11 
REMARK    4  A    between atoms: C12_15  and  O3_16 
REMARK    5  A    between atoms: C17_22  and  O4_24 
ROOT
HETATM    1  C1  UNL     1      23.058  12.390  24.564  1.00  0.00     0.221 C 
HETATM    2  N1  UNL     1      23.254  12.001  23.489  1.00  0.00    -0.461 NA
HETATM    3  C2  UNL     1      23.516  11.508  22.168  1.00  0.00     0.225 C 
HETATM    4  C3  UNL     1      24.016  12.683  21.380  1.00  0.00     0.176 C 
HETATM    5  C6  UNL     1      24.652  12.382  20.076  1.00  0.00     0.037 C 
HETATM    6  C7  UNL     1      25.352  11.120  19.880  1.00  0.00     0.023 C 
HETATM    7  C11 UNL     1      25.234  10.772  18.387  1.00  0.00     0.042 C 
HETATM    8  C12 UNL     1      24.411  11.867  17.771  1.00  0.00     0.127 C 
HETATM    9  C13 UNL     1      23.587  12.315  18.965  1.00  0.00    -0.011 C 
HETATM   10  C14 UNL     1      23.002  13.640  18.655  1.00  0.00     0.018 C 
HETATM   11  C15 UNL     1      22.615  11.221  19.219  1.00  0.00     0.015 C 
HETATM   12  C16 UNL     1      21.720  11.405  20.390  1.00  0.00     0.041 C 
HETATM   13  C17 UNL     1      22.250  10.896  21.684  1.00  0.00     0.089 C 
HETATM   14  C18 UNL     1      21.088  11.090  22.678  1.00  0.00     0.049 C 
ENDROOT
BRANCH   4  15
HETATM   15  O1  UNL     1      24.621  13.681  22.146  1.00  0.00    -0.313 OA
BRANCH  15  16
HETATM   16  C4  UNL     1      24.450  15.022  22.120  1.00  0.00     0.255 C 
HETATM   17  C5  UNL     1      23.129  15.629  21.813  1.00  0.00     0.126 C 
HETATM   18  O2  UNL     1      25.477  15.699  22.371  1.00  0.00    -0.266 OA
ENDBRANCH  15  16
ENDBRANCH   4  15
BRANCH  13  19
HETATM   19  O4  UNL     1      22.362   9.490  21.559  1.00  0.00    -0.387 OA
ATOM     20  H4  UNL     1      22.445   9.223  20.651  1.00  0.00     0.210 HD
ENDBRANCH  13  19
BRANCH   6  21
HETATM   21  C8  UNL     1      26.804  11.066  20.163  1.00  0.00    -0.088 C 
HETATM   22  C9  UNL     1      27.405  11.600  21.213  1.00  0.00     0.014 C 
HETATM   23  C10 UNL     1      27.715  10.347  19.192  1.00  0.00     0.043 C 
ENDBRANCH   6  21
BRANCH   8  24
HETATM   24  O3  UNL     1      25.124  12.864  17.185  1.00  0.00    -0.395 OA
ATOM     25  H3  UNL     1      24.654  13.682  17.072  1.00  0.00     0.210 HD
ENDBRANCH   8  24
TORSDOF 5
ENDMDL
MODEL 5
REMARK VINA RESULT: -6.739212452      1.896      3.023
REMARK  5 active torsions:
REMARK  status: ('A' for Active; 'I' for Inactive)
REMARK    1  A    between atoms: C3_4  and  O1_5 
REMARK    2  A    between atoms: O1_5  and  C4_6 
REMARK    3  A    between atoms: C7_10  and  C8_11 
REMARK    4  A    between atoms: C12_15  and  O3_16 
REMARK    5  A    between atoms: C17_22  and  O4_24 
ROOT
HETATM    1  C1  UNL     1      27.895  14.145  20.040  1.00  0.00     0.221 C 
HETATM    2  N1  UNL     1      26.882  13.606  19.877  1.00  0.00    -0.461 NA
HETATM    3  C2  UNL     1      25.616  12.961  19.678  1.00  0.00     0.225 C 
HETATM    4  C3  UNL     1      25.309  12.246  20.961  1.00  0.00     0.176 C 
HETATM    5  C6  UNL     1      23.920  11.761  21.131  1.00  0.00     0.037 C 
HETATM    6  C7  UNL     1      22.816  12.472  20.500  1.00  0.00     0.023 C 
HETATM    7  C11 UNL     1      21.723  11.429  20.211  1.00  0.00     0.042 C 
HETATM    8  C12 UNL     1      22.277  10.110  20.669  1.00  0.00     0.127 C 
HETATM    9  C13 UNL     1      23.768  10.356  20.518  1.00  0.00    -0.011 C 
HETATM   10  C14 UNL     1      24.489   9.316  21.287  1.00  0.00     0.018 C 
HETATM   11  C15 UNL     1      24.028  10.377  19.056  1.00  0.00     0.015 C 
HETATM   12  C16 UNL     1      25.428  10.659  18.648  1.00  0.00     0.041 C 
HETATM   13  C17 UNL     1      25.764  12.098  18.476  1.00  0.00     0.089 C 
HETATM   14  C18 UNL     1      27.206  12.092  17.932  1.00  0.00     0.049 C 
ENDROOT
BRANCH   4  15
HETATM   15  O1  UNL     1      25.913  12.800  22.092  1.00  0.00    -0.313 OA
BRANCH  15  16
HETATM   16  C4  UNL     1      25.423  13.677  22.997  1.00  0.00     0.255 C 
HETATM   17  C5  UNL     1      24.788  13.215  24.258  1.00  0.00     0.126 C 
HETATM   18  O2  UNL     1      25.547  14.889  22.693  1.00  0.00    -0.266 OA
ENDBRANCH  15  16
ENDBRANCH   4  15
BRANCH  13  19
HETATM   19  O4  UNL     1      24.991  12.574  17.390  1.00  0.00    -0.387 OA
ATOM     20  H4  UNL     1      24.548  11.867  16.936  1.00  0.00     0.210 HD
ENDBRANCH  13  19
BRANCH   6  21
HETATM   21  C8  UNL     1      22.128  13.532  21.268  1.00  0.00    -0.088 C 
HETATM   22  C9  UNL     1      21.238  13.336  22.228  1.00  0.00     0.014 C 
HETATM   23  C10 UNL     1      22.439  14.982  20.962  1.00  0.00     0.043 C 
ENDBRANCH   6  21
BRANCH   8  24
HETATM   24  O3  UNL     1      21.902   9.731  21.919  1.00  0.00    -0.395 OA
ATOM     25  H3  UNL     1      20.981   9.522  22.017  1.00  0.00     0.210 HD
ENDBRANCH   8  24
TORSDOF 5
ENDMDL
